MODEL 1
REMARK VINA RESULT:      -6.1      0.000      0.000
REMARK  Name = 
REMARK  4 active torsions:
REMARK  status: ('A' for Active; 'I' for Inactive)
REMARK    1  A    between atoms: C_6  and  O_7
REMARK    2  A    between atoms: O_7  and  C_8
REMARK    3  A    between atoms: C_8  and  C_9
REMARK    4  A    between atoms: C_9  and  N_10
REMARK                            x       y       z     vdW  Elec       q    Type
REMARK                         _______ _______ _______ _____ _____    ______ ____
ROOT
ATOM      1  O   UNL     1       4.414   6.922  18.047  0.00  0.00    +0.000 OA
ENDROOT
BRANCH   1   7
ATOM      2 BR   UNL     1       6.039   4.021  13.912  0.00  0.00    +0.000 Br
ATOM      3  C   UNL     1       6.168   4.681  15.683  0.00  0.00    +0.000 A 
ATOM      4  C   UNL     1       7.325   4.424  16.420  0.00  0.00    +0.000 A 
ATOM      5  C   UNL     1       7.449   4.959  17.698  0.00  0.00    +0.000 A 
ATOM      6  C   UNL     1       6.421   5.745  18.226  0.00  0.00    +0.000 A 
ATOM      7  C   UNL     1       5.259   5.999  17.490  0.00  0.00    +0.000 A 
ATOM      8  C   UNL     1       5.131   5.453  16.211  0.00  0.00    +0.000 A 
ENDBRANCH   1   7
BRANCH   1   9
ATOM      9  C   UNL     1       3.006   6.641  18.060  0.00  0.00    +0.000 C 
BRANCH   9  10
ATOM     10  C   UNL     1       2.577   6.375  19.513  0.00  0.00    +0.000 C 
BRANCH  10  11
ATOM     11  N   UNL     1       1.785   5.148  19.745  0.00  0.00    +0.000 NA
ATOM     12  C   UNL     1       1.865   4.220  18.606  0.00  0.00    +0.000 C 
ATOM     13  C   UNL     1       1.086   2.930  18.860  0.00  0.00    +0.000 C 
ATOM     14  C   UNL     1       1.569   2.237  20.125  0.00  0.00    +0.000 C 
ATOM     15  C   UNL     1       1.523   3.205  21.300  0.00  0.00    +0.000 C 
ATOM     16  C   UNL     1       2.267   4.503  20.984  0.00  0.00    +0.000 C 
ENDBRANCH  10  11
ENDBRANCH   9  10
ENDBRANCH   1   9
TORSDOF 4
ENDMDL
MODEL 2
REMARK VINA RESULT:      -6.1      3.428      5.924
REMARK  Name = 
REMARK  4 active torsions:
REMARK  status: ('A' for Active; 'I' for Inactive)
REMARK    1  A    between atoms: C_6  and  O_7
REMARK    2  A    between atoms: O_7  and  C_8
REMARK    3  A    between atoms: C_8  and  C_9
REMARK    4  A    between atoms: C_9  and  N_10
REMARK                            x       y       z     vdW  Elec       q    Type
REMARK                         _______ _______ _______ _____ _____    ______ ____
ROOT
ATOM      1  O   UNL     1       3.241   5.409  19.905  0.00  0.00    +0.000 OA
ENDROOT
BRANCH   1   7
ATOM      2 BR   UNL     1       0.467   9.815  20.931  0.00  0.00    +0.000 Br
ATOM      3  C   UNL     1       1.433   8.636  19.807  0.00  0.00    +0.000 A 
ATOM      4  C   UNL     1       1.764   9.050  18.515  0.00  0.00    +0.000 A 
ATOM      5  C   UNL     1       2.526   8.211  17.708  0.00  0.00    +0.000 A 
ATOM      6  C   UNL     1       2.953   6.973  18.197  0.00  0.00    +0.000 A 
ATOM      7  C   UNL     1       2.617   6.556  19.489  0.00  0.00    +0.000 A 
ATOM      8  C   UNL     1       1.843   7.393  20.295  0.00  0.00    +0.000 A 
ENDBRANCH   1   7
BRANCH   1   9
ATOM      9  C   UNL     1       3.498   4.381  18.937  0.00  0.00    +0.000 C 
BRANCH   9  10
ATOM     10  C   UNL     1       4.864   3.749  19.251  0.00  0.00    +0.000 C 
BRANCH  10  11
ATOM     11  N   UNL     1       6.029   4.335  18.555  0.00  0.00    +0.000 NA
ATOM     12  C   UNL     1       5.698   4.746  17.181  0.00  0.00    +0.000 C 
ATOM     13  C   UNL     1       6.887   5.396  16.474  0.00  0.00    +0.000 C 
ATOM     14  C   UNL     1       7.409   6.590  17.258  0.00  0.00    +0.000 C 
ATOM     15  C   UNL     1       7.718   6.178  18.691  0.00  0.00    +0.000 C 
ATOM     16  C   UNL     1       6.522   5.484  19.343  0.00  0.00    +0.000 C 
ENDBRANCH  10  11
ENDBRANCH   9  10
ENDBRANCH   1   9
TORSDOF 4
ENDMDL
MODEL 3
REMARK VINA RESULT:      -6.1      0.727      1.391
REMARK  Name = 
REMARK  4 active torsions:
REMARK  status: ('A' for Active; 'I' for Inactive)
REMARK    1  A    between atoms: C_6  and  O_7
REMARK    2  A    between atoms: O_7  and  C_8
REMARK    3  A    between atoms: C_8  and  C_9
REMARK    4  A    between atoms: C_9  and  N_10
REMARK                            x       y       z     vdW  Elec       q    Type
REMARK                         _______ _______ _______ _____ _____    ______ ____
ROOT
ATOM      1  O   UNL     1       4.110   7.383  17.562  0.00  0.00    +0.000 OA
ENDROOT
BRANCH   1   7
ATOM      2 BR   UNL     1       6.179   3.998  14.038  0.00  0.00    +0.000 Br
ATOM      3  C   UNL     1       6.191   4.996  15.648  0.00  0.00    +0.000 A 
ATOM      4  C   UNL     1       7.362   5.049  16.405  0.00  0.00    +0.000 A 
ATOM      5  C   UNL     1       7.393   5.830  17.556  0.00  0.00    +0.000 A 
ATOM      6  C   UNL     1       6.259   6.553  17.937  0.00  0.00    +0.000 A 
ATOM      7  C   UNL     1       5.082   6.496  17.181  0.00  0.00    +0.000 A 
ATOM      8  C   UNL     1       5.049   5.704  16.032  0.00  0.00    +0.000 A 
ENDBRANCH   1   7
BRANCH   1   9
ATOM      9  C   UNL     1       2.845   6.864  17.999  0.00  0.00    +0.000 C 
BRANCH   9  10
ATOM     10  C   UNL     1       3.040   6.201  19.373  0.00  0.00    +0.000 C 
BRANCH  10  11
ATOM     11  N   UNL     1       2.642   4.781  19.475  0.00  0.00    +0.000 NA
ATOM     12  C   UNL     1       1.475   4.600  20.352  0.00  0.00    +0.000 C 
ATOM     13  C   UNL     1       1.030   3.139  20.423  0.00  0.00    +0.000 C 
ATOM     14  C   UNL     1       0.724   2.590  19.038  0.00  0.00    +0.000 C 
ATOM     15  C   UNL     1       1.916   2.808  18.115  0.00  0.00    +0.000 C 
ATOM     16  C   UNL     1       2.362   4.271  18.116  0.00  0.00    +0.000 C 
ENDBRANCH  10  11
ENDBRANCH   9  10
ENDBRANCH   1   9
TORSDOF 4
ENDMDL
MODEL 4
REMARK VINA RESULT:      -6.0      3.032      5.918
REMARK  Name = 
REMARK  4 active torsions:
REMARK  status: ('A' for Active; 'I' for Inactive)
REMARK    1  A    between atoms: C_6  and  O_7
REMARK    2  A    between atoms: O_7  and  C_8
REMARK    3  A    between atoms: C_8  and  C_9
REMARK    4  A    between atoms: C_9  and  N_10
REMARK                            x       y       z     vdW  Elec       q    Type
REMARK                         _______ _______ _______ _____ _____    ______ ____
ROOT
ATOM      1  O   UNL     1       3.266   3.961  16.760  0.00  0.00    +0.000 OA
ENDROOT
BRANCH   1   7
ATOM      2 BR   UNL     1       1.489   2.652  21.585  0.00  0.00    +0.000 Br
ATOM      3  C   UNL     1       1.984   3.879  20.230  0.00  0.00    +0.000 A 
ATOM      4  C   UNL     1       2.066   5.237  20.541  0.00  0.00    +0.000 A 
ATOM      5  C   UNL     1       2.489   6.133  19.565  0.00  0.00    +0.000 A 
ATOM      6  C   UNL     1       2.828   5.667  18.291  0.00  0.00    +0.000 A 
ATOM      7  C   UNL     1       2.740   4.306  17.977  0.00  0.00    +0.000 A 
ATOM      8  C   UNL     1       2.306   3.409  18.954  0.00  0.00    +0.000 A 
ENDBRANCH   1   7
BRANCH   1   9
ATOM      9  C   UNL     1       4.670   3.677  16.677  0.00  0.00    +0.000 C 
BRANCH   9  10
ATOM     10  C   UNL     1       5.351   4.815  15.899  0.00  0.00    +0.000 C 
BRANCH  10  11
ATOM     11  N   UNL     1       6.544   5.416  16.534  0.00  0.00    +0.000 NA
ATOM     12  C   UNL     1       6.324   6.826  16.890  0.00  0.00    +0.000 C 
ATOM     13  C   UNL     1       7.537   7.439  17.589  0.00  0.00    +0.000 C 
ATOM     14  C   UNL     1       7.914   6.646  18.830  0.00  0.00    +0.000 C 
ATOM     15  C   UNL     1       8.107   5.178  18.474  0.00  0.00    +0.000 C 
ATOM     16  C   UNL     1       6.894   4.620  17.729  0.00  0.00    +0.000 C 
ENDBRANCH  10  11
ENDBRANCH   9  10
ENDBRANCH   1   9
TORSDOF 4
ENDMDL
MODEL 5
REMARK VINA RESULT:      -6.0      2.351      2.974
REMARK  Name = 
REMARK  4 active torsions:
REMARK  status: ('A' for Active; 'I' for Inactive)
REMARK    1  A    between atoms: C_6  and  O_7
REMARK    2  A    between atoms: O_7  and  C_8
REMARK    3  A    between atoms: C_8  and  C_9
REMARK    4  A    between atoms: C_9  and  N_10
REMARK                            x       y       z     vdW  Elec       q    Type
REMARK                         _______ _______ _______ _____ _____    ______ ____
ROOT
ATOM      1  O   UNL     1       5.253   5.413  16.254  0.00  0.00    +0.000 OA
ENDROOT
BRANCH   1   7
ATOM      2 BR   UNL     1       8.318   9.361  18.037  0.00  0.00    +0.000 Br
ATOM      3  C   UNL     1       7.741   7.558  17.956  0.00  0.00    +0.000 A 
ATOM      4  C   UNL     1       8.242   6.643  18.883  0.00  0.00    +0.000 A 
ATOM      5  C   UNL     1       7.775   5.333  18.866  0.00  0.00    +0.000 A 
ATOM      6  C   UNL     1       6.812   4.950  17.928  0.00  0.00    +0.000 A 
ATOM      7  C   UNL     1       6.312   5.866  16.995  0.00  0.00    +0.000 A 
ATOM      8  C   UNL     1       6.790   7.178  17.006  0.00  0.00    +0.000 A 
ENDBRANCH   1   7
BRANCH   1   9
ATOM      9  C   UNL     1       4.552   4.244  16.706  0.00  0.00    +0.000 C 
BRANCH   9  10
ATOM     10  C   UNL     1       3.301   4.695  17.477  0.00  0.00    +0.000 C 
BRANCH  10  11
ATOM     11  N   UNL     1       2.826   3.783  18.540  0.00  0.00    +0.000 NA
ATOM     12  C   UNL     1       3.082   4.325  19.883  0.00  0.00    +0.000 C 
ATOM     13  C   UNL     1       2.550   3.407  20.984  0.00  0.00    +0.000 C 
ATOM     14  C   UNL     1       1.062   3.143  20.808  0.00  0.00    +0.000 C 
ATOM     15  C   UNL     1       0.788   2.616  19.406  0.00  0.00    +0.000 C 
ATOM     16  C   UNL     1       1.383   3.535  18.338  0.00  0.00    +0.000 C 
ENDBRANCH  10  11
ENDBRANCH   9  10
ENDBRANCH   1   9
TORSDOF 4
ENDMDL
MODEL 6
REMARK VINA RESULT:      -6.0      3.286      4.765
REMARK  Name = 
REMARK  4 active torsions:
REMARK  status: ('A' for Active; 'I' for Inactive)
REMARK    1  A    between atoms: C_6  and  O_7
REMARK    2  A    between atoms: O_7  and  C_8
REMARK    3  A    between atoms: C_8  and  C_9
REMARK    4  A    between atoms: C_9  and  N_10
REMARK                            x       y       z     vdW  Elec       q    Type
REMARK                         _______ _______ _______ _____ _____    ______ ____
ROOT
ATOM      1  O   UNL     1       4.060   5.970  18.240  0.00  0.00    +0.000 OA
ENDROOT
BRANCH   1   7
ATOM      2 BR   UNL     1       0.700   8.355  21.583  0.00  0.00    +0.000 Br
ATOM      3  C   UNL     1       1.586   8.147  19.922  0.00  0.00    +0.000 A 
ATOM      4  C   UNL     1       1.461   9.148  18.957  0.00  0.00    +0.000 A 
ATOM      5  C   UNL     1       2.160   9.027  17.760  0.00  0.00    +0.000 A 
ATOM      6  C   UNL     1       2.977   7.915  17.540  0.00  0.00    +0.000 A 
ATOM      7  C   UNL     1       3.099   6.909  18.505  0.00  0.00    +0.000 A 
ATOM      8  C   UNL     1       2.389   7.025  19.701  0.00  0.00    +0.000 A 
ENDBRANCH   1   7
BRANCH   1   9
ATOM      9  C   UNL     1       3.728   4.877  17.373  0.00  0.00    +0.000 C 
BRANCH   9  10
ATOM     10  C   UNL     1       4.163   3.567  18.052  0.00  0.00    +0.000 C 
BRANCH  10  11
ATOM     11  N   UNL     1       3.177   2.946  18.962  0.00  0.00    +0.000 NA
ATOM     12  C   UNL     1       3.403   3.332  20.363  0.00  0.00    +0.000 C 
ATOM     13  C   UNL     1       2.357   2.730  21.301  0.00  0.00    +0.000 C 
ATOM     14  C   UNL     1       0.949   3.120  20.878  0.00  0.00    +0.000 C 
ATOM     15  C   UNL     1       0.723   2.755  19.417  0.00  0.00    +0.000 C 
ATOM     16  C   UNL     1       1.820   3.331  18.521  0.00  0.00    +0.000 C 
ENDBRANCH  10  11
ENDBRANCH   9  10
ENDBRANCH   1   9
TORSDOF 4
ENDMDL
MODEL 7
REMARK VINA RESULT:      -6.0      2.962      5.965
REMARK  Name = 
REMARK  4 active torsions:
REMARK  status: ('A' for Active; 'I' for Inactive)
REMARK    1  A    between atoms: C_6  and  O_7
REMARK    2  A    between atoms: O_7  and  C_8
REMARK    3  A    between atoms: C_8  and  C_9
REMARK    4  A    between atoms: C_9  and  N_10
REMARK                            x       y       z     vdW  Elec       q    Type
REMARK                         _______ _______ _______ _____ _____    ______ ____
ROOT
ATOM      1  O   UNL     1       3.197   4.251  16.906  0.00  0.00    +0.000 OA
ENDROOT
BRANCH   1   7
ATOM      2 BR   UNL     1       1.459   2.699  21.674  0.00  0.00    +0.000 Br
ATOM      3  C   UNL     1       1.896   3.992  20.360  0.00  0.00    +0.000 A 
ATOM      4  C   UNL     1       1.900   5.342  20.712  0.00  0.00    +0.000 A 
ATOM      5  C   UNL     1       2.278   6.290  19.767  0.00  0.00    +0.000 A 
ATOM      6  C   UNL     1       2.653   5.882  18.484  0.00  0.00    +0.000 A 
ATOM      7  C   UNL     1       2.644   4.529  18.128  0.00  0.00    +0.000 A 
ATOM      8  C   UNL     1       2.253   3.579  19.074  0.00  0.00    +0.000 A 
ENDBRANCH   1   7
BRANCH   1   9
ATOM      9  C   UNL     1       4.214   3.241  16.830  0.00  0.00    +0.000 C 
BRANCH   9  10
ATOM     10  C   UNL     1       5.542   3.916  16.447  0.00  0.00    +0.000 C 
BRANCH  10  11
ATOM     11  N   UNL     1       5.989   5.019  17.324  0.00  0.00    +0.000 NA
ATOM     12  C   UNL     1       7.306   4.746  17.921  0.00  0.00    +0.000 C 
ATOM     13  C   UNL     1       7.794   5.904  18.791  0.00  0.00    +0.000 C 
ATOM     14  C   UNL     1       7.845   7.202  18.001  0.00  0.00    +0.000 C 
ATOM     15  C   UNL     1       6.494   7.470  17.350  0.00  0.00    +0.000 C 
ATOM     16  C   UNL     1       6.019   6.267  16.535  0.00  0.00    +0.000 C 
ENDBRANCH  10  11
ENDBRANCH   9  10
ENDBRANCH   1   9
TORSDOF 4
ENDMDL
MODEL 8
REMARK VINA RESULT:      -6.0      1.142      1.228
REMARK  Name = 
REMARK  4 active torsions:
REMARK  status: ('A' for Active; 'I' for Inactive)
REMARK    1  A    between atoms: C_6  and  O_7
REMARK    2  A    between atoms: O_7  and  C_8
REMARK    3  A    between atoms: C_8  and  C_9
REMARK    4  A    between atoms: C_9  and  N_10
REMARK                            x       y       z     vdW  Elec       q    Type
REMARK                         _______ _______ _______ _____ _____    ______ ____
ROOT
ATOM      1  O   UNL     1       4.265   6.815  18.103  0.00  0.00    +0.000 OA
ENDROOT
BRANCH   1   7
ATOM      2 BR   UNL     1       6.177   4.048  13.999  0.00  0.00    +0.000 Br
ATOM      3  C   UNL     1       6.213   4.696  15.778  0.00  0.00    +0.000 A 
ATOM      4  C   UNL     1       7.358   4.494  16.551  0.00  0.00    +0.000 A 
ATOM      5  C   UNL     1       7.411   5.021  17.837  0.00  0.00    +0.000 A 
ATOM      6  C   UNL     1       6.326   5.746  18.337  0.00  0.00    +0.000 A 
ATOM      7  C   UNL     1       5.176   5.944  17.565  0.00  0.00    +0.000 A 
ATOM      8  C   UNL     1       5.119   5.406  16.279  0.00  0.00    +0.000 A 
ENDBRANCH   1   7
BRANCH   1   9
ATOM      9  C   UNL     1       2.870   6.497  17.996  0.00  0.00    +0.000 C 
BRANCH   9  10
ATOM     10  C   UNL     1       2.434   5.781  19.285  0.00  0.00    +0.000 C 
BRANCH  10  11
ATOM     11  N   UNL     1       2.383   4.305  19.226  0.00  0.00    +0.000 NA
ATOM     12  C   UNL     1       2.227   3.816  17.847  0.00  0.00    +0.000 C 
ATOM     13  C   UNL     1       2.221   2.289  17.776  0.00  0.00    +0.000 C 
ATOM     14  C   UNL     1       3.484   1.706  18.391  0.00  0.00    +0.000 C 
ATOM     15  C   UNL     1       3.670   2.238  19.805  0.00  0.00    +0.000 C 
ATOM     16  C   UNL     1       3.614   3.765  19.839  0.00  0.00    +0.000 C 
ENDBRANCH  10  11
ENDBRANCH   9  10
ENDBRANCH   1   9
TORSDOF 4
ENDMDL
MODEL 9
REMARK VINA RESULT:      -6.0      0.676      1.367
REMARK  Name = 
REMARK  4 active torsions:
REMARK  status: ('A' for Active; 'I' for Inactive)
REMARK    1  A    between atoms: C_6  and  O_7
REMARK    2  A    between atoms: O_7  and  C_8
REMARK    3  A    between atoms: C_8  and  C_9
REMARK    4  A    between atoms: C_9  and  N_10
REMARK                            x       y       z     vdW  Elec       q    Type
REMARK                         _______ _______ _______ _____ _____    ______ ____
ROOT
ATOM      1  O   UNL     1       4.398   6.184  18.604  0.00  0.00    +0.000 OA
ENDROOT
BRANCH   1   7
ATOM      2 BR   UNL     1       6.035   4.113  14.001  0.00  0.00    +0.000 Br
ATOM      3  C   UNL     1       6.222   4.538  15.838  0.00  0.00    +0.000 A 
ATOM      4  C   UNL     1       7.456   4.339  16.458  0.00  0.00    +0.000 A 
ATOM      5  C   UNL     1       7.614   4.706  17.790  0.00  0.00    +0.000 A 
ATOM      6  C   UNL     1       6.543   5.271  18.488  0.00  0.00    +0.000 A 
ATOM      7  C   UNL     1       5.303   5.466  17.869  0.00  0.00    +0.000 A 
ATOM      8  C   UNL     1       5.142   5.087  16.535  0.00  0.00    +0.000 A 
ENDBRANCH   1   7
BRANCH   1   9
ATOM      9  C   UNL     1       3.248   6.724  17.936  0.00  0.00    +0.000 C 
BRANCH   9  10
ATOM     10  C   UNL     1       2.028   5.858  18.293  0.00  0.00    +0.000 C 
BRANCH  10  11
ATOM     11  N   UNL     1       2.279   4.722  19.206  0.00  0.00    +0.000 NA
ATOM     12  C   UNL     1       1.911   5.042  20.594  0.00  0.00    +0.000 C 
ATOM     13  C   UNL     1       2.124   3.855  21.533  0.00  0.00    +0.000 C 
ATOM     14  C   UNL     1       1.350   2.634  21.061  0.00  0.00    +0.000 C 
ATOM     15  C   UNL     1       1.700   2.321  19.613  0.00  0.00    +0.000 C 
ATOM     16  C   UNL     1       1.525   3.549  18.718  0.00  0.00    +0.000 C 
ENDBRANCH  10  11
ENDBRANCH   9  10
ENDBRANCH   1   9
TORSDOF 4
ENDMDL
