MODEL 1
REMARK VINA RESULT:      -8.3      0.000      0.000
REMARK  Name = 
REMARK  12 active torsions:
REMARK  status: ('A' for Active; 'I' for Inactive)
REMARK    1  A    between atoms: C_1  and  C_2
REMARK    2  A    between atoms: C_2  and  C_3
REMARK    3  A    between atoms: C_2  and  C_4
REMARK    4  A    between atoms: C_2  and  C_5
REMARK    5  A    between atoms: C_7  and  C_8
REMARK    6  A    between atoms: N_9  and  N_10
REMARK    7  A    between atoms: C_11  and  C_13
REMARK    8  A    between atoms: C_20  and  C_21
REMARK    9  A    between atoms: C_21  and  C_22
REMARK   10  A    between atoms: C_21  and  C_23
REMARK   11  A    between atoms: C_21  and  C_24
REMARK   12  A    between atoms: C_25  and  O_26
REMARK                            x       y       z     vdW  Elec       q    Type
REMARK                         _______ _______ _______ _____ _____    ______ ____
ROOT
ATOM      1  C   UNL     1       3.461   4.037  18.812  0.00  0.00    +0.000 A 
ATOM      2  C   UNL     1       2.546   5.094  18.598  0.00  0.00    +0.000 A 
ATOM      3  C   UNL     1       2.970   6.345  18.165  0.00  0.00    +0.000 A 
ATOM      4  C   UNL     1       4.324   6.564  17.903  0.00  0.00    +0.000 A 
ATOM      5  C   UNL     1       5.303   5.562  18.100  0.00  0.00    +0.000 A 
ATOM      6  C   UNL     1       4.833   4.326  18.602  0.00  0.00    +0.000 A 
ENDROOT
BRANCH   1   8
ATOM      7  C   UNL     1       1.390   2.617  18.802  0.00  0.00    +0.000 C 
ATOM      8  C   UNL     1       2.885   2.653  19.210  0.00  0.00    +0.000 C 
ATOM      9  C   UNL     1       3.003   2.442  20.737  0.00  0.00    +0.000 C 
ATOM     10  C   UNL     1       3.528   1.411  18.552  0.00  0.00    +0.000 C 
ENDBRANCH   1   8
BRANCH   5  11
ATOM     11  C   UNL     1       6.798   5.901  17.834  0.00  0.00    +0.000 C 
ATOM     12  C   UNL     1       7.429   4.915  16.813  0.00  0.00    +0.000 C 
ATOM     13  C   UNL     1       6.940   7.328  17.263  0.00  0.00    +0.000 C 
ATOM     14  C   UNL     1       7.699   5.802  19.090  0.00  0.00    +0.000 C 
ENDBRANCH   5  11
BRANCH   3  15
ATOM     15  C   UNL     1       2.041   7.474  17.982  0.00  0.00    +0.000 C 
ATOM     16  N   UNL     1       2.278   8.650  18.488  0.00  0.00    +0.000 NA
BRANCH  16  17
ATOM     17  N   UNL     1       1.253   9.552  18.168  0.00  0.00    +0.000 NA
ATOM     18  C   UNL     1       0.468   9.781  19.188  0.00  0.00    +0.000 C 
ATOM     19  N   UNL     1       0.667   9.190  20.412  0.00  0.00    +0.000 N 
ATOM     20  H   UNL     1       1.361   8.454  20.289  0.00  0.00    +0.000 HD
ATOM     21  H   UNL     1      -0.178   8.838  20.851  0.00  0.00    +0.000 HD
BRANCH  18  22
ATOM     22  C   UNL     1      -0.700  10.697  19.021  0.00  0.00    +0.000 A 
ATOM     23  C   UNL     1      -1.564  10.546  17.940  0.00  0.00    +0.000 A 
ATOM     24  C   UNL     1      -2.656  11.389  17.864  0.00  0.00    +0.000 A 
ATOM     25  N   UNL     1      -2.931  12.353  18.772  0.00  0.00    +0.000 NA
ATOM     26  C   UNL     1      -2.068  12.483  19.803  0.00  0.00    +0.000 A 
ATOM     27  C   UNL     1      -0.951  11.685  19.976  0.00  0.00    +0.000 A 
ENDBRANCH  18  22
ENDBRANCH  16  17
ENDBRANCH   3  15
BRANCH   6  28
ATOM     28  O   UNL     1       5.748   3.382  18.976  0.00  0.00    +0.000 OA
ATOM     29  H   UNL     1       6.548   3.536  18.453  0.00  0.00    +0.000 HD
ENDBRANCH   6  28
TORSDOF 6
ENDMDL
MODEL 2
REMARK VINA RESULT:      -8.2      0.660      1.073
REMARK  Name = 
REMARK  12 active torsions:
REMARK  status: ('A' for Active; 'I' for Inactive)
REMARK    1  A    between atoms: C_1  and  C_2
REMARK    2  A    between atoms: C_2  and  C_3
REMARK    3  A    between atoms: C_2  and  C_4
REMARK    4  A    between atoms: C_2  and  C_5
REMARK    5  A    between atoms: C_7  and  C_8
REMARK    6  A    between atoms: N_9  and  N_10
REMARK    7  A    between atoms: C_11  and  C_13
REMARK    8  A    between atoms: C_20  and  C_21
REMARK    9  A    between atoms: C_21  and  C_22
REMARK   10  A    between atoms: C_21  and  C_23
REMARK   11  A    between atoms: C_21  and  C_24
REMARK   12  A    between atoms: C_25  and  O_26
REMARK                            x       y       z     vdW  Elec       q    Type
REMARK                         _______ _______ _______ _____ _____    ______ ____
ROOT
ATOM      1  C   UNL     1       3.419   4.123  18.898  0.00  0.00    +0.000 A 
ATOM      2  C   UNL     1       2.570   5.252  18.824  0.00  0.00    +0.000 A 
ATOM      3  C   UNL     1       3.056   6.505  18.472  0.00  0.00    +0.000 A 
ATOM      4  C   UNL     1       4.407   6.659  18.153  0.00  0.00    +0.000 A 
ATOM      5  C   UNL     1       5.323   5.582  18.211  0.00  0.00    +0.000 A 
ATOM      6  C   UNL     1       4.795   4.340  18.634  0.00  0.00    +0.000 A 
ENDROOT
BRANCH   1   8
ATOM      7  C   UNL     1       1.291   2.798  18.750  0.00  0.00    +0.000 C 
ATOM      8  C   UNL     1       2.770   2.749  19.212  0.00  0.00    +0.000 C 
ATOM      9  C   UNL     1       2.822   2.467  20.730  0.00  0.00    +0.000 C 
ATOM     10  C   UNL     1       3.382   1.510  18.520  0.00  0.00    +0.000 C 
ENDBRANCH   1   8
BRANCH   5  11
ATOM     11  C   UNL     1       6.822   5.845  17.890  0.00  0.00    +0.000 C 
ATOM     12  C   UNL     1       7.698   5.755  19.170  0.00  0.00    +0.000 C 
ATOM     13  C   UNL     1       7.355   4.807  16.879  0.00  0.00    +0.000 C 
ATOM     14  C   UNL     1       7.105   7.255  17.314  0.00  0.00    +0.000 C 
ENDBRANCH   5  11
BRANCH   3  15
ATOM     15  C   UNL     1       2.198   7.703  18.436  0.00  0.00    +0.000 C 
ATOM     16  N   UNL     1       1.897   8.367  19.515  0.00  0.00    +0.000 NA
BRANCH  16  17
ATOM     17  N   UNL     1       1.080   9.467  19.218  0.00  0.00    +0.000 NA
ATOM     18  C   UNL     1       0.163   9.654  20.131  0.00  0.00    +0.000 C 
ATOM     19  N   UNL     1       0.055   8.846  21.237  0.00  0.00    +0.000 N 
ATOM     20  H   UNL     1       0.652   8.034  21.085  0.00  0.00    +0.000 HD
ATOM     21  H   UNL     1      -0.895   8.572  21.467  0.00  0.00    +0.000 HD
BRANCH  18  22
ATOM     22  C   UNL     1      -0.820  10.766  19.964  0.00  0.00    +0.000 A 
ATOM     23  C   UNL     1      -1.592  10.854  18.808  0.00  0.00    +0.000 A 
ATOM     24  C   UNL     1      -2.521  11.875  18.730  0.00  0.00    +0.000 A 
ATOM     25  N   UNL     1      -2.720  12.792  19.703  0.00  0.00    +0.000 NA
ATOM     26  C   UNL     1      -1.949  12.687  20.806  0.00  0.00    +0.000 A 
ATOM     27  C   UNL     1      -0.997  11.698  20.988  0.00  0.00    +0.000 A 
ENDBRANCH  18  22
ENDBRANCH  16  17
ENDBRANCH   3  15
BRANCH   6  28
ATOM     28  O   UNL     1       5.661   3.310  18.877  0.00  0.00    +0.000 OA
ATOM     29  H   UNL     1       6.411   3.677  19.365  0.00  0.00    +0.000 HD
ENDBRANCH   6  28
TORSDOF 6
ENDMDL
MODEL 3
REMARK VINA RESULT:      -8.2      0.468      3.628
REMARK  Name = 
REMARK  12 active torsions:
REMARK  status: ('A' for Active; 'I' for Inactive)
REMARK    1  A    between atoms: C_1  and  C_2
REMARK    2  A    between atoms: C_2  and  C_3
REMARK    3  A    between atoms: C_2  and  C_4
REMARK    4  A    between atoms: C_2  and  C_5
REMARK    5  A    between atoms: C_7  and  C_8
REMARK    6  A    between atoms: N_9  and  N_10
REMARK    7  A    between atoms: C_11  and  C_13
REMARK    8  A    between atoms: C_20  and  C_21
REMARK    9  A    between atoms: C_21  and  C_22
REMARK   10  A    between atoms: C_21  and  C_23
REMARK   11  A    between atoms: C_21  and  C_24
REMARK   12  A    between atoms: C_25  and  O_26
REMARK                            x       y       z     vdW  Elec       q    Type
REMARK                         _______ _______ _______ _____ _____    ______ ____
ROOT
ATOM      1  C   UNL     1       5.333   5.693  18.145  0.00  0.00    +0.000 A 
ATOM      2  C   UNL     1       4.365   6.701  17.921  0.00  0.00    +0.000 A 
ATOM      3  C   UNL     1       3.024   6.499  18.221  0.00  0.00    +0.000 A 
ATOM      4  C   UNL     1       2.615   5.288  18.785  0.00  0.00    +0.000 A 
ATOM      5  C   UNL     1       3.519   4.228  19.032  0.00  0.00    +0.000 A 
ATOM      6  C   UNL     1       4.862   4.456  18.652  0.00  0.00    +0.000 A 
ENDROOT
BRANCH   1   8
ATOM      7  C   UNL     1       7.334   5.091  16.753  0.00  0.00    +0.000 C 
ATOM      8  C   UNL     1       6.817   6.042  17.862  0.00  0.00    +0.000 C 
ATOM      9  C   UNL     1       7.666   5.846  19.140  0.00  0.00    +0.000 C 
ATOM     10  C   UNL     1       7.118   7.473  17.360  0.00  0.00    +0.000 C 
ENDBRANCH   1   8
BRANCH   5  11
ATOM     11  C   UNL     1       2.976   2.891  19.614  0.00  0.00    +0.000 C 
ATOM     12  C   UNL     1       1.514   3.044  20.114  0.00  0.00    +0.000 C 
ATOM     13  C   UNL     1       2.995   1.781  18.541  0.00  0.00    +0.000 C 
ATOM     14  C   UNL     1       3.764   2.373  20.843  0.00  0.00    +0.000 C 
ENDBRANCH   5  11
BRANCH   3  15
ATOM     15  C   UNL     1       1.992   7.516  17.952  0.00  0.00    +0.000 C 
ATOM     16  N   UNL     1       2.108   8.743  18.374  0.00  0.00    +0.000 NA
BRANCH  16  17
ATOM     17  N   UNL     1       1.006   9.516  17.983  0.00  0.00    +0.000 NA
ATOM     18  C   UNL     1       0.248   9.835  19.000  0.00  0.00    +0.000 C 
ATOM     19  N   UNL     1       0.541   9.441  20.283  0.00  0.00    +0.000 N 
ATOM     20  H   UNL     1       1.283   8.744  20.229  0.00  0.00    +0.000 HD
ATOM     21  H   UNL     1      -0.256   9.097  20.810  0.00  0.00    +0.000 HD
BRANCH  18  22
ATOM     22  C   UNL     1      -0.992  10.634  18.767  0.00  0.00    +0.000 A 
ATOM     23  C   UNL     1      -1.742  10.447  17.608  0.00  0.00    +0.000 A 
ATOM     24  C   UNL     1      -2.907  11.177  17.469  0.00  0.00    +0.000 A 
ATOM     25  N   UNL     1      -3.357  12.063  18.386  0.00  0.00    +0.000 NA
ATOM     26  C   UNL     1      -2.602  12.232  19.493  0.00  0.00    +0.000 A 
ATOM     27  C   UNL     1      -1.425  11.544  19.733  0.00  0.00    +0.000 A 
ENDBRANCH  18  22
ENDBRANCH  16  17
ENDBRANCH   3  15
BRANCH   6  28
ATOM     28  O   UNL     1       5.742   3.412  18.703  0.00  0.00    +0.000 OA
ATOM     29  H   UNL     1       5.930   3.151  17.790  0.00  0.00    +0.000 HD
ENDBRANCH   6  28
TORSDOF 6
ENDMDL
MODEL 4
REMARK VINA RESULT:      -8.1      0.322      1.110
REMARK  Name = 
REMARK  12 active torsions:
REMARK  status: ('A' for Active; 'I' for Inactive)
REMARK    1  A    between atoms: C_1  and  C_2
REMARK    2  A    between atoms: C_2  and  C_3
REMARK    3  A    between atoms: C_2  and  C_4
REMARK    4  A    between atoms: C_2  and  C_5
REMARK    5  A    between atoms: C_7  and  C_8
REMARK    6  A    between atoms: N_9  and  N_10
REMARK    7  A    between atoms: C_11  and  C_13
REMARK    8  A    between atoms: C_20  and  C_21
REMARK    9  A    between atoms: C_21  and  C_22
REMARK   10  A    between atoms: C_21  and  C_23
REMARK   11  A    between atoms: C_21  and  C_24
REMARK   12  A    between atoms: C_25  and  O_26
REMARK                            x       y       z     vdW  Elec       q    Type
REMARK                         _______ _______ _______ _____ _____    ______ ____
ROOT
ATOM      1  C   UNL     1       3.629   4.117  18.817  0.00  0.00    +0.000 A 
ATOM      2  C   UNL     1       2.660   5.122  18.590  0.00  0.00    +0.000 A 
ATOM      3  C   UNL     1       3.010   6.368  18.085  0.00  0.00    +0.000 A 
ATOM      4  C   UNL     1       4.343   6.634  17.761  0.00  0.00    +0.000 A 
ATOM      5  C   UNL     1       5.372   5.685  17.966  0.00  0.00    +0.000 A 
ATOM      6  C   UNL     1       4.977   4.454  18.541  0.00  0.00    +0.000 A 
ENDROOT
BRANCH   1   8
ATOM      7  C   UNL     1       3.443   1.692  18.189  0.00  0.00    +0.000 C 
ATOM      8  C   UNL     1       3.130   2.729  19.298  0.00  0.00    +0.000 C 
ATOM      9  C   UNL     1       1.605   2.764  19.549  0.00  0.00    +0.000 C 
ATOM     10  C   UNL     1       3.768   2.165  20.588  0.00  0.00    +0.000 C 
ENDBRANCH   1   8
BRANCH   5  11
ATOM     11  C   UNL     1       6.840   6.076  17.628  0.00  0.00    +0.000 C 
ATOM     12  C   UNL     1       7.775   5.872  18.852  0.00  0.00    +0.000 C 
ATOM     13  C   UNL     1       7.382   5.211  16.470  0.00  0.00    +0.000 C 
ATOM     14  C   UNL     1       7.022   7.562  17.233  0.00  0.00    +0.000 C 
ENDBRANCH   5  11
BRANCH   3  15
ATOM     15  C   UNL     1       2.025   7.446  17.887  0.00  0.00    +0.000 C 
ATOM     16  N   UNL     1       2.244   8.663  18.297  0.00  0.00    +0.000 NA
BRANCH  16  17
ATOM     17  N   UNL     1       1.165   9.501  17.984  0.00  0.00    +0.000 NA
ATOM     18  C   UNL     1       0.434   9.769  19.034  0.00  0.00    +0.000 C 
ATOM     19  N   UNL     1       0.731   9.271  20.279  0.00  0.00    +0.000 N 
ATOM     20  H   UNL     1       1.447   8.555  20.161  0.00  0.00    +0.000 HD
ATOM     21  H   UNL     1      -0.070   8.918  20.793  0.00  0.00    +0.000 HD
BRANCH  18  22
ATOM     22  C   UNL     1      -0.780  10.627  18.882  0.00  0.00    +0.000 A 
ATOM     23  C   UNL     1      -1.628  10.458  17.790  0.00  0.00    +0.000 A 
ATOM     24  C   UNL     1      -2.762  11.245  17.728  0.00  0.00    +0.000 A 
ATOM     25  N   UNL     1      -3.093  12.169  18.658  0.00  0.00    +0.000 NA
ATOM     26  C   UNL     1      -2.246  12.317  19.698  0.00  0.00    +0.000 A 
ATOM     27  C   UNL     1      -1.089  11.575  19.860  0.00  0.00    +0.000 A 
ENDBRANCH  18  22
ENDBRANCH  16  17
ENDBRANCH   3  15
BRANCH   6  28
ATOM     28  O   UNL     1       5.947   3.570  18.922  0.00  0.00    +0.000 OA
ATOM     29  H   UNL     1       6.546   4.042  19.518  0.00  0.00    +0.000 HD
ENDBRANCH   6  28
TORSDOF 6
ENDMDL
MODEL 5
REMARK VINA RESULT:      -8.1      0.204      1.277
REMARK  Name = 
REMARK  12 active torsions:
REMARK  status: ('A' for Active; 'I' for Inactive)
REMARK    1  A    between atoms: C_1  and  C_2
REMARK    2  A    between atoms: C_2  and  C_3
REMARK    3  A    between atoms: C_2  and  C_4
REMARK    4  A    between atoms: C_2  and  C_5
REMARK    5  A    between atoms: C_7  and  C_8
REMARK    6  A    between atoms: N_9  and  N_10
REMARK    7  A    between atoms: C_11  and  C_13
REMARK    8  A    between atoms: C_20  and  C_21
REMARK    9  A    between atoms: C_21  and  C_22
REMARK   10  A    between atoms: C_21  and  C_23
REMARK   11  A    between atoms: C_21  and  C_24
REMARK   12  A    between atoms: C_25  and  O_26
REMARK                            x       y       z     vdW  Elec       q    Type
REMARK                         _______ _______ _______ _____ _____    ______ ____
ROOT
ATOM      1  C   UNL     1       3.442   3.967  18.858  0.00  0.00    +0.000 A 
ATOM      2  C   UNL     1       2.536   5.028  18.627  0.00  0.00    +0.000 A 
ATOM      3  C   UNL     1       2.971   6.272  18.188  0.00  0.00    +0.000 A 
ATOM      4  C   UNL     1       4.329   6.481  17.936  0.00  0.00    +0.000 A 
ATOM      5  C   UNL     1       5.299   5.474  18.148  0.00  0.00    +0.000 A 
ATOM      6  C   UNL     1       4.818   4.245  18.656  0.00  0.00    +0.000 A 
ENDROOT
BRANCH   1   8
ATOM      7  C   UNL     1       3.116   2.378  20.775  0.00  0.00    +0.000 C 
ATOM      8  C   UNL     1       2.854   2.589  19.262  0.00  0.00    +0.000 C 
ATOM      9  C   UNL     1       3.540   1.458  18.461  0.00  0.00    +0.000 C 
ATOM     10  C   UNL     1       1.333   2.393  19.070  0.00  0.00    +0.000 C 
ENDBRANCH   1   8
BRANCH   5  11
ATOM     11  C   UNL     1       6.799   5.802  17.893  0.00  0.00    +0.000 C 
ATOM     12  C   UNL     1       7.445   4.774  16.924  0.00  0.00    +0.000 C 
ATOM     13  C   UNL     1       6.952   7.203  17.264  0.00  0.00    +0.000 C 
ATOM     14  C   UNL     1       7.680   5.756  19.166  0.00  0.00    +0.000 C 
ENDBRANCH   5  11
BRANCH   3  15
ATOM     15  C   UNL     1       2.051   7.405  17.989  0.00  0.00    +0.000 C 
ATOM     16  N   UNL     1       2.420   8.637  18.195  0.00  0.00    +0.000 NA
BRANCH  16  17
ATOM     17  N   UNL     1       1.372   9.529  17.928  0.00  0.00    +0.000 NA
ATOM     18  C   UNL     1       0.642   9.756  18.989  0.00  0.00    +0.000 C 
ATOM     19  N   UNL     1       0.913   9.172  20.202  0.00  0.00    +0.000 N 
ATOM     20  H   UNL     1       1.605   8.441  20.044  0.00  0.00    +0.000 HD
ATOM     21  H   UNL     1       0.096   8.814  20.689  0.00  0.00    +0.000 HD
BRANCH  18  22
ATOM     22  C   UNL     1      -0.542  10.661  18.883  0.00  0.00    +0.000 A 
ATOM     23  C   UNL     1      -0.679  11.742  19.750  0.00  0.00    +0.000 A 
ATOM     24  C   UNL     1      -1.768  12.575  19.574  0.00  0.00    +0.000 A 
ATOM     25  N   UNL     1      -2.707  12.399  18.617  0.00  0.00    +0.000 NA
ATOM     26  C   UNL     1      -2.553  11.336  17.800  0.00  0.00    +0.000 A 
ATOM     27  C   UNL     1      -1.495  10.447  17.886  0.00  0.00    +0.000 A 
ENDBRANCH  18  22
ENDBRANCH  16  17
ENDBRANCH   3  15
BRANCH   6  28
ATOM     28  O   UNL     1       5.724   3.298  19.046  0.00  0.00    +0.000 OA
ATOM     29  H   UNL     1       6.598   3.713  19.021  0.00  0.00    +0.000 HD
ENDBRANCH   6  28
TORSDOF 6
ENDMDL
MODEL 6
REMARK VINA RESULT:      -8.1      0.715      1.443
REMARK  Name = 
REMARK  12 active torsions:
REMARK  status: ('A' for Active; 'I' for Inactive)
REMARK    1  A    between atoms: C_1  and  C_2
REMARK    2  A    between atoms: C_2  and  C_3
REMARK    3  A    between atoms: C_2  and  C_4
REMARK    4  A    between atoms: C_2  and  C_5
REMARK    5  A    between atoms: C_7  and  C_8
REMARK    6  A    between atoms: N_9  and  N_10
REMARK    7  A    between atoms: C_11  and  C_13
REMARK    8  A    between atoms: C_20  and  C_21
REMARK    9  A    between atoms: C_21  and  C_22
REMARK   10  A    between atoms: C_21  and  C_23
REMARK   11  A    between atoms: C_21  and  C_24
REMARK   12  A    between atoms: C_25  and  O_26
REMARK                            x       y       z     vdW  Elec       q    Type
REMARK                         _______ _______ _______ _____ _____    ______ ____
ROOT
ATOM      1  C   UNL     1       3.422   4.118  18.904  0.00  0.00    +0.000 A 
ATOM      2  C   UNL     1       2.574   5.249  18.852  0.00  0.00    +0.000 A 
ATOM      3  C   UNL     1       3.062   6.507  18.520  0.00  0.00    +0.000 A 
ATOM      4  C   UNL     1       4.412   6.664  18.199  0.00  0.00    +0.000 A 
ATOM      5  C   UNL     1       5.326   5.584  18.235  0.00  0.00    +0.000 A 
ATOM      6  C   UNL     1       4.797   4.336  18.639  0.00  0.00    +0.000 A 
ENDROOT
BRANCH   1   8
ATOM      7  C   UNL     1       1.291   2.799  18.739  0.00  0.00    +0.000 C 
ATOM      8  C   UNL     1       2.771   2.741  19.196  0.00  0.00    +0.000 C 
ATOM      9  C   UNL     1       2.827   2.432  20.710  0.00  0.00    +0.000 C 
ATOM     10  C   UNL     1       3.380   1.512  18.483  0.00  0.00    +0.000 C 
ENDBRANCH   1   8
BRANCH   5  11
ATOM     11  C   UNL     1       6.825   5.851  17.913  0.00  0.00    +0.000 C 
ATOM     12  C   UNL     1       7.030   7.264  17.302  0.00  0.00    +0.000 C 
ATOM     13  C   UNL     1       7.682   5.762  19.194  0.00  0.00    +0.000 C 
ATOM     14  C   UNL     1       7.429   4.877  16.872  0.00  0.00    +0.000 C 
ENDBRANCH   5  11
BRANCH   3  15
ATOM     15  C   UNL     1       2.207   7.708  18.508  0.00  0.00    +0.000 C 
ATOM     16  N   UNL     1       1.918   8.359  19.598  0.00  0.00    +0.000 NA
BRANCH  16  17
ATOM     17  N   UNL     1       1.100   9.464  19.323  0.00  0.00    +0.000 NA
ATOM     18  C   UNL     1       0.179   9.628  20.236  0.00  0.00    +0.000 C 
ATOM     19  N   UNL     1       0.068   8.796  21.323  0.00  0.00    +0.000 N 
ATOM     20  H   UNL     1       0.668   7.988  21.154  0.00  0.00    +0.000 HD
ATOM     21  H   UNL     1      -0.882   8.515  21.543  0.00  0.00    +0.000 HD
BRANCH  18  22
ATOM     22  C   UNL     1      -0.805  10.743  20.091  0.00  0.00    +0.000 A 
ATOM     23  C   UNL     1      -0.999  11.649  21.130  0.00  0.00    +0.000 A 
ATOM     24  C   UNL     1      -1.885  12.690  20.921  0.00  0.00    +0.000 A 
ATOM     25  N   UNL     1      -2.576  12.874  19.774  0.00  0.00    +0.000 NA
ATOM     26  C   UNL     1      -2.376  11.972  18.789  0.00  0.00    +0.000 A 
ATOM     27  C   UNL     1      -1.505  10.901  18.893  0.00  0.00    +0.000 A 
ENDBRANCH  18  22
ENDBRANCH  16  17
ENDBRANCH   3  15
BRANCH   6  28
ATOM     28  O   UNL     1       5.662   3.301  18.861  0.00  0.00    +0.000 OA
ATOM     29  H   UNL     1       6.372   3.638  19.426  0.00  0.00    +0.000 HD
ENDBRANCH   6  28
TORSDOF 6
ENDMDL
MODEL 7
REMARK VINA RESULT:      -8.1      1.405      3.883
REMARK  Name = 
REMARK  12 active torsions:
REMARK  status: ('A' for Active; 'I' for Inactive)
REMARK    1  A    between atoms: C_1  and  C_2
REMARK    2  A    between atoms: C_2  and  C_3
REMARK    3  A    between atoms: C_2  and  C_4
REMARK    4  A    between atoms: C_2  and  C_5
REMARK    5  A    between atoms: C_7  and  C_8
REMARK    6  A    between atoms: N_9  and  N_10
REMARK    7  A    between atoms: C_11  and  C_13
REMARK    8  A    between atoms: C_20  and  C_21
REMARK    9  A    between atoms: C_21  and  C_22
REMARK   10  A    between atoms: C_21  and  C_23
REMARK   11  A    between atoms: C_21  and  C_24
REMARK   12  A    between atoms: C_25  and  O_26
REMARK                            x       y       z     vdW  Elec       q    Type
REMARK                         _______ _______ _______ _____ _____    ______ ____
ROOT
ATOM      1  C   UNL     1       5.128   5.601  17.493  0.00  0.00    +0.000 A 
ATOM      2  C   UNL     1       4.476   6.856  17.505  0.00  0.00    +0.000 A 
ATOM      3  C   UNL     1       3.201   7.007  18.037  0.00  0.00    +0.000 A 
ATOM      4  C   UNL     1       2.552   5.906  18.602  0.00  0.00    +0.000 A 
ATOM      5  C   UNL     1       3.133   4.616  18.621  0.00  0.00    +0.000 A 
ATOM      6  C   UNL     1       4.404   4.498  18.012  0.00  0.00    +0.000 A 
ENDROOT
BRANCH   1   8
ATOM      7  C   UNL     1       7.203   6.961  17.107  0.00  0.00    +0.000 C 
ATOM      8  C   UNL     1       6.584   5.548  16.959  0.00  0.00    +0.000 C 
ATOM      9  C   UNL     1       6.594   5.139  15.469  0.00  0.00    +0.000 C 
ATOM     10  C   UNL     1       7.559   4.588  17.678  0.00  0.00    +0.000 C 
ENDBRANCH   1   8
BRANCH   5  11
ATOM     11  C   UNL     1       2.323   3.431  19.222  0.00  0.00    +0.000 C 
ATOM     12  C   UNL     1       1.045   3.931  19.949  0.00  0.00    +0.000 C 
ATOM     13  C   UNL     1       1.883   2.453  18.112  0.00  0.00    +0.000 C 
ATOM     14  C   UNL     1       3.095   2.618  20.290  0.00  0.00    +0.000 C 
ENDBRANCH   5  11
BRANCH   3  15
ATOM     15  C   UNL     1       2.484   8.294  18.017  0.00  0.00    +0.000 C 
ATOM     16  N   UNL     1       1.684   8.652  18.980  0.00  0.00    +0.000 NA
BRANCH  16  17
ATOM     17  N   UNL     1       1.132   9.917  18.733  0.00  0.00    +0.000 NA
ATOM     18  C   UNL     1       0.797  10.527  19.839  0.00  0.00    +0.000 C 
ATOM     19  N   UNL     1       0.987   9.959  21.075  0.00  0.00    +0.000 N 
ATOM     20  H   UNL     1       1.225   8.978  20.930  0.00  0.00    +0.000 HD
ATOM     21  H   UNL     1       0.203  10.063  21.712  0.00  0.00    +0.000 HD
BRANCH  18  22
ATOM     22  C   UNL     1       0.163  11.878  19.767  0.00  0.00    +0.000 A 
ATOM     23  C   UNL     1       0.703  12.865  18.946  0.00  0.00    +0.000 A 
ATOM     24  C   UNL     1       0.047  14.079  18.880  0.00  0.00    +0.000 A 
ATOM     25  N   UNL     1      -1.081  14.366  19.568  0.00  0.00    +0.000 NA
ATOM     26  C   UNL     1      -1.574  13.394  20.365  0.00  0.00    +0.000 A 
ATOM     27  C   UNL     1      -0.998  12.142  20.495  0.00  0.00    +0.000 A 
ENDBRANCH  18  22
ENDBRANCH  16  17
ENDBRANCH   3  15
BRANCH   6  28
ATOM     28  O   UNL     1       4.935   3.250  17.845  0.00  0.00    +0.000 OA
ATOM     29  H   UNL     1       4.422   2.645  18.398  0.00  0.00    +0.000 HD
ENDBRANCH   6  28
TORSDOF 6
ENDMDL
MODEL 8
REMARK VINA RESULT:      -8.1      1.121      1.386
REMARK  Name = 
REMARK  12 active torsions:
REMARK  status: ('A' for Active; 'I' for Inactive)
REMARK    1  A    between atoms: C_1  and  C_2
REMARK    2  A    between atoms: C_2  and  C_3
REMARK    3  A    between atoms: C_2  and  C_4
REMARK    4  A    between atoms: C_2  and  C_5
REMARK    5  A    between atoms: C_7  and  C_8
REMARK    6  A    between atoms: N_9  and  N_10
REMARK    7  A    between atoms: C_11  and  C_13
REMARK    8  A    between atoms: C_20  and  C_21
REMARK    9  A    between atoms: C_21  and  C_22
REMARK   10  A    between atoms: C_21  and  C_23
REMARK   11  A    between atoms: C_21  and  C_24
REMARK   12  A    between atoms: C_25  and  O_26
REMARK                            x       y       z     vdW  Elec       q    Type
REMARK                         _______ _______ _______ _____ _____    ______ ____
ROOT
ATOM      1  C   UNL     1       3.345   4.190  18.826  0.00  0.00    +0.000 A 
ATOM      2  C   UNL     1       2.584   5.376  18.710  0.00  0.00    +0.000 A 
ATOM      3  C   UNL     1       3.177   6.592  18.394  0.00  0.00    +0.000 A 
ATOM      4  C   UNL     1       4.552   6.650  18.154  0.00  0.00    +0.000 A 
ATOM      5  C   UNL     1       5.384   5.510  18.258  0.00  0.00    +0.000 A 
ATOM      6  C   UNL     1       4.746   4.308  18.644  0.00  0.00    +0.000 A 
ENDROOT
BRANCH   1   8
ATOM      7  C   UNL     1       1.131   3.031  18.576  0.00  0.00    +0.000 C 
ATOM      8  C   UNL     1       2.583   2.865  19.095  0.00  0.00    +0.000 C 
ATOM      9  C   UNL     1       2.553   2.562  20.610  0.00  0.00    +0.000 C 
ATOM     10  C   UNL     1       3.128   1.592  18.410  0.00  0.00    +0.000 C 
ENDBRANCH   1   8
BRANCH   5  11
ATOM     11  C   UNL     1       6.915   5.667  18.026  0.00  0.00    +0.000 C 
ATOM     12  C   UNL     1       7.243   7.001  17.303  0.00  0.00    +0.000 C 
ATOM     13  C   UNL     1       7.674   5.659  19.370  0.00  0.00    +0.000 C 
ATOM     14  C   UNL     1       7.532   4.566  17.129  0.00  0.00    +0.000 C 
ENDBRANCH   5  11
BRANCH   3  15
ATOM     15  C   UNL     1       2.411   7.848  18.316  0.00  0.00    +0.000 C 
ATOM     16  N   UNL     1       1.793   8.344  19.350  0.00  0.00    +0.000 NA
BRANCH  16  17
ATOM     17  N   UNL     1       1.147   9.544  19.023  0.00  0.00    +0.000 NA
ATOM     18  C   UNL     1       0.762  10.198  20.088  0.00  0.00    +0.000 C 
ATOM     19  N   UNL     1       0.992   9.728  21.358  0.00  0.00    +0.000 N 
ATOM     20  H   UNL     1       1.305   8.761  21.276  0.00  0.00    +0.000 HD
ATOM     21  H   UNL     1       0.200   9.812  21.988  0.00  0.00    +0.000 HD
BRANCH  18  22
ATOM     22  C   UNL     1       0.027  11.488  19.929  0.00  0.00    +0.000 A 
ATOM     23  C   UNL     1       0.251  12.293  18.815  0.00  0.00    +0.000 A 
ATOM     24  C   UNL     1      -0.494  13.451  18.695  0.00  0.00    +0.000 A 
ATOM     25  N   UNL     1      -1.419  13.850  19.597  0.00  0.00    +0.000 NA
ATOM     26  C   UNL     1      -1.605  13.055  20.673  0.00  0.00    +0.000 A 
ATOM     27  C   UNL     1      -0.918  11.872  20.882  0.00  0.00    +0.000 A 
ENDBRANCH  18  22
ENDBRANCH  16  17
ENDBRANCH   3  15
BRANCH   6  28
ATOM     28  O   UNL     1       5.521   3.219  18.930  0.00  0.00    +0.000 OA
ATOM     29  H   UNL     1       5.021   2.435  18.661  0.00  0.00    +0.000 HD
ENDBRANCH   6  28
TORSDOF 6
ENDMDL
MODEL 9
REMARK VINA RESULT:      -8.1      0.775      1.448
REMARK  Name = 
REMARK  12 active torsions:
REMARK  status: ('A' for Active; 'I' for Inactive)
REMARK    1  A    between atoms: C_1  and  C_2
REMARK    2  A    between atoms: C_2  and  C_3
REMARK    3  A    between atoms: C_2  and  C_4
REMARK    4  A    between atoms: C_2  and  C_5
REMARK    5  A    between atoms: C_7  and  C_8
REMARK    6  A    between atoms: N_9  and  N_10
REMARK    7  A    between atoms: C_11  and  C_13
REMARK    8  A    between atoms: C_20  and  C_21
REMARK    9  A    between atoms: C_21  and  C_22
REMARK   10  A    between atoms: C_21  and  C_23
REMARK   11  A    between atoms: C_21  and  C_24
REMARK   12  A    between atoms: C_25  and  O_26
REMARK                            x       y       z     vdW  Elec       q    Type
REMARK                         _______ _______ _______ _____ _____    ______ ____
ROOT
ATOM      1  C   UNL     1       3.352   4.079  18.994  0.00  0.00    +0.000 A 
ATOM      2  C   UNL     1       2.545   5.239  18.939  0.00  0.00    +0.000 A 
ATOM      3  C   UNL     1       3.078   6.481  18.617  0.00  0.00    +0.000 A 
ATOM      4  C   UNL     1       4.436   6.592  18.308  0.00  0.00    +0.000 A 
ATOM      5  C   UNL     1       5.311   5.481  18.348  0.00  0.00    +0.000 A 
ATOM      6  C   UNL     1       4.736   4.251  18.743  0.00  0.00    +0.000 A 
ENDROOT
BRANCH   1   8
ATOM      7  C   UNL     1       2.805   2.406  20.785  0.00  0.00    +0.000 C 
ATOM      8  C   UNL     1       2.651   2.724  19.276  0.00  0.00    +0.000 C 
ATOM      9  C   UNL     1       3.309   1.598  18.447  0.00  0.00    +0.000 C 
ATOM     10  C   UNL     1       1.135   2.646  18.986  0.00  0.00    +0.000 C 
ENDBRANCH   1   8
BRANCH   5  11
ATOM     11  C   UNL     1       6.822   5.696  18.041  0.00  0.00    +0.000 C 
ATOM     12  C   UNL     1       7.067   7.060  17.339  0.00  0.00    +0.000 C 
ATOM     13  C   UNL     1       7.651   5.679  19.343  0.00  0.00    +0.000 C 
ATOM     14  C   UNL     1       7.427   4.641  17.081  0.00  0.00    +0.000 C 
ENDBRANCH   5  11
BRANCH   3  15
ATOM     15  C   UNL     1       2.266   7.710  18.601  0.00  0.00    +0.000 C 
ATOM     16  N   UNL     1       1.823   8.258  19.697  0.00  0.00    +0.000 NA
BRANCH  16  17
ATOM     17  N   UNL     1       1.087   9.417  19.419  0.00  0.00    +0.000 NA
ATOM     18  C   UNL     1       0.148   9.623  20.305  0.00  0.00    +0.000 C 
ATOM     19  N   UNL     1      -0.052   8.779  21.369  0.00  0.00    +0.000 N 
ATOM     20  H   UNL     1       0.500   7.938  21.204  0.00  0.00    +0.000 HD
ATOM     21  H   UNL     1      -1.026   8.555  21.553  0.00  0.00    +0.000 HD
BRANCH  18  22
ATOM     22  C   UNL     1      -0.759  10.800  20.151  0.00  0.00    +0.000 A 
ATOM     23  C   UNL     1      -1.527  10.951  18.999  0.00  0.00    +0.000 A 
ATOM     24  C   UNL     1      -2.385  12.032  18.933  0.00  0.00    +0.000 A 
ATOM     25  N   UNL     1      -2.518  12.952  19.915  0.00  0.00    +0.000 NA
ATOM     26  C   UNL     1      -1.752  12.786  21.014  0.00  0.00    +0.000 A 
ATOM     27  C   UNL     1      -0.868  11.734  21.184  0.00  0.00    +0.000 A 
ENDBRANCH  18  22
ENDBRANCH  16  17
ENDBRANCH   3  15
BRANCH   6  28
ATOM     28  O   UNL     1       5.562   3.185  18.969  0.00  0.00    +0.000 OA
ATOM     29  H   UNL     1       5.419   2.556  18.248  0.00  0.00    +0.000 HD
ENDBRANCH   6  28
TORSDOF 6
ENDMDL
