MODEL 1
REMARK VINA RESULT:      -8.3      0.000      0.000
REMARK  Name = 
REMARK  8 active torsions:
REMARK  status: ('A' for Active; 'I' for Inactive)
REMARK    1  A    between atoms: C_2  and  C_3
REMARK    2  A    between atoms: C_3  and  S_4
REMARK    3  A    between atoms: S_4  and  C_5
REMARK    4  A    between atoms: C_8  and  C_9
REMARK    5  A    between atoms: C_9  and  N_10
REMARK    6  A    between atoms: C_11  and  C_13
REMARK    7  A    between atoms: C_17  and  C_18
REMARK    8  A    between atoms: N_24  and  C_25
REMARK                            x       y       z     vdW  Elec       q    Type
REMARK                         _______ _______ _______ _____ _____    ______ ____
ROOT
ATOM      1  C   UNL     1       1.983   5.186  19.862  0.00  0.00    +0.000 A 
ATOM      2  N   UNL     1       2.552   5.816  18.852  0.00  0.00    +0.000 NA
ATOM      3  N   UNL     1       2.454   7.164  19.117  0.00  0.00    +0.000 NA
ATOM      4  C   UNL     1       1.820   7.269  20.267  0.00  0.00    +0.000 A 
ATOM      5  O   UNL     1       1.461   6.053  20.785  0.00  0.00    +0.000 OA
ENDROOT
BRANCH   1   6
ATOM      6  S   UNL     1       1.944   3.463  20.056  0.00  0.00    +0.000 S 
BRANCH   6   7
ATOM      7  C   UNL     1       3.715   3.068  20.011  0.00  0.00    +0.000 C 
BRANCH   7   9
ATOM      8  O   UNL     1       3.858   2.449  17.680  0.00  0.00    +0.000 OA
ATOM      9  C   UNL     1       4.262   3.163  18.593  0.00  0.00    +0.000 C 
ATOM     10  N   UNL     1       5.259   4.108  18.435  0.00  0.00    +0.000 N 
ATOM     11  H   UNL     1       5.700   4.461  19.282  0.00  0.00    +0.000 HD
BRANCH  10  12
ATOM     12  C   UNL     1       5.994   4.289  17.184  0.00  0.00    +0.000 C 
ATOM     13  C   UNL     1       5.397   5.394  16.305  0.00  0.00    +0.000 C 
ATOM     14  C   UNL     1       5.492   6.764  16.970  0.00  0.00    +0.000 C 
ATOM     15  C   UNL     1       6.920   7.116  17.383  0.00  0.00    +0.000 C 
ATOM     16  C   UNL     1       7.655   5.991  18.109  0.00  0.00    +0.000 C 
ATOM     17  C   UNL     1       7.466   4.615  17.467  0.00  0.00    +0.000 C 
ENDBRANCH  10  12
ENDBRANCH   7   9
ENDBRANCH   6   7
ENDBRANCH   1   6
BRANCH   4  18
ATOM     18  C   UNL     1       1.518   8.477  21.071  0.00  0.00    +0.000 C 
BRANCH  18  19
ATOM     19  N   UNL     1       0.312   9.138  20.611  0.00  0.00    +0.000 N 
ATOM     20  C   UNL     1       0.409  10.036  19.570  0.00  0.00    +0.000 C 
ATOM     21  O   UNL     1       1.475  10.315  19.029  0.00  0.00    +0.000 OA
ATOM     22  H   UNL     1      -0.589   8.747  20.855  0.00  0.00    +0.000 HD
BRANCH  20  23
ATOM     23  C   UNL     1      -0.855  10.648  19.083  0.00  0.00    +0.000 A 
ATOM     24  C   UNL     1      -1.533  11.541  19.923  0.00  0.00    +0.000 A 
ATOM     25  C   UNL     1      -2.744  12.106  19.520  0.00  0.00    +0.000 A 
ATOM     26  C   UNL     1      -3.291  11.770  18.282  0.00  0.00    +0.000 A 
ATOM     27  C   UNL     1      -2.636  10.863  17.433  0.00  0.00    +0.000 A 
ATOM     28  C   UNL     1      -1.410  10.305  17.844  0.00  0.00    +0.000 A 
BRANCH  27  29
ATOM     29  C   UNL     1      -3.231  10.464  16.104  0.00  0.00    +0.000 C 
ATOM     30  F   UNL     1      -4.554  10.771  15.983  0.00  0.00    +0.000 F 
ATOM     31  F   UNL     1      -2.607  11.071  15.059  0.00  0.00    +0.000 F 
ATOM     32  F   UNL     1      -3.134   9.126  15.873  0.00  0.00    +0.000 F 
ENDBRANCH  27  29
ENDBRANCH  20  23
ENDBRANCH  18  19
ENDBRANCH   4  18
TORSDOF 8
ENDMDL
MODEL 2
REMARK VINA RESULT:      -8.3      2.610      3.339
REMARK  Name = 
REMARK  8 active torsions:
REMARK  status: ('A' for Active; 'I' for Inactive)
REMARK    1  A    between atoms: C_2  and  C_3
REMARK    2  A    between atoms: C_3  and  S_4
REMARK    3  A    between atoms: S_4  and  C_5
REMARK    4  A    between atoms: C_8  and  C_9
REMARK    5  A    between atoms: C_9  and  N_10
REMARK    6  A    between atoms: C_11  and  C_13
REMARK    7  A    between atoms: C_17  and  C_18
REMARK    8  A    between atoms: N_24  and  C_25
REMARK                            x       y       z     vdW  Elec       q    Type
REMARK                         _______ _______ _______ _____ _____    ______ ____
ROOT
ATOM      1  C   UNL     1       3.090   3.674  20.331  0.00  0.00    +0.000 A 
ATOM      2  N   UNL     1       1.868   3.674  20.830  0.00  0.00    +0.000 NA
ATOM      3  N   UNL     1       1.397   4.966  20.733  0.00  0.00    +0.000 NA
ATOM      4  C   UNL     1       2.369   5.672  20.193  0.00  0.00    +0.000 A 
ATOM      5  O   UNL     1       3.488   4.924  19.937  0.00  0.00    +0.000 OA
ENDROOT
BRANCH   1   6
ATOM      6  S   UNL     1       4.072   2.261  20.125  0.00  0.00    +0.000 S 
BRANCH   6   7
ATOM      7  C   UNL     1       3.448   1.631  18.541  0.00  0.00    +0.000 C 
BRANCH   7   9
ATOM      8  O   UNL     1       2.394   3.054  16.898  0.00  0.00    +0.000 OA
ATOM      9  C   UNL     1       3.421   2.729  17.486  0.00  0.00    +0.000 C 
ATOM     10  N   UNL     1       4.652   3.309  17.245  0.00  0.00    +0.000 N 
ATOM     11  H   UNL     1       5.473   2.810  17.583  0.00  0.00    +0.000 HD
BRANCH  10  12
ATOM     12  C   UNL     1       4.871   4.307  16.199  0.00  0.00    +0.000 C 
ATOM     13  C   UNL     1       4.697   5.742  16.707  0.00  0.00    +0.000 C 
ATOM     14  C   UNL     1       5.740   6.103  17.761  0.00  0.00    +0.000 C 
ATOM     15  C   UNL     1       7.168   5.875  17.273  0.00  0.00    +0.000 C 
ATOM     16  C   UNL     1       7.385   4.529  16.582  0.00  0.00    +0.000 C 
ATOM     17  C   UNL     1       6.275   4.157  15.597  0.00  0.00    +0.000 C 
ENDBRANCH  10  12
ENDBRANCH   7   9
ENDBRANCH   6   7
ENDBRANCH   1   6
BRANCH   4  18
ATOM     18  C   UNL     1       2.383   7.095  19.778  0.00  0.00    +0.000 C 
BRANCH  18  19
ATOM     19  N   UNL     1       1.604   7.922  20.679  0.00  0.00    +0.000 N 
ATOM     20  C   UNL     1       1.076   9.103  20.201  0.00  0.00    +0.000 C 
ATOM     21  O   UNL     1       1.255   9.493  19.052  0.00  0.00    +0.000 OA
ATOM     22  H   UNL     1       1.234   7.513  21.528  0.00  0.00    +0.000 HD
BRANCH  20  23
ATOM     23  C   UNL     1       0.232   9.894  21.135  0.00  0.00    +0.000 A 
ATOM     24  C   UNL     1       0.090   9.444  22.453  0.00  0.00    +0.000 A 
ATOM     25  C   UNL     1      -0.725  10.137  23.350  0.00  0.00    +0.000 A 
ATOM     26  C   UNL     1      -1.416  11.272  22.928  0.00  0.00    +0.000 A 
ATOM     27  C   UNL     1      -1.301  11.729  21.605  0.00  0.00    +0.000 A 
ATOM     28  C   UNL     1      -0.468  11.030  20.710  0.00  0.00    +0.000 A 
BRANCH  27  29
ATOM     29  C   UNL     1      -2.067  12.938  21.124  0.00  0.00    +0.000 C 
ATOM     30  F   UNL     1      -2.138  13.035  19.766  0.00  0.00    +0.000 F 
ATOM     31  F   UNL     1      -3.351  12.943  21.569  0.00  0.00    +0.000 F 
ATOM     32  F   UNL     1      -1.515  14.106  21.553  0.00  0.00    +0.000 F 
ENDBRANCH  27  29
ENDBRANCH  20  23
ENDBRANCH  18  19
ENDBRANCH   4  18
TORSDOF 8
ENDMDL
MODEL 3
REMARK VINA RESULT:      -8.2      3.843      5.157
REMARK  Name = 
REMARK  8 active torsions:
REMARK  status: ('A' for Active; 'I' for Inactive)
REMARK    1  A    between atoms: C_2  and  C_3
REMARK    2  A    between atoms: C_3  and  S_4
REMARK    3  A    between atoms: S_4  and  C_5
REMARK    4  A    between atoms: C_8  and  C_9
REMARK    5  A    between atoms: C_9  and  N_10
REMARK    6  A    between atoms: C_11  and  C_13
REMARK    7  A    between atoms: C_17  and  C_18
REMARK    8  A    between atoms: N_24  and  C_25
REMARK                            x       y       z     vdW  Elec       q    Type
REMARK                         _______ _______ _______ _____ _____    ______ ____
ROOT
ATOM      1  C   UNL     1       2.788   7.485  18.104  0.00  0.00    +0.000 A 
ATOM      2  N   UNL     1       2.281   8.572  17.553  0.00  0.00    +0.000 NA
ATOM      3  N   UNL     1       1.530   9.197  18.524  0.00  0.00    +0.000 NA
ATOM      4  C   UNL     1       1.618   8.444  19.601  0.00  0.00    +0.000 A 
ATOM      5  O   UNL     1       2.377   7.321  19.400  0.00  0.00    +0.000 OA
ENDROOT
BRANCH   1   6
ATOM      6  S   UNL     1       3.900   6.409  17.322  0.00  0.00    +0.000 S 
BRANCH   6   7
ATOM      7  C   UNL     1       5.102   6.123  18.652  0.00  0.00    +0.000 C 
BRANCH   7   9
ATOM      8  O   UNL     1       5.959   3.914  19.122  0.00  0.00    +0.000 OA
ATOM      9  C   UNL     1       5.014   4.696  19.174  0.00  0.00    +0.000 C 
ATOM     10  N   UNL     1       3.777   4.360  19.692  0.00  0.00    +0.000 N 
ATOM     11  H   UNL     1       2.997   4.973  19.462  0.00  0.00    +0.000 HD
BRANCH  10  12
ATOM     12  C   UNL     1       3.443   3.012  20.148  0.00  0.00    +0.000 C 
ATOM     13  C   UNL     1       2.274   2.997  21.139  0.00  0.00    +0.000 C 
ATOM     14  C   UNL     1       0.977   3.481  20.496  0.00  0.00    +0.000 C 
ATOM     15  C   UNL     1       0.623   2.700  19.233  0.00  0.00    +0.000 C 
ATOM     16  C   UNL     1       1.793   2.508  18.268  0.00  0.00    +0.000 C 
ATOM     17  C   UNL     1       3.100   2.110  18.955  0.00  0.00    +0.000 C 
ENDBRANCH  10  12
ENDBRANCH   7   9
ENDBRANCH   6   7
ENDBRANCH   1   6
BRANCH   4  18
ATOM     18  C   UNL     1       1.082   8.678  20.963  0.00  0.00    +0.000 C 
BRANCH  18  19
ATOM     19  N   UNL     1       0.060   9.706  20.966  0.00  0.00    +0.000 N 
ATOM     20  C   UNL     1      -0.238  10.336  22.155  0.00  0.00    +0.000 C 
ATOM     21  O   UNL     1       0.311  10.051  23.215  0.00  0.00    +0.000 OA
ATOM     22  H   UNL     1      -0.215  10.130  20.089  0.00  0.00    +0.000 HD
BRANCH  20  23
ATOM     23  C   UNL     1      -1.247  11.427  22.109  0.00  0.00    +0.000 A 
ATOM     24  C   UNL     1      -1.273  12.268  20.988  0.00  0.00    +0.000 A 
ATOM     25  C   UNL     1      -2.178  13.328  20.924  0.00  0.00    +0.000 A 
ATOM     26  C   UNL     1      -3.050  13.564  21.987  0.00  0.00    +0.000 A 
ATOM     27  C   UNL     1      -3.027  12.744  23.127  0.00  0.00    +0.000 A 
ATOM     28  C   UNL     1      -2.117  11.671  23.178  0.00  0.00    +0.000 A 
BRANCH  27  29
ATOM     29  C   UNL     1      -3.942  13.006  24.299  0.00  0.00    +0.000 C 
ATOM     30  F   UNL     1      -4.393  11.870  24.904  0.00  0.00    +0.000 F 
ATOM     31  F   UNL     1      -3.334  13.734  25.272  0.00  0.00    +0.000 F 
ATOM     32  F   UNL     1      -5.054  13.706  23.943  0.00  0.00    +0.000 F 
ENDBRANCH  27  29
ENDBRANCH  20  23
ENDBRANCH  18  19
ENDBRANCH   4  18
TORSDOF 8
ENDMDL
MODEL 4
REMARK VINA RESULT:      -8.1      1.449      1.958
REMARK  Name = 
REMARK  8 active torsions:
REMARK  status: ('A' for Active; 'I' for Inactive)
REMARK    1  A    between atoms: C_2  and  C_3
REMARK    2  A    between atoms: C_3  and  S_4
REMARK    3  A    between atoms: S_4  and  C_5
REMARK    4  A    between atoms: C_8  and  C_9
REMARK    5  A    between atoms: C_9  and  N_10
REMARK    6  A    between atoms: C_11  and  C_13
REMARK    7  A    between atoms: C_17  and  C_18
REMARK    8  A    between atoms: N_24  and  C_25
REMARK                            x       y       z     vdW  Elec       q    Type
REMARK                         _______ _______ _______ _____ _____    ______ ____
ROOT
ATOM      1  C   UNL     1       1.945   4.306  19.085  0.00  0.00    +0.000 A 
ATOM      2  N   UNL     1       1.402   4.428  20.281  0.00  0.00    +0.000 NA
ATOM      3  N   UNL     1       1.564   5.743  20.660  0.00  0.00    +0.000 NA
ATOM      4  C   UNL     1       2.207   6.335  19.675  0.00  0.00    +0.000 A 
ATOM      5  O   UNL     1       2.510   5.476  18.651  0.00  0.00    +0.000 OA
ENDROOT
BRANCH   1   6
ATOM      6  S   UNL     1       1.905   2.863  18.124  0.00  0.00    +0.000 S 
BRANCH   6   7
ATOM      7  C   UNL     1       3.334   1.962  18.789  0.00  0.00    +0.000 C 
BRANCH   7   9
ATOM      8  O   UNL     1       5.005   3.098  20.112  0.00  0.00    +0.000 OA
ATOM      9  C   UNL     1       4.518   2.895  19.005  0.00  0.00    +0.000 C 
ATOM     10  N   UNL     1       4.978   3.498  17.849  0.00  0.00    +0.000 N 
ATOM     11  H   UNL     1       4.363   3.473  17.037  0.00  0.00    +0.000 HD
BRANCH  10  12
ATOM     12  C   UNL     1       6.034   4.508  17.844  0.00  0.00    +0.000 C 
ATOM     13  C   UNL     1       7.056   4.287  16.723  0.00  0.00    +0.000 C 
ATOM     14  C   UNL     1       6.425   4.433  15.341  0.00  0.00    +0.000 C 
ATOM     15  C   UNL     1       5.710   5.770  15.162  0.00  0.00    +0.000 C 
ATOM     16  C   UNL     1       4.805   6.156  16.332  0.00  0.00    +0.000 C 
ATOM     17  C   UNL     1       5.435   5.914  17.705  0.00  0.00    +0.000 C 
ENDBRANCH  10  12
ENDBRANCH   7   9
ENDBRANCH   6   7
ENDBRANCH   1   6
BRANCH   4  18
ATOM     18  C   UNL     1       2.568   7.762  19.506  0.00  0.00    +0.000 C 
BRANCH  18  19
ATOM     19  N   UNL     1       1.401   8.620  19.577  0.00  0.00    +0.000 N 
ATOM     20  C   UNL     1       1.152   9.482  18.530  0.00  0.00    +0.000 C 
ATOM     21  O   UNL     1       1.886   9.568  17.550  0.00  0.00    +0.000 OA
ATOM     22  H   UNL     1       0.661   8.393  20.228  0.00  0.00    +0.000 HD
BRANCH  20  23
ATOM     23  C   UNL     1      -0.086  10.302  18.608  0.00  0.00    +0.000 A 
ATOM     24  C   UNL     1      -0.166  11.302  19.586  0.00  0.00    +0.000 A 
ATOM     25  C   UNL     1      -1.325  12.067  19.717  0.00  0.00    +0.000 A 
ATOM     26  C   UNL     1      -2.417  11.825  18.884  0.00  0.00    +0.000 A 
ATOM     27  C   UNL     1      -2.364  10.815  17.911  0.00  0.00    +0.000 A 
ATOM     28  C   UNL     1      -1.186  10.055  17.778  0.00  0.00    +0.000 A 
BRANCH  27  29
ATOM     29  C   UNL     1      -3.549  10.519  17.022  0.00  0.00    +0.000 C 
ATOM     30  F   UNL     1      -3.338   9.487  16.156  0.00  0.00    +0.000 F 
ATOM     31  F   UNL     1      -4.657  10.189  17.737  0.00  0.00    +0.000 F 
ATOM     32  F   UNL     1      -3.900  11.586  16.254  0.00  0.00    +0.000 F 
ENDBRANCH  27  29
ENDBRANCH  20  23
ENDBRANCH  18  19
ENDBRANCH   4  18
TORSDOF 8
ENDMDL
MODEL 5
REMARK VINA RESULT:      -8.1      2.251      3.862
REMARK  Name = 
REMARK  8 active torsions:
REMARK  status: ('A' for Active; 'I' for Inactive)
REMARK    1  A    between atoms: C_2  and  C_3
REMARK    2  A    between atoms: C_3  and  S_4
REMARK    3  A    between atoms: S_4  and  C_5
REMARK    4  A    between atoms: C_8  and  C_9
REMARK    5  A    between atoms: C_9  and  N_10
REMARK    6  A    between atoms: C_11  and  C_13
REMARK    7  A    between atoms: C_17  and  C_18
REMARK    8  A    between atoms: N_24  and  C_25
REMARK                            x       y       z     vdW  Elec       q    Type
REMARK                         _______ _______ _______ _____ _____    ______ ____
ROOT
ATOM      1  C   UNL     1       2.447   7.271  19.109  0.00  0.00    +0.000 A 
ATOM      2  N   UNL     1       2.203   6.696  20.272  0.00  0.00    +0.000 NA
ATOM      3  N   UNL     1       1.432   7.577  20.999  0.00  0.00    +0.000 NA
ATOM      4  C   UNL     1       1.266   8.638  20.236  0.00  0.00    +0.000 A 
ATOM      5  O   UNL     1       1.908   8.528  19.031  0.00  0.00    +0.000 OA
ENDROOT
BRANCH   1   6
ATOM      6  S   UNL     1       3.290   6.520  17.794  0.00  0.00    +0.000 S 
BRANCH   6   7
ATOM      7  C   UNL     1       4.917   6.229  18.545  0.00  0.00    +0.000 C 
BRANCH   7   9
ATOM      8  O   UNL     1       6.086   4.284  19.373  0.00  0.00    +0.000 OA
ATOM      9  C   UNL     1       5.013   4.821  19.117  0.00  0.00    +0.000 C 
ATOM     10  N   UNL     1       3.790   4.204  19.304  0.00  0.00    +0.000 N 
ATOM     11  H   UNL     1       2.986   4.616  18.832  0.00  0.00    +0.000 HD
BRANCH  10  12
ATOM     12  C   UNL     1       3.656   2.816  19.741  0.00  0.00    +0.000 C 
ATOM     13  C   UNL     1       2.818   2.677  21.017  0.00  0.00    +0.000 C 
ATOM     14  C   UNL     1       1.373   3.117  20.799  0.00  0.00    +0.000 C 
ATOM     15  C   UNL     1       0.708   2.385  19.635  0.00  0.00    +0.000 C 
ATOM     16  C   UNL     1       1.563   2.317  18.370  0.00  0.00    +0.000 C 
ATOM     17  C   UNL     1       3.027   1.960  18.634  0.00  0.00    +0.000 C 
ENDBRANCH  10  12
ENDBRANCH   7   9
ENDBRANCH   6   7
ENDBRANCH   1   6
BRANCH   4  18
ATOM     18  C   UNL     1       0.451   9.854  20.473  0.00  0.00    +0.000 C 
BRANCH  18  19
ATOM     19  N   UNL     1      -0.734   9.874  19.638  0.00  0.00    +0.000 N 
ATOM     20  C   UNL     1      -0.870  10.884  18.710  0.00  0.00    +0.000 C 
ATOM     21  O   UNL     1      -0.040  11.778  18.574  0.00  0.00    +0.000 OA
ATOM     22  H   UNL     1      -1.290   9.033  19.550  0.00  0.00    +0.000 HD
BRANCH  20  23
ATOM     23  C   UNL     1      -2.066  10.839  17.829  0.00  0.00    +0.000 A 
ATOM     24  C   UNL     1      -1.972  10.163  16.606  0.00  0.00    +0.000 A 
ATOM     25  C   UNL     1      -3.060  10.131  15.733  0.00  0.00    +0.000 A 
ATOM     26  C   UNL     1      -4.242  10.789  16.070  0.00  0.00    +0.000 A 
ATOM     27  C   UNL     1      -4.351  11.487  17.284  0.00  0.00    +0.000 A 
ATOM     28  C   UNL     1      -3.251  11.505  18.163  0.00  0.00    +0.000 A 
BRANCH  27  29
ATOM     29  C   UNL     1      -5.613  12.231  17.650  0.00  0.00    +0.000 C 
ATOM     30  F   UNL     1      -5.963  13.192  16.748  0.00  0.00    +0.000 F 
ATOM     31  F   UNL     1      -6.687  11.402  17.750  0.00  0.00    +0.000 F 
ATOM     32  F   UNL     1      -5.513  12.864  18.850  0.00  0.00    +0.000 F 
ENDBRANCH  27  29
ENDBRANCH  20  23
ENDBRANCH  18  19
ENDBRANCH   4  18
TORSDOF 8
ENDMDL
MODEL 6
REMARK VINA RESULT:      -7.9      2.926      3.518
REMARK  Name = 
REMARK  8 active torsions:
REMARK  status: ('A' for Active; 'I' for Inactive)
REMARK    1  A    between atoms: C_2  and  C_3
REMARK    2  A    between atoms: C_3  and  S_4
REMARK    3  A    between atoms: S_4  and  C_5
REMARK    4  A    between atoms: C_8  and  C_9
REMARK    5  A    between atoms: C_9  and  N_10
REMARK    6  A    between atoms: C_11  and  C_13
REMARK    7  A    between atoms: C_17  and  C_18
REMARK    8  A    between atoms: N_24  and  C_25
REMARK                            x       y       z     vdW  Elec       q    Type
REMARK                         _______ _______ _______ _____ _____    ______ ____
ROOT
ATOM      1  C   UNL     1       1.663   3.954  19.736  0.00  0.00    +0.000 A 
ATOM      2  N   UNL     1       1.707   4.292  21.011  0.00  0.00    +0.000 NA
ATOM      3  N   UNL     1       2.033   5.630  21.059  0.00  0.00    +0.000 NA
ATOM      4  C   UNL     1       2.179   6.018  19.809  0.00  0.00    +0.000 A 
ATOM      5  O   UNL     1       1.989   5.000  18.913  0.00  0.00    +0.000 OA
ENDROOT
BRANCH   1   6
ATOM      6  S   UNL     1       1.187   2.397  19.142  0.00  0.00    +0.000 S 
BRANCH   6   7
ATOM      7  C   UNL     1       2.293   2.217  17.713  0.00  0.00    +0.000 C 
BRANCH   7   9
ATOM      8  O   UNL     1       4.281   2.338  19.079  0.00  0.00    +0.000 OA
ATOM      9  C   UNL     1       3.704   2.677  18.050  0.00  0.00    +0.000 C 
ATOM     10  N   UNL     1       4.263   3.518  17.106  0.00  0.00    +0.000 N 
ATOM     11  H   UNL     1       3.630   3.943  16.431  0.00  0.00    +0.000 HD
BRANCH  10  12
ATOM     12  C   UNL     1       5.565   4.160  17.282  0.00  0.00    +0.000 C 
ATOM     13  C   UNL     1       6.366   4.237  15.977  0.00  0.00    +0.000 C 
ATOM     14  C   UNL     1       5.678   5.118  14.939  0.00  0.00    +0.000 C 
ATOM     15  C   UNL     1       5.374   6.518  15.468  0.00  0.00    +0.000 C 
ATOM     16  C   UNL     1       4.737   6.536  16.858  0.00  0.00    +0.000 C 
ATOM     17  C   UNL     1       5.395   5.575  17.850  0.00  0.00    +0.000 C 
ENDBRANCH  10  12
ENDBRANCH   7   9
ENDBRANCH   6   7
ENDBRANCH   1   6
BRANCH   4  18
ATOM     18  C   UNL     1       2.443   7.372  19.266  0.00  0.00    +0.000 C 
BRANCH  18  19
ATOM     19  N   UNL     1       1.476   8.339  19.750  0.00  0.00    +0.000 N 
ATOM     20  C   UNL     1       1.162   9.416  18.948  0.00  0.00    +0.000 C 
ATOM     21  O   UNL     1       1.680   9.601  17.851  0.00  0.00    +0.000 OA
ATOM     22  H   UNL     1       0.860   8.082  20.510  0.00  0.00    +0.000 HD
BRANCH  20  23
ATOM     23  C   UNL     1       0.122  10.353  19.449  0.00  0.00    +0.000 A 
ATOM     24  C   UNL     1      -0.537  11.175  18.527  0.00  0.00    +0.000 A 
ATOM     25  C   UNL     1      -1.491  12.097  18.961  0.00  0.00    +0.000 A 
ATOM     26  C   UNL     1      -1.779  12.212  20.321  0.00  0.00    +0.000 A 
ATOM     27  C   UNL     1      -1.115  11.410  21.263  0.00  0.00    +0.000 A 
ATOM     28  C   UNL     1      -0.161  10.476  20.815  0.00  0.00    +0.000 A 
BRANCH  27  29
ATOM     29  C   UNL     1      -1.392  11.545  22.741  0.00  0.00    +0.000 C 
ATOM     30  F   UNL     1      -0.965  10.478  23.477  0.00  0.00    +0.000 F 
ATOM     31  F   UNL     1      -0.787  12.637  23.279  0.00  0.00    +0.000 F 
ATOM     32  F   UNL     1      -2.719  11.678  23.010  0.00  0.00    +0.000 F 
ENDBRANCH  27  29
ENDBRANCH  20  23
ENDBRANCH  18  19
ENDBRANCH   4  18
TORSDOF 8
ENDMDL
MODEL 7
REMARK VINA RESULT:      -7.9      2.714      3.418
REMARK  Name = 
REMARK  8 active torsions:
REMARK  status: ('A' for Active; 'I' for Inactive)
REMARK    1  A    between atoms: C_2  and  C_3
REMARK    2  A    between atoms: C_3  and  S_4
REMARK    3  A    between atoms: S_4  and  C_5
REMARK    4  A    between atoms: C_8  and  C_9
REMARK    5  A    between atoms: C_9  and  N_10
REMARK    6  A    between atoms: C_11  and  C_13
REMARK    7  A    between atoms: C_17  and  C_18
REMARK    8  A    between atoms: N_24  and  C_25
REMARK                            x       y       z     vdW  Elec       q    Type
REMARK                         _______ _______ _______ _____ _____    ______ ____
ROOT
ATOM      1  C   UNL     1       1.964   3.979  19.116  0.00  0.00    +0.000 A 
ATOM      2  N   UNL     1       1.545   4.029  20.367  0.00  0.00    +0.000 NA
ATOM      3  N   UNL     1       1.637   5.345  20.765  0.00  0.00    +0.000 NA
ATOM      4  C   UNL     1       2.119   6.010  19.735  0.00  0.00    +0.000 A 
ATOM      5  O   UNL     1       2.381   5.202  18.660  0.00  0.00    +0.000 OA
ENDROOT
BRANCH   1   6
ATOM      6  S   UNL     1       1.940   2.558  18.123  0.00  0.00    +0.000 S 
BRANCH   6   7
ATOM      7  C   UNL     1       3.479   1.746  18.640  0.00  0.00    +0.000 C 
BRANCH   7   9
ATOM      8  O   UNL     1       4.970   2.939  20.120  0.00  0.00    +0.000 OA
ATOM      9  C   UNL     1       4.554   2.771  18.978  0.00  0.00    +0.000 C 
ATOM     10  N   UNL     1       5.000   3.499  17.890  0.00  0.00    +0.000 N 
ATOM     11  H   UNL     1       4.426   3.473  17.049  0.00  0.00    +0.000 HD
BRANCH  10  12
ATOM     12  C   UNL     1       5.949   4.604  18.007  0.00  0.00    +0.000 C 
ATOM     13  C   UNL     1       7.191   4.411  17.130  0.00  0.00    +0.000 C 
ATOM     14  C   UNL     1       6.842   4.403  15.644  0.00  0.00    +0.000 C 
ATOM     15  C   UNL     1       6.070   5.650  15.218  0.00  0.00    +0.000 C 
ATOM     16  C   UNL     1       4.919   6.022  16.152  0.00  0.00    +0.000 C 
ATOM     17  C   UNL     1       5.276   5.933  17.637  0.00  0.00    +0.000 C 
ENDBRANCH  10  12
ENDBRANCH   7   9
ENDBRANCH   6   7
ENDBRANCH   1   6
BRANCH   4  18
ATOM     18  C   UNL     1       2.341   7.466  19.572  0.00  0.00    +0.000 C 
BRANCH  18  19
ATOM     19  N   UNL     1       1.552   8.235  20.515  0.00  0.00    +0.000 N 
ATOM     20  C   UNL     1       0.930   9.383  20.072  0.00  0.00    +0.000 C 
ATOM     21  O   UNL     1       1.032   9.793  18.920  0.00  0.00    +0.000 OA
ATOM     22  H   UNL     1       1.247   7.798  21.375  0.00  0.00    +0.000 HD
BRANCH  20  23
ATOM     23  C   UNL     1       0.081  10.113  21.050  0.00  0.00    +0.000 A 
ATOM     24  C   UNL     1      -0.035   9.602  22.349  0.00  0.00    +0.000 A 
ATOM     25  C   UNL     1      -0.854  10.235  23.284  0.00  0.00    +0.000 A 
ATOM     26  C   UNL     1      -1.575  11.372  22.922  0.00  0.00    +0.000 A 
ATOM     27  C   UNL     1      -1.487  11.890  21.619  0.00  0.00    +0.000 A 
ATOM     28  C   UNL     1      -0.651  11.250  20.685  0.00  0.00    +0.000 A 
BRANCH  27  29
ATOM     29  C   UNL     1      -2.286  13.101  21.201  0.00  0.00    +0.000 C 
ATOM     30  F   UNL     1      -1.914  13.611  19.993  0.00  0.00    +0.000 F 
ATOM     31  F   UNL     1      -3.615  12.830  21.101  0.00  0.00    +0.000 F 
ATOM     32  F   UNL     1      -2.176  14.126  22.090  0.00  0.00    +0.000 F 
ENDBRANCH  27  29
ENDBRANCH  20  23
ENDBRANCH  18  19
ENDBRANCH   4  18
TORSDOF 8
ENDMDL
MODEL 8
REMARK VINA RESULT:      -7.9      1.571      2.174
REMARK  Name = 
REMARK  8 active torsions:
REMARK  status: ('A' for Active; 'I' for Inactive)
REMARK    1  A    between atoms: C_2  and  C_3
REMARK    2  A    between atoms: C_3  and  S_4
REMARK    3  A    between atoms: S_4  and  C_5
REMARK    4  A    between atoms: C_8  and  C_9
REMARK    5  A    between atoms: C_9  and  N_10
REMARK    6  A    between atoms: C_11  and  C_13
REMARK    7  A    between atoms: C_17  and  C_18
REMARK    8  A    between atoms: N_24  and  C_25
REMARK                            x       y       z     vdW  Elec       q    Type
REMARK                         _______ _______ _______ _____ _____    ______ ____
ROOT
ATOM      1  C   UNL     1       1.933   3.911  18.994  0.00  0.00    +0.000 A 
ATOM      2  N   UNL     1       1.831   4.400  17.772  0.00  0.00    +0.000 NA
ATOM      3  N   UNL     1       1.927   5.770  17.882  0.00  0.00    +0.000 NA
ATOM      4  C   UNL     1       2.068   6.028  19.166  0.00  0.00    +0.000 A 
ATOM      5  O   UNL     1       2.051   4.896  19.938  0.00  0.00    +0.000 OA
ENDROOT
BRANCH   1   6
ATOM      6  S   UNL     1       1.982   2.221  19.380  0.00  0.00    +0.000 S 
BRANCH   6   7
ATOM      7  C   UNL     1       3.562   1.737  18.626  0.00  0.00    +0.000 C 
BRANCH   7   9
ATOM      8  O   UNL     1       5.153   2.814  20.090  0.00  0.00    +0.000 OA
ATOM      9  C   UNL     1       4.661   2.734  18.969  0.00  0.00    +0.000 C 
ATOM     10  N   UNL     1       5.036   3.544  17.914  0.00  0.00    +0.000 N 
ATOM     11  H   UNL     1       4.408   3.583  17.113  0.00  0.00    +0.000 HD
BRANCH  10  12
ATOM     12  C   UNL     1       5.996   4.638  18.052  0.00  0.00    +0.000 C 
ATOM     13  C   UNL     1       7.272   4.410  17.233  0.00  0.00    +0.000 C 
ATOM     14  C   UNL     1       6.988   4.379  15.734  0.00  0.00    +0.000 C 
ATOM     15  C   UNL     1       6.254   5.628  15.251  0.00  0.00    +0.000 C 
ATOM     16  C   UNL     1       5.069   6.034  16.127  0.00  0.00    +0.000 C 
ATOM     17  C   UNL     1       5.361   5.969  17.627  0.00  0.00    +0.000 C 
ENDBRANCH  10  12
ENDBRANCH   7   9
ENDBRANCH   6   7
ENDBRANCH   1   6
BRANCH   4  18
ATOM     18  C   UNL     1       2.304   7.323  19.848  0.00  0.00    +0.000 C 
BRANCH  18  19
ATOM     19  N   UNL     1       1.542   8.395  19.237  0.00  0.00    +0.000 N 
ATOM     20  C   UNL     1       0.977   9.350  20.054  0.00  0.00    +0.000 C 
ATOM     21  O   UNL     1       1.074   9.321  21.277  0.00  0.00    +0.000 OA
ATOM     22  H   UNL     1       1.660   8.583  18.250  0.00  0.00    +0.000 HD
BRANCH  20  23
ATOM     23  C   UNL     1       0.255  10.468  19.391  0.00  0.00    +0.000 A 
ATOM     24  C   UNL     1       0.891  11.712  19.296  0.00  0.00    +0.000 A 
ATOM     25  C   UNL     1       0.233  12.797  18.716  0.00  0.00    +0.000 A 
ATOM     26  C   UNL     1      -1.071  12.648  18.243  0.00  0.00    +0.000 A 
ATOM     27  C   UNL     1      -1.733  11.414  18.346  0.00  0.00    +0.000 A 
ATOM     28  C   UNL     1      -1.057  10.322  18.923  0.00  0.00    +0.000 A 
BRANCH  27  29
ATOM     29  C   UNL     1      -3.155  11.245  17.868  0.00  0.00    +0.000 C 
ATOM     30  F   UNL     1      -3.603   9.959  17.930  0.00  0.00    +0.000 F 
ATOM     31  F   UNL     1      -4.033  11.984  18.597  0.00  0.00    +0.000 F 
ATOM     32  F   UNL     1      -3.317  11.636  16.574  0.00  0.00    +0.000 F 
ENDBRANCH  27  29
ENDBRANCH  20  23
ENDBRANCH  18  19
ENDBRANCH   4  18
TORSDOF 8
ENDMDL
MODEL 9
REMARK VINA RESULT:      -7.8      6.164      8.994
REMARK  Name = 
REMARK  8 active torsions:
REMARK  status: ('A' for Active; 'I' for Inactive)
REMARK    1  A    between atoms: C_2  and  C_3
REMARK    2  A    between atoms: C_3  and  S_4
REMARK    3  A    between atoms: S_4  and  C_5
REMARK    4  A    between atoms: C_8  and  C_9
REMARK    5  A    between atoms: C_9  and  N_10
REMARK    6  A    between atoms: C_11  and  C_13
REMARK    7  A    between atoms: C_17  and  C_18
REMARK    8  A    between atoms: N_24  and  C_25
REMARK                            x       y       z     vdW  Elec       q    Type
REMARK                         _______ _______ _______ _____ _____    ______ ____
ROOT
ATOM      1  C   UNL     1       6.835   5.945  16.664  0.00  0.00    +0.000 A 
ATOM      2  N   UNL     1       6.132   6.994  16.279  0.00  0.00    +0.000 NA
ATOM      3  N   UNL     1       6.622   8.078  16.975  0.00  0.00    +0.000 NA
ATOM      4  C   UNL     1       7.584   7.617  17.748  0.00  0.00    +0.000 A 
ATOM      5  O   UNL     1       7.756   6.263  17.626  0.00  0.00    +0.000 OA
ENDROOT
BRANCH   1   6
ATOM      6  S   UNL     1       6.676   4.352  15.998  0.00  0.00    +0.000 S 
BRANCH   6   7
ATOM      7  C   UNL     1       4.975   3.940  16.483  0.00  0.00    +0.000 C 
BRANCH   7   9
ATOM      8  O   UNL     1       5.838   3.823  18.736  0.00  0.00    +0.000 OA
ATOM      9  C   UNL     1       4.874   3.712  17.985  0.00  0.00    +0.000 C 
ATOM     10  N   UNL     1       3.610   3.354  18.416  0.00  0.00    +0.000 N 
ATOM     11  H   UNL     1       2.950   3.039  17.707  0.00  0.00    +0.000 HD
BRANCH  10  12
ATOM     12  C   UNL     1       3.316   2.985  19.800  0.00  0.00    +0.000 C 
ATOM     13  C   UNL     1       3.135   4.206  20.710  0.00  0.00    +0.000 C 
ATOM     14  C   UNL     1       1.925   5.043  20.304  0.00  0.00    +0.000 C 
ATOM     15  C   UNL     1       0.639   4.222  20.243  0.00  0.00    +0.000 C 
ATOM     16  C   UNL     1       0.782   2.891  19.505  0.00  0.00    +0.000 C 
ATOM     17  C   UNL     1       2.052   2.118  19.869  0.00  0.00    +0.000 C 
ENDBRANCH  10  12
ENDBRANCH   7   9
ENDBRANCH   6   7
ENDBRANCH   1   6
BRANCH   4  18
ATOM     18  C   UNL     1       8.511   8.351  18.641  0.00  0.00    +0.000 C 
BRANCH  18  19
ATOM     19  N   UNL     1       8.900   9.628  18.074  0.00  0.00    +0.000 N 
ATOM     20  C   UNL     1       9.344  10.619  18.923  0.00  0.00    +0.000 C 
ATOM     21  O   UNL     1       9.405  10.473  20.140  0.00  0.00    +0.000 OA
ATOM     22  H   UNL     1       9.101   9.687  17.084  0.00  0.00    +0.000 HD
BRANCH  20  23
ATOM     23  C   UNL     1       9.792  11.893  18.302  0.00  0.00    +0.000 A 
ATOM     24  C   UNL     1      11.031  11.918  17.647  0.00  0.00    +0.000 A 
ATOM     25  C   UNL     1      11.506  13.104  17.085  0.00  0.00    +0.000 A 
ATOM     26  C   UNL     1      10.754  14.274  17.189  0.00  0.00    +0.000 A 
ATOM     27  C   UNL     1       9.519  14.273  17.858  0.00  0.00    +0.000 A 
ATOM     28  C   UNL     1       9.043  13.070  18.413  0.00  0.00    +0.000 A 
BRANCH  27  29
ATOM     29  C   UNL     1       8.708  15.538  18.007  0.00  0.00    +0.000 C 
ATOM     30  F   UNL     1       9.277  16.625  17.413  0.00  0.00    +0.000 F 
ATOM     31  F   UNL     1       7.467  15.420  17.463  0.00  0.00    +0.000 F 
ATOM     32  F   UNL     1       8.517  15.880  19.310  0.00  0.00    +0.000 F 
ENDBRANCH  27  29
ENDBRANCH  20  23
ENDBRANCH  18  19
ENDBRANCH   4  18
TORSDOF 8
ENDMDL
