MODEL 1
REMARK VINA RESULT:      -8.2      0.000      0.000
REMARK  Name = 
REMARK  12 active torsions:
REMARK  status: ('A' for Active; 'I' for Inactive)
REMARK    1  A    between atoms: C_1  and  C_2
REMARK    2  A    between atoms: C_5  and  N_6
REMARK    3  A    between atoms: N_6  and  C_7
REMARK    4  A    between atoms: N_6  and  S_26
REMARK    5  A    between atoms: C_7  and  C_8
REMARK    6  A    between atoms: N_10  and  N_11
REMARK    7  A    between atoms: C_12  and  C_13
REMARK    8  A    between atoms: C_15  and  C_16
REMARK    9  A    between atoms: N_17  and  C_18
REMARK   10  A    between atoms: C_24  and  C_25
REMARK   11  A    between atoms: S_26  and  C_27
REMARK   12  A    between atoms: C_30  and  C_31
REMARK                            x       y       z     vdW  Elec       q    Type
REMARK                         _______ _______ _______ _____ _____    ______ ____
ROOT
ATOM      1  C   UNL     1       7.768   6.326  18.719  0.00  0.00    +0.000 C 
ATOM      2  O   UNL     1       7.938   5.191  19.169  0.00  0.00    +0.000 OA
ATOM      3  N   UNL     1       8.641   7.342  19.070  0.00  0.00    +0.000 N 
ATOM      4  H   UNL     1       9.400   7.101  19.698  0.00  0.00    +0.000 HD
ENDROOT
BRANCH   3   5
ATOM      5  N   UNL     1       8.455   8.622  18.642  0.00  0.00    +0.000 NA
ATOM      6  C   UNL     1       9.382   9.471  18.930  0.00  0.00    +0.000 C 
BRANCH   6   7
ATOM      7  C   UNL     1       9.190  10.864  18.551  0.00  0.00    +0.000 A 
ATOM      8  C   UNL     1       8.035  11.454  17.995  0.00  0.00    +0.000 A 
ATOM      9  C   UNL     1       8.266  12.803  17.818  0.00  0.00    +0.000 A 
ATOM     10  C   UNL     1       7.325  13.769  17.176  0.00  0.00    +0.000 C 
ATOM     11  N   UNL     1       9.570  13.086  18.238  0.00  0.00    +0.000 N 
ATOM     12  C   UNL     1      10.125  11.883  18.710  0.00  0.00    +0.000 A 
ATOM     13  C   UNL     1      11.463  11.742  19.364  0.00  0.00    +0.000 C 
BRANCH  11  14
ATOM     14  C   UNL     1      10.218  14.367  18.161  0.00  0.00    +0.000 A 
ATOM     15  C   UNL     1      11.038  14.694  17.073  0.00  0.00    +0.000 A 
ATOM     16  C   UNL     1      11.728  15.910  17.034  0.00  0.00    +0.000 A 
ATOM     17  C   UNL     1      11.574  16.831  18.065  0.00  0.00    +0.000 A 
ATOM     18  C   UNL     1      10.737  16.534  19.136  0.00  0.00    +0.000 A 
ATOM     19  C   UNL     1      10.074  15.302  19.195  0.00  0.00    +0.000 A 
ENDBRANCH  11  14
ENDBRANCH   6   7
ENDBRANCH   3   5
BRANCH   1  20
ATOM     20  C   UNL     1       6.693   6.707  17.723  0.00  0.00    +0.000 C 
BRANCH  20  21
ATOM     21  N   UNL     1       5.643   5.746  17.336  0.00  0.00    +0.000 N 
BRANCH  21  26
ATOM     22  C   UNL     1       1.146   4.130  20.571  0.00  0.00    +0.000 C 
ATOM     23  C   UNL     1       2.325   4.567  19.753  0.00  0.00    +0.000 A 
ATOM     24  C   UNL     1       3.443   3.754  19.588  0.00  0.00    +0.000 A 
ATOM     25  C   UNL     1       4.516   4.188  18.802  0.00  0.00    +0.000 A 
ATOM     26  C   UNL     1       4.511   5.447  18.178  0.00  0.00    +0.000 A 
ATOM     27  C   UNL     1       3.389   6.278  18.337  0.00  0.00    +0.000 A 
ATOM     28  C   UNL     1       3.207   7.633  17.719  0.00  0.00    +0.000 C 
ATOM     29  C   UNL     1       2.301   5.811  19.110  0.00  0.00    +0.000 A 
ENDBRANCH  21  26
BRANCH  21  30
ATOM     30  S   UNL     1       5.475   5.516  15.663  0.00  0.00    +0.000 S 
ATOM     31  C   UNL     1       7.109   5.007  15.168  0.00  0.00    +0.000 C 
ATOM     32  O   UNL     1       4.604   4.376  15.454  0.00  0.00    +0.000 OA
ATOM     33  O   UNL     1       5.197   6.777  15.013  0.00  0.00    +0.000 OA
ENDBRANCH  21  30
ENDBRANCH  20  21
ENDBRANCH   1  20
TORSDOF 7
ENDMDL
MODEL 2
REMARK VINA RESULT:      -7.8      0.814      1.255
REMARK  Name = 
REMARK  12 active torsions:
REMARK  status: ('A' for Active; 'I' for Inactive)
REMARK    1  A    between atoms: C_1  and  C_2
REMARK    2  A    between atoms: C_5  and  N_6
REMARK    3  A    between atoms: N_6  and  C_7
REMARK    4  A    between atoms: N_6  and  S_26
REMARK    5  A    between atoms: C_7  and  C_8
REMARK    6  A    between atoms: N_10  and  N_11
REMARK    7  A    between atoms: C_12  and  C_13
REMARK    8  A    between atoms: C_15  and  C_16
REMARK    9  A    between atoms: N_17  and  C_18
REMARK   10  A    between atoms: C_24  and  C_25
REMARK   11  A    between atoms: S_26  and  C_27
REMARK   12  A    between atoms: C_30  and  C_31
REMARK                            x       y       z     vdW  Elec       q    Type
REMARK                         _______ _______ _______ _____ _____    ______ ____
ROOT
ATOM      1  C   UNL     1       7.751   6.324  18.707  0.00  0.00    +0.000 C 
ATOM      2  O   UNL     1       7.922   5.183  19.143  0.00  0.00    +0.000 OA
ATOM      3  N   UNL     1       8.610   7.341  19.087  0.00  0.00    +0.000 N 
ATOM      4  H   UNL     1       9.360   7.096  19.725  0.00  0.00    +0.000 HD
ENDROOT
BRANCH   3   5
ATOM      5  N   UNL     1       8.420   8.625  18.675  0.00  0.00    +0.000 NA
ATOM      6  C   UNL     1       9.412   9.437  18.828  0.00  0.00    +0.000 C 
BRANCH   6   7
ATOM      7  C   UNL     1       9.229  10.834  18.464  0.00  0.00    +0.000 A 
ATOM      8  C   UNL     1       8.095  11.427  17.869  0.00  0.00    +0.000 A 
ATOM      9  C   UNL     1       8.325  12.780  17.724  0.00  0.00    +0.000 A 
ATOM     10  C   UNL     1       7.406  13.752  17.058  0.00  0.00    +0.000 C 
ATOM     11  N   UNL     1       9.608  13.063  18.204  0.00  0.00    +0.000 N 
ATOM     12  C   UNL     1      10.150  11.856  18.679  0.00  0.00    +0.000 A 
ATOM     13  C   UNL     1      11.459  11.711  19.387  0.00  0.00    +0.000 C 
BRANCH  11  14
ATOM     14  C   UNL     1      10.251  14.348  18.175  0.00  0.00    +0.000 A 
ATOM     15  C   UNL     1      10.025  15.288  19.191  0.00  0.00    +0.000 A 
ATOM     16  C   UNL     1      10.591  16.566  19.125  0.00  0.00    +0.000 A 
ATOM     17  C   UNL     1      11.422  16.905  18.062  0.00  0.00    +0.000 A 
ATOM     18  C   UNL     1      11.682  15.971  17.064  0.00  0.00    +0.000 A 
ATOM     19  C   UNL     1      11.088  14.705  17.109  0.00  0.00    +0.000 A 
ENDBRANCH  11  14
ENDBRANCH   6   7
ENDBRANCH   3   5
BRANCH   1  20
ATOM     20  C   UNL     1       6.690   6.711  17.699  0.00  0.00    +0.000 C 
BRANCH  20  21
ATOM     21  N   UNL     1       5.869   5.685  17.029  0.00  0.00    +0.000 N 
BRANCH  21  26
ATOM     22  C   UNL     1       1.127   3.156  19.130  0.00  0.00    +0.000 C 
ATOM     23  C   UNL     1       2.366   3.824  18.612  0.00  0.00    +0.000 A 
ATOM     24  C   UNL     1       3.541   3.111  18.384  0.00  0.00    +0.000 A 
ATOM     25  C   UNL     1       4.671   3.765  17.882  0.00  0.00    +0.000 A 
ATOM     26  C   UNL     1       4.667   5.144  17.612  0.00  0.00    +0.000 A 
ATOM     27  C   UNL     1       3.488   5.875  17.839  0.00  0.00    +0.000 A 
ATOM     28  C   UNL     1       3.302   7.342  17.579  0.00  0.00    +0.000 C 
ATOM     29  C   UNL     1       2.346   5.193  18.318  0.00  0.00    +0.000 A 
ENDBRANCH  21  26
BRANCH  21  30
ATOM     30  S   UNL     1       6.021   5.648  15.339  0.00  0.00    +0.000 S 
ATOM     31  C   UNL     1       5.273   4.089  14.909  0.00  0.00    +0.000 C 
ATOM     32  O   UNL     1       5.168   6.684  14.791  0.00  0.00    +0.000 OA
ATOM     33  O   UNL     1       7.417   5.578  14.967  0.00  0.00    +0.000 OA
ENDBRANCH  21  30
ENDBRANCH  20  21
ENDBRANCH   1  20
TORSDOF 7
ENDMDL
MODEL 3
REMARK VINA RESULT:      -7.7      6.481      9.783
REMARK  Name = 
REMARK  12 active torsions:
REMARK  status: ('A' for Active; 'I' for Inactive)
REMARK    1  A    between atoms: C_1  and  C_2
REMARK    2  A    between atoms: C_5  and  N_6
REMARK    3  A    between atoms: N_6  and  C_7
REMARK    4  A    between atoms: N_6  and  S_26
REMARK    5  A    between atoms: C_7  and  C_8
REMARK    6  A    between atoms: N_10  and  N_11
REMARK    7  A    between atoms: C_12  and  C_13
REMARK    8  A    between atoms: C_15  and  C_16
REMARK    9  A    between atoms: N_17  and  C_18
REMARK   10  A    between atoms: C_24  and  C_25
REMARK   11  A    between atoms: S_26  and  C_27
REMARK   12  A    between atoms: C_30  and  C_31
REMARK                            x       y       z     vdW  Elec       q    Type
REMARK                         _______ _______ _______ _____ _____    ______ ____
ROOT
ATOM      1  C   UNL     1       0.087   9.817  21.259  0.00  0.00    +0.000 C 
ATOM      2  O   UNL     1      -0.725  10.472  21.916  0.00  0.00    +0.000 OA
ATOM      3  N   UNL     1       0.625   8.658  21.792  0.00  0.00    +0.000 N 
ATOM      4  H   UNL     1       0.321   8.393  22.722  0.00  0.00    +0.000 HD
ENDROOT
BRANCH   3   5
ATOM      5  N   UNL     1       1.569   7.938  21.123  0.00  0.00    +0.000 NA
ATOM      6  C   UNL     1       1.250   6.734  20.786  0.00  0.00    +0.000 C 
BRANCH   6   7
ATOM      7  C   UNL     1       2.253   5.908  20.130  0.00  0.00    +0.000 A 
ATOM      8  C   UNL     1       2.674   4.611  20.496  0.00  0.00    +0.000 A 
ATOM      9  C   UNL     1       3.619   4.177  19.589  0.00  0.00    +0.000 A 
ATOM     10  C   UNL     1       4.376   2.892  19.668  0.00  0.00    +0.000 C 
ATOM     11  N   UNL     1       3.826   5.193  18.648  0.00  0.00    +0.000 N 
ATOM     12  C   UNL     1       2.960   6.250  18.980  0.00  0.00    +0.000 A 
ATOM     13  C   UNL     1       2.761   7.494  18.176  0.00  0.00    +0.000 C 
BRANCH  11  14
ATOM     14  C   UNL     1       4.777   5.159  17.571  0.00  0.00    +0.000 A 
ATOM     15  C   UNL     1       5.998   5.841  17.667  0.00  0.00    +0.000 A 
ATOM     16  C   UNL     1       6.890   5.870  16.590  0.00  0.00    +0.000 A 
ATOM     17  C   UNL     1       6.590   5.184  15.418  0.00  0.00    +0.000 A 
ATOM     18  C   UNL     1       5.397   4.474  15.321  0.00  0.00    +0.000 A 
ATOM     19  C   UNL     1       4.486   4.473  16.383  0.00  0.00    +0.000 A 
ENDBRANCH  11  14
ENDBRANCH   6   7
ENDBRANCH   3   5
BRANCH   1  20
ATOM     20  C   UNL     1       0.510  10.140  19.842  0.00  0.00    +0.000 C 
BRANCH  20  21
ATOM     21  N   UNL     1      -0.057  11.299  19.126  0.00  0.00    +0.000 N 
BRANCH  21  26
ATOM     22  C   UNL     1      -5.768  12.063  18.818  0.00  0.00    +0.000 C 
ATOM     23  C   UNL     1      -4.280  11.883  18.874  0.00  0.00    +0.000 A 
ATOM     24  C   UNL     1      -3.496  12.558  19.807  0.00  0.00    +0.000 A 
ATOM     25  C   UNL     1      -2.113  12.350  19.842  0.00  0.00    +0.000 A 
ATOM     26  C   UNL     1      -1.474  11.482  18.940  0.00  0.00    +0.000 A 
ATOM     27  C   UNL     1      -2.254  10.796  17.993  0.00  0.00    +0.000 A 
ATOM     28  C   UNL     1      -1.740   9.815  16.980  0.00  0.00    +0.000 C 
ATOM     29  C   UNL     1      -3.654  10.995  17.992  0.00  0.00    +0.000 A 
ENDBRANCH  21  26
BRANCH  21  30
ATOM     30  S   UNL     1       0.934  12.677  19.112  0.00  0.00    +0.000 S 
ATOM     31  C   UNL     1       2.376  12.117  18.228  0.00  0.00    +0.000 C 
ATOM     32  O   UNL     1       0.297  13.676  18.277  0.00  0.00    +0.000 OA
ATOM     33  O   UNL     1       1.349  13.005  20.457  0.00  0.00    +0.000 OA
ENDBRANCH  21  30
ENDBRANCH  20  21
ENDBRANCH   1  20
TORSDOF 7
ENDMDL
MODEL 4
REMARK VINA RESULT:      -7.7      6.427      9.729
REMARK  Name = 
REMARK  12 active torsions:
REMARK  status: ('A' for Active; 'I' for Inactive)
REMARK    1  A    between atoms: C_1  and  C_2
REMARK    2  A    between atoms: C_5  and  N_6
REMARK    3  A    between atoms: N_6  and  C_7
REMARK    4  A    between atoms: N_6  and  S_26
REMARK    5  A    between atoms: C_7  and  C_8
REMARK    6  A    between atoms: N_10  and  N_11
REMARK    7  A    between atoms: C_12  and  C_13
REMARK    8  A    between atoms: C_15  and  C_16
REMARK    9  A    between atoms: N_17  and  C_18
REMARK   10  A    between atoms: C_24  and  C_25
REMARK   11  A    between atoms: S_26  and  C_27
REMARK   12  A    between atoms: C_30  and  C_31
REMARK                            x       y       z     vdW  Elec       q    Type
REMARK                         _______ _______ _______ _____ _____    ______ ____
ROOT
ATOM      1  C   UNL     1       0.217   9.788  21.234  0.00  0.00    +0.000 C 
ATOM      2  O   UNL     1      -0.612  10.433  21.879  0.00  0.00    +0.000 OA
ATOM      3  N   UNL     1       0.608   8.535  21.675  0.00  0.00    +0.000 N 
ATOM      4  H   UNL     1       0.185   8.196  22.532  0.00  0.00    +0.000 HD
ENDROOT
BRANCH   3   5
ATOM      5  N   UNL     1       1.564   7.816  21.023  0.00  0.00    +0.000 NA
ATOM      6  C   UNL     1       1.268   6.597  20.721  0.00  0.00    +0.000 C 
BRANCH   6   7
ATOM      7  C   UNL     1       2.286   5.773  20.085  0.00  0.00    +0.000 A 
ATOM      8  C   UNL     1       2.697   4.474  20.454  0.00  0.00    +0.000 A 
ATOM      9  C   UNL     1       3.662   4.044  19.566  0.00  0.00    +0.000 A 
ATOM     10  C   UNL     1       4.416   2.757  19.657  0.00  0.00    +0.000 C 
ATOM     11  N   UNL     1       3.893   5.065  18.637  0.00  0.00    +0.000 N 
ATOM     12  C   UNL     1       3.021   6.121  18.955  0.00  0.00    +0.000 A 
ATOM     13  C   UNL     1       2.844   7.371  18.153  0.00  0.00    +0.000 C 
BRANCH  11  14
ATOM     14  C   UNL     1       4.869   5.035  17.583  0.00  0.00    +0.000 A 
ATOM     15  C   UNL     1       4.623   4.336  16.393  0.00  0.00    +0.000 A 
ATOM     16  C   UNL     1       5.602   4.245  15.398  0.00  0.00    +0.000 A 
ATOM     17  C   UNL     1       6.826   4.885  15.565  0.00  0.00    +0.000 A 
ATOM     18  C   UNL     1       7.072   5.611  16.726  0.00  0.00    +0.000 A 
ATOM     19  C   UNL     1       6.108   5.673  17.739  0.00  0.00    +0.000 A 
ENDBRANCH  11  14
ENDBRANCH   6   7
ENDBRANCH   3   5
BRANCH   1  20
ATOM     20  C   UNL     1       0.815  10.229  19.914  0.00  0.00    +0.000 C 
BRANCH  20  21
ATOM     21  N   UNL     1       0.158  11.262  19.092  0.00  0.00    +0.000 N 
BRANCH  21  26
ATOM     22  C   UNL     1      -5.381  11.160  17.478  0.00  0.00    +0.000 C 
ATOM     23  C   UNL     1      -3.948  11.168  17.921  0.00  0.00    +0.000 A 
ATOM     24  C   UNL     1      -2.977  10.415  17.265  0.00  0.00    +0.000 A 
ATOM     25  C   UNL     1      -1.646  10.462  17.695  0.00  0.00    +0.000 A 
ATOM     26  C   UNL     1      -1.253  11.242  18.795  0.00  0.00    +0.000 A 
ATOM     27  C   UNL     1      -2.224  12.005  19.466  0.00  0.00    +0.000 A 
ATOM     28  C   UNL     1      -1.972  12.911  20.636  0.00  0.00    +0.000 C 
ATOM     29  C   UNL     1      -3.558  11.969  19.000  0.00  0.00    +0.000 A 
ENDBRANCH  21  26
BRANCH  21  30
ATOM     30  S   UNL     1       0.957  12.759  19.062  0.00  0.00    +0.000 S 
ATOM     31  C   UNL     1       2.465  12.385  18.191  0.00  0.00    +0.000 C 
ATOM     32  O   UNL     1       0.197  13.655  18.212  0.00  0.00    +0.000 OA
ATOM     33  O   UNL     1       1.317  13.156  20.405  0.00  0.00    +0.000 OA
ENDBRANCH  21  30
ENDBRANCH  20  21
ENDBRANCH   1  20
TORSDOF 7
ENDMDL
MODEL 5
REMARK VINA RESULT:      -7.5      6.520      9.808
REMARK  Name = 
REMARK  12 active torsions:
REMARK  status: ('A' for Active; 'I' for Inactive)
REMARK    1  A    between atoms: C_1  and  C_2
REMARK    2  A    between atoms: C_5  and  N_6
REMARK    3  A    between atoms: N_6  and  C_7
REMARK    4  A    between atoms: N_6  and  S_26
REMARK    5  A    between atoms: C_7  and  C_8
REMARK    6  A    between atoms: N_10  and  N_11
REMARK    7  A    between atoms: C_12  and  C_13
REMARK    8  A    between atoms: C_15  and  C_16
REMARK    9  A    between atoms: N_17  and  C_18
REMARK   10  A    between atoms: C_24  and  C_25
REMARK   11  A    between atoms: S_26  and  C_27
REMARK   12  A    between atoms: C_30  and  C_31
REMARK                            x       y       z     vdW  Elec       q    Type
REMARK                         _______ _______ _______ _____ _____    ______ ____
ROOT
ATOM      1  C   UNL     1       0.191   9.641  21.126  0.00  0.00    +0.000 C 
ATOM      2  O   UNL     1      -0.612  10.316  21.774  0.00  0.00    +0.000 OA
ATOM      3  N   UNL     1       0.625   8.424  21.623  0.00  0.00    +0.000 N 
ATOM      4  H   UNL     1       0.254   8.134  22.523  0.00  0.00    +0.000 HD
ENDROOT
BRANCH   3   5
ATOM      5  N   UNL     1       1.556   7.677  20.967  0.00  0.00    +0.000 NA
ATOM      6  C   UNL     1       1.290   6.423  20.812  0.00  0.00    +0.000 C 
BRANCH   6   7
ATOM      7  C   UNL     1       2.287   5.575  20.176  0.00  0.00    +0.000 A 
ATOM      8  C   UNL     1       2.642   4.254  20.522  0.00  0.00    +0.000 A 
ATOM      9  C   UNL     1       3.607   3.807  19.642  0.00  0.00    +0.000 A 
ATOM     10  C   UNL     1       4.310   2.491  19.717  0.00  0.00    +0.000 C 
ATOM     11  N   UNL     1       3.894   4.839  18.741  0.00  0.00    +0.000 N 
ATOM     12  C   UNL     1       3.057   5.920  19.067  0.00  0.00    +0.000 A 
ATOM     13  C   UNL     1       2.941   7.193  18.291  0.00  0.00    +0.000 C 
BRANCH  11  14
ATOM     14  C   UNL     1       4.888   4.796  17.705  0.00  0.00    +0.000 A 
ATOM     15  C   UNL     1       4.613   4.195  16.468  0.00  0.00    +0.000 A 
ATOM     16  C   UNL     1       5.603   4.087  15.486  0.00  0.00    +0.000 A 
ATOM     17  C   UNL     1       6.871   4.613  15.715  0.00  0.00    +0.000 A 
ATOM     18  C   UNL     1       7.149   5.241  16.925  0.00  0.00    +0.000 A 
ATOM     19  C   UNL     1       6.170   5.319  17.923  0.00  0.00    +0.000 A 
ENDBRANCH  11  14
ENDBRANCH   6   7
ENDBRANCH   3   5
BRANCH   1  20
ATOM     20  C   UNL     1       0.709  10.004  19.751  0.00  0.00    +0.000 C 
BRANCH  20  21
ATOM     21  N   UNL     1       0.165  11.162  19.016  0.00  0.00    +0.000 N 
BRANCH  21  26
ATOM     22  C   UNL     1      -5.491  12.300  19.148  0.00  0.00    +0.000 C 
ATOM     23  C   UNL     1      -4.018  12.023  19.090  0.00  0.00    +0.000 A 
ATOM     24  C   UNL     1      -3.127  12.615  19.983  0.00  0.00    +0.000 A 
ATOM     25  C   UNL     1      -1.761  12.318  19.910  0.00  0.00    +0.000 A 
ATOM     26  C   UNL     1      -1.247  11.442  18.939  0.00  0.00    +0.000 A 
ATOM     27  C   UNL     1      -2.136  10.840  18.031  0.00  0.00    +0.000 A 
ATOM     28  C   UNL     1      -1.761   9.864  16.955  0.00  0.00    +0.000 C 
ATOM     29  C   UNL     1      -3.516  11.128  18.138  0.00  0.00    +0.000 A 
ENDBRANCH  21  26
BRANCH  21  30
ATOM     30  S   UNL     1       1.246  12.458  18.835  0.00  0.00    +0.000 S 
ATOM     31  C   UNL     1       1.767  12.775  20.508  0.00  0.00    +0.000 C 
ATOM     32  O   UNL     1       2.410  11.972  18.122  0.00  0.00    +0.000 OA
ATOM     33  O   UNL     1       0.540  13.631  18.369  0.00  0.00    +0.000 OA
ENDBRANCH  21  30
ENDBRANCH  20  21
ENDBRANCH   1  20
TORSDOF 7
ENDMDL
MODEL 6
REMARK VINA RESULT:      -7.5      6.069      9.487
REMARK  Name = 
REMARK  12 active torsions:
REMARK  status: ('A' for Active; 'I' for Inactive)
REMARK    1  A    between atoms: C_1  and  C_2
REMARK    2  A    between atoms: C_5  and  N_6
REMARK    3  A    between atoms: N_6  and  C_7
REMARK    4  A    between atoms: N_6  and  S_26
REMARK    5  A    between atoms: C_7  and  C_8
REMARK    6  A    between atoms: N_10  and  N_11
REMARK    7  A    between atoms: C_12  and  C_13
REMARK    8  A    between atoms: C_15  and  C_16
REMARK    9  A    between atoms: N_17  and  C_18
REMARK   10  A    between atoms: C_24  and  C_25
REMARK   11  A    between atoms: S_26  and  C_27
REMARK   12  A    between atoms: C_30  and  C_31
REMARK                            x       y       z     vdW  Elec       q    Type
REMARK                         _______ _______ _______ _____ _____    ______ ____
ROOT
ATOM      1  C   UNL     1       0.298  10.467  21.925  0.00  0.00    +0.000 C 
ATOM      2  O   UNL     1      -0.549  11.156  22.498  0.00  0.00    +0.000 OA
ATOM      3  N   UNL     1       0.379   9.112  22.193  0.00  0.00    +0.000 N 
ATOM      4  H   UNL     1      -0.278   8.735  22.869  0.00  0.00    +0.000 HD
ENDROOT
BRANCH   3   5
ATOM      5  N   UNL     1       1.338   8.328  21.625  0.00  0.00    +0.000 NA
ATOM      6  C   UNL     1       0.956   7.536  20.681  0.00  0.00    +0.000 C 
BRANCH   6   7
ATOM      7  C   UNL     1       1.936   6.633  20.094  0.00  0.00    +0.000 A 
ATOM      8  C   UNL     1       2.306   5.350  20.549  0.00  0.00    +0.000 A 
ATOM      9  C   UNL     1       3.244   4.824  19.684  0.00  0.00    +0.000 A 
ATOM     10  C   UNL     1       3.953   3.521  19.857  0.00  0.00    +0.000 C 
ATOM     11  N   UNL     1       3.497   5.767  18.682  0.00  0.00    +0.000 N 
ATOM     12  C   UNL     1       2.667   6.874  18.933  0.00  0.00    +0.000 A 
ATOM     13  C   UNL     1       2.522   8.069  18.047  0.00  0.00    +0.000 C 
BRANCH  11  14
ATOM     14  C   UNL     1       4.457   5.629  17.621  0.00  0.00    +0.000 A 
ATOM     15  C   UNL     1       4.300   4.649  16.631  0.00  0.00    +0.000 A 
ATOM     16  C   UNL     1       5.272   4.464  15.643  0.00  0.00    +0.000 A 
ATOM     17  C   UNL     1       6.395   5.285  15.608  0.00  0.00    +0.000 A 
ATOM     18  C   UNL     1       6.548   6.284  16.564  0.00  0.00    +0.000 A 
ATOM     19  C   UNL     1       5.595   6.447  17.577  0.00  0.00    +0.000 A 
ENDBRANCH  11  14
ENDBRANCH   6   7
ENDBRANCH   3   5
BRANCH   1  20
ATOM     20  C   UNL     1       1.246  10.977  20.859  0.00  0.00    +0.000 C 
BRANCH  20  21
ATOM     21  N   UNL     1       0.746  11.387  19.533  0.00  0.00    +0.000 N 
BRANCH  21  26
ATOM     22  C   UNL     1      -4.652  10.742  17.597  0.00  0.00    +0.000 C 
ATOM     23  C   UNL     1      -3.257  10.898  18.127  0.00  0.00    +0.000 A 
ATOM     24  C   UNL     1      -2.241  10.010  17.782  0.00  0.00    +0.000 A 
ATOM     25  C   UNL     1      -0.947  10.198  18.281  0.00  0.00    +0.000 A 
ATOM     26  C   UNL     1      -0.638  11.260  19.148  0.00  0.00    +0.000 A 
ATOM     27  C   UNL     1      -1.655  12.162  19.505  0.00  0.00    +0.000 A 
ATOM     28  C   UNL     1      -1.492  13.361  20.392  0.00  0.00    +0.000 C 
ATOM     29  C   UNL     1      -2.950  11.974  18.967  0.00  0.00    +0.000 A 
ENDBRANCH  21  26
BRANCH  21  30
ATOM     30  S   UNL     1       1.683  12.570  18.757  0.00  0.00    +0.000 S 
ATOM     31  C   UNL     1       2.515  13.369  20.115  0.00  0.00    +0.000 C 
ATOM     32  O   UNL     1       2.706  11.893  17.984  0.00  0.00    +0.000 OA
ATOM     33  O   UNL     1       0.826  13.553  18.133  0.00  0.00    +0.000 OA
ENDBRANCH  21  30
ENDBRANCH  20  21
ENDBRANCH   1  20
TORSDOF 7
ENDMDL
MODEL 7
REMARK VINA RESULT:      -7.4      1.030      1.834
REMARK  Name = 
REMARK  12 active torsions:
REMARK  status: ('A' for Active; 'I' for Inactive)
REMARK    1  A    between atoms: C_1  and  C_2
REMARK    2  A    between atoms: C_5  and  N_6
REMARK    3  A    between atoms: N_6  and  C_7
REMARK    4  A    between atoms: N_6  and  S_26
REMARK    5  A    between atoms: C_7  and  C_8
REMARK    6  A    between atoms: N_10  and  N_11
REMARK    7  A    between atoms: C_12  and  C_13
REMARK    8  A    between atoms: C_15  and  C_16
REMARK    9  A    between atoms: N_17  and  C_18
REMARK   10  A    between atoms: C_24  and  C_25
REMARK   11  A    between atoms: S_26  and  C_27
REMARK   12  A    between atoms: C_30  and  C_31
REMARK                            x       y       z     vdW  Elec       q    Type
REMARK                         _______ _______ _______ _____ _____    ______ ____
ROOT
ATOM      1  C   UNL     1       8.050   6.924  18.626  0.00  0.00    +0.000 C 
ATOM      2  O   UNL     1       8.258   5.788  19.056  0.00  0.00    +0.000 OA
ATOM      3  N   UNL     1       8.851   7.975  19.041  0.00  0.00    +0.000 N 
ATOM      4  H   UNL     1       9.592   7.757  19.699  0.00  0.00    +0.000 HD
ENDROOT
BRANCH   3   5
ATOM      5  N   UNL     1       8.616   9.254  18.636  0.00  0.00    +0.000 NA
ATOM      6  C   UNL     1       9.497  10.138  18.964  0.00  0.00    +0.000 C 
BRANCH   6   7
ATOM      7  C   UNL     1       9.251  11.528  18.609  0.00  0.00    +0.000 A 
ATOM      8  C   UNL     1       8.062  12.089  18.095  0.00  0.00    +0.000 A 
ATOM      9  C   UNL     1       8.246  13.446  17.929  0.00  0.00    +0.000 A 
ATOM     10  C   UNL     1       7.257  14.391  17.328  0.00  0.00    +0.000 C 
ATOM     11  N   UNL     1       9.553  13.765  18.314  0.00  0.00    +0.000 N 
ATOM     12  C   UNL     1      10.159  12.574  18.753  0.00  0.00    +0.000 A 
ATOM     13  C   UNL     1      11.519  12.467  19.365  0.00  0.00    +0.000 C 
BRANCH  11  14
ATOM     14  C   UNL     1      10.158  15.066  18.235  0.00  0.00    +0.000 A 
ATOM     15  C   UNL     1       9.984  16.005  19.261  0.00  0.00    +0.000 A 
ATOM     16  C   UNL     1      10.510  17.296  19.151  0.00  0.00    +0.000 A 
ATOM     17  C   UNL     1      11.251  17.652  18.028  0.00  0.00    +0.000 A 
ATOM     18  C   UNL     1      11.460  16.720  17.016  0.00  0.00    +0.000 A 
ATOM     19  C   UNL     1      10.904  15.439  17.108  0.00  0.00    +0.000 A 
ENDBRANCH  11  14
ENDBRANCH   6   7
ENDBRANCH   3   5
BRANCH   1  20
ATOM     20  C   UNL     1       7.003   7.275  17.590  0.00  0.00    +0.000 C 
BRANCH  20  21
ATOM     21  N   UNL     1       5.929   6.324  17.245  0.00  0.00    +0.000 N 
BRANCH  21  26
ATOM     22  C   UNL     1       1.126   6.197  20.439  0.00  0.00    +0.000 C 
ATOM     23  C   UNL     1       2.362   6.208  19.591  0.00  0.00    +0.000 A 
ATOM     24  C   UNL     1       2.602   7.219  18.662  0.00  0.00    +0.000 A 
ATOM     25  C   UNL     1       3.777   7.207  17.901  0.00  0.00    +0.000 A 
ATOM     26  C   UNL     1       4.729   6.182  18.031  0.00  0.00    +0.000 A 
ATOM     27  C   UNL     1       4.498   5.156  18.963  0.00  0.00    +0.000 A 
ATOM     28  C   UNL     1       5.420   4.007  19.249  0.00  0.00    +0.000 C 
ATOM     29  C   UNL     1       3.321   5.200  19.745  0.00  0.00    +0.000 A 
ENDBRANCH  21  26
BRANCH  21  30
ATOM     30  S   UNL     1       5.860   5.899  15.603  0.00  0.00    +0.000 S 
ATOM     31  C   UNL     1       4.932   4.379  15.627  0.00  0.00    +0.000 C 
ATOM     32  O   UNL     1       5.036   6.878  14.922  0.00  0.00    +0.000 OA
ATOM     33  O   UNL     1       7.186   5.591  15.113  0.00  0.00    +0.000 OA
ENDBRANCH  21  30
ENDBRANCH  20  21
ENDBRANCH   1  20
TORSDOF 7
ENDMDL
MODEL 8
REMARK VINA RESULT:      -7.4      6.011     10.001
REMARK  Name = 
REMARK  12 active torsions:
REMARK  status: ('A' for Active; 'I' for Inactive)
REMARK    1  A    between atoms: C_1  and  C_2
REMARK    2  A    between atoms: C_5  and  N_6
REMARK    3  A    between atoms: N_6  and  C_7
REMARK    4  A    between atoms: N_6  and  S_26
REMARK    5  A    between atoms: C_7  and  C_8
REMARK    6  A    between atoms: N_10  and  N_11
REMARK    7  A    between atoms: C_12  and  C_13
REMARK    8  A    between atoms: C_15  and  C_16
REMARK    9  A    between atoms: N_17  and  C_18
REMARK   10  A    between atoms: C_24  and  C_25
REMARK   11  A    between atoms: S_26  and  C_27
REMARK   12  A    between atoms: C_30  and  C_31
REMARK                            x       y       z     vdW  Elec       q    Type
REMARK                         _______ _______ _______ _____ _____    ______ ____
ROOT
ATOM      1  C   UNL     1       0.091  10.180  21.707  0.00  0.00    +0.000 C 
ATOM      2  O   UNL     1      -0.725  10.820  22.373  0.00  0.00    +0.000 OA
ATOM      3  N   UNL     1       0.454   8.904  22.103  0.00  0.00    +0.000 N 
ATOM      4  H   UNL     1       0.021   8.544  22.947  0.00  0.00    +0.000 HD
ENDROOT
BRANCH   3   5
ATOM      5  N   UNL     1       1.395   8.188  21.427  0.00  0.00    +0.000 NA
ATOM      6  C   UNL     1       1.034   7.033  20.979  0.00  0.00    +0.000 C 
BRANCH   6   7
ATOM      7  C   UNL     1       2.029   6.206  20.310  0.00  0.00    +0.000 A 
ATOM      8  C   UNL     1       2.433   4.898  20.653  0.00  0.00    +0.000 A 
ATOM      9  C   UNL     1       3.374   4.470  19.740  0.00  0.00    +0.000 A 
ATOM     10  C   UNL     1       4.115   3.174  19.797  0.00  0.00    +0.000 C 
ATOM     11  N   UNL     1       3.597   5.500  18.819  0.00  0.00    +0.000 N 
ATOM     12  C   UNL     1       2.744   6.561  19.169  0.00  0.00    +0.000 A 
ATOM     13  C   UNL     1       2.563   7.824  18.388  0.00  0.00    +0.000 C 
BRANCH  11  14
ATOM     14  C   UNL     1       4.550   5.474  17.744  0.00  0.00    +0.000 A 
ATOM     15  C   UNL     1       4.312   4.715  16.589  0.00  0.00    +0.000 A 
ATOM     16  C   UNL     1       5.272   4.630  15.576  0.00  0.00    +0.000 A 
ATOM     17  C   UNL     1       6.466   5.335  15.687  0.00  0.00    +0.000 A 
ATOM     18  C   UNL     1       6.702   6.120  16.812  0.00  0.00    +0.000 A 
ATOM     19  C   UNL     1       5.758   6.177  17.844  0.00  0.00    +0.000 A 
ENDBRANCH  11  14
ENDBRANCH   6   7
ENDBRANCH   3   5
BRANCH   1  20
ATOM     20  C   UNL     1       0.702  10.655  20.404  0.00  0.00    +0.000 C 
BRANCH  20  21
ATOM     21  N   UNL     1       0.182  11.851  19.715  0.00  0.00    +0.000 N 
BRANCH  21  26
ATOM     22  C   UNL     1       3.167  16.574  18.273  0.00  0.00    +0.000 C 
ATOM     23  C   UNL     1       2.414  15.338  18.667  0.00  0.00    +0.000 A 
ATOM     24  C   UNL     1       1.346  15.387  19.560  0.00  0.00    +0.000 A 
ATOM     25  C   UNL     1       0.654  14.215  19.889  0.00  0.00    +0.000 A 
ATOM     26  C   UNL     1       1.018  12.968  19.355  0.00  0.00    +0.000 A 
ATOM     27  C   UNL     1       2.095  12.906  18.453  0.00  0.00    +0.000 A 
ATOM     28  C   UNL     1       2.596  11.667  17.770  0.00  0.00    +0.000 C 
ATOM     29  C   UNL     1       2.764  14.103  18.109  0.00  0.00    +0.000 A 
ENDBRANCH  21  26
BRANCH  21  30
ATOM     30  S   UNL     1      -1.232  11.590  18.812  0.00  0.00    +0.000 S 
ATOM     31  C   UNL     1      -2.500  12.281  19.856  0.00  0.00    +0.000 C 
ATOM     32  O   UNL     1      -1.167  12.426  17.629  0.00  0.00    +0.000 OA
ATOM     33  O   UNL     1      -1.491  10.173  18.693  0.00  0.00    +0.000 OA
ENDBRANCH  21  30
ENDBRANCH  20  21
ENDBRANCH   1  20
TORSDOF 7
ENDMDL
MODEL 9
REMARK VINA RESULT:      -7.4      6.732     10.378
REMARK  Name = 
REMARK  12 active torsions:
REMARK  status: ('A' for Active; 'I' for Inactive)
REMARK    1  A    between atoms: C_1  and  C_2
REMARK    2  A    between atoms: C_5  and  N_6
REMARK    3  A    between atoms: N_6  and  C_7
REMARK    4  A    between atoms: N_6  and  S_26
REMARK    5  A    between atoms: C_7  and  C_8
REMARK    6  A    between atoms: N_10  and  N_11
REMARK    7  A    between atoms: C_12  and  C_13
REMARK    8  A    between atoms: C_15  and  C_16
REMARK    9  A    between atoms: N_17  and  C_18
REMARK   10  A    between atoms: C_24  and  C_25
REMARK   11  A    between atoms: S_26  and  C_27
REMARK   12  A    between atoms: C_30  and  C_31
REMARK                            x       y       z     vdW  Elec       q    Type
REMARK                         _______ _______ _______ _____ _____    ______ ____
ROOT
ATOM      1  C   UNL     1       1.417  11.610  18.827  0.00  0.00    +0.000 C 
ATOM      2  O   UNL     1       1.281  12.835  18.825  0.00  0.00    +0.000 OA
ATOM      3  N   UNL     1       1.944  10.974  17.715  0.00  0.00    +0.000 N 
ATOM      4  H   UNL     1       2.201  11.560  16.928  0.00  0.00    +0.000 HD
ENDROOT
BRANCH   3   5
ATOM      5  N   UNL     1       2.055   9.618  17.656  0.00  0.00    +0.000 NA
ATOM      6  C   UNL     1       3.226   9.121  17.875  0.00  0.00    +0.000 C 
BRANCH   6   7
ATOM      7  C   UNL     1       3.402   7.681  17.754  0.00  0.00    +0.000 A 
ATOM      8  C   UNL     1       4.270   6.990  16.882  0.00  0.00    +0.000 A 
ATOM      9  C   UNL     1       4.150   5.635  17.115  0.00  0.00    +0.000 A 
ATOM     10  C   UNL     1       4.835   4.555  16.343  0.00  0.00    +0.000 C 
ATOM     11  N   UNL     1       3.195   5.444  18.120  0.00  0.00    +0.000 N 
ATOM     12  C   UNL     1       2.755   6.717  18.523  0.00  0.00    +0.000 A 
ATOM     13  C   UNL     1       1.819   6.994  19.656  0.00  0.00    +0.000 C 
BRANCH  11  14
ATOM     14  C   UNL     1       2.735   4.174  18.611  0.00  0.00    +0.000 A 
ATOM     15  C   UNL     1       1.539   3.611  18.142  0.00  0.00    +0.000 A 
ATOM     16  C   UNL     1       1.054   2.412  18.674  0.00  0.00    +0.000 A 
ATOM     17  C   UNL     1       1.778   1.740  19.653  0.00  0.00    +0.000 A 
ATOM     18  C   UNL     1       2.984   2.270  20.104  0.00  0.00    +0.000 A 
ATOM     19  C   UNL     1       3.454   3.488  19.600  0.00  0.00    +0.000 A 
ENDBRANCH  11  14
ENDBRANCH   6   7
ENDBRANCH   3   5
BRANCH   1  20
ATOM     20  C   UNL     1       1.114  10.711  20.007  0.00  0.00    +0.000 C 
BRANCH  20  21
ATOM     21  N   UNL     1      -0.239  10.659  20.593  0.00  0.00    +0.000 N 
BRANCH  21  26
ATOM     22  C   UNL     1      -4.785  11.550  17.152  0.00  0.00    +0.000 C 
ATOM     23  C   UNL     1      -3.622  11.305  18.067  0.00  0.00    +0.000 A 
ATOM     24  C   UNL     1      -2.730  10.257  17.851  0.00  0.00    +0.000 A 
ATOM     25  C   UNL     1      -1.645  10.072  18.715  0.00  0.00    +0.000 A 
ATOM     26  C   UNL     1      -1.432  10.910  19.823  0.00  0.00    +0.000 A 
ATOM     27  C   UNL     1      -2.326  11.970  20.052  0.00  0.00    +0.000 A 
ATOM     28  C   UNL     1      -2.231  12.972  21.165  0.00  0.00    +0.000 C 
ATOM     29  C   UNL     1      -3.399  12.161  19.152  0.00  0.00    +0.000 A 
ENDBRANCH  21  26
BRANCH  21  30
ATOM     30  S   UNL     1      -0.375   9.689  21.979  0.00  0.00    +0.000 S 
ATOM     31  C   UNL     1       1.316   9.531  22.517  0.00  0.00    +0.000 C 
ATOM     32  O   UNL     1      -1.065  10.457  22.996  0.00  0.00    +0.000 OA
ATOM     33  O   UNL     1      -0.842   8.369  21.618  0.00  0.00    +0.000 OA
ENDBRANCH  21  30
ENDBRANCH  20  21
ENDBRANCH   1  20
TORSDOF 7
ENDMDL
