MODEL 1
REMARK VINA RESULT:      -7.9      0.000      0.000
REMARK  Name = 
REMARK  5 active torsions:
REMARK  status: ('A' for Active; 'I' for Inactive)
REMARK    1  A    between atoms: C_1  and  C_2
REMARK    2  A    between atoms: C_7  and  C_8
REMARK    3  A    between atoms: C_9  and  C_10
REMARK    4  A    between atoms: C_12  and  N_13
REMARK    5  A    between atoms: C_25  and  O_26
REMARK                            x       y       z     vdW  Elec       q    Type
REMARK                         _______ _______ _______ _____ _____    ______ ____
ROOT
ATOM      1  C   UNL     1      -0.087  11.473  19.285  0.00  0.00    +0.000 C 
ATOM      2  C   UNL     1       0.256  10.962  20.620  0.00  0.00    +0.000 C 
ATOM      3  C   UNL     1      -0.462   9.793  20.376  0.00  0.00    +0.000 C 
ATOM      4  O   UNL     1       0.283   8.740  20.777  0.00  0.00    +0.000 OA
ATOM      5  C   UNL     1       1.238   8.767  19.750  0.00  0.00    +0.000 A 
ATOM      6  C   UNL     1       1.164  10.049  18.822  0.00  0.00    +0.000 A 
ATOM      7  C   UNL     1       2.144   9.877  17.840  0.00  0.00    +0.000 A 
ATOM      8  C   UNL     1       2.906   8.558  17.778  0.00  0.00    +0.000 A 
ATOM      9  C   UNL     1       2.774   7.363  18.666  0.00  0.00    +0.000 A 
ATOM     10  C   UNL     1       3.353   6.026  18.617  0.00  0.00    +0.000 A 
ATOM     11  C   UNL     1       3.043   5.018  19.561  0.00  0.00    +0.000 A 
ATOM     12  C   UNL     1       2.176   5.343  20.569  0.00  0.00    +0.000 A 
ATOM     13  N   UNL     1       1.629   6.565  20.654  0.00  0.00    +0.000 NA
ATOM     14  C   UNL     1       1.920   7.530  19.725  0.00  0.00    +0.000 A 
ENDROOT
BRANCH   1  21
ATOM     15  C   UNL     1      -7.207  13.311  24.246  0.00  0.00    +0.000 C 
ATOM     16  C   UNL     1      -5.826  13.083  23.642  0.00  0.00    +0.000 A 
ATOM     17  C   UNL     1      -4.702  12.907  24.437  0.00  0.00    +0.000 A 
ATOM     18  C   UNL     1      -3.415  12.647  23.861  0.00  0.00    +0.000 A 
ATOM     19  C   UNL     1      -3.152  12.543  22.447  0.00  0.00    +0.000 A 
ATOM     20  C   UNL     1      -1.858  12.160  21.725  0.00  0.00    +0.000 A 
ATOM     21  C   UNL     1      -1.673  11.965  20.279  0.00  0.00    +0.000 A 
ATOM     22  C   UNL     1      -2.915  12.385  19.695  0.00  0.00    +0.000 A 
ATOM     23  N   UNL     1      -4.107  12.779  20.326  0.00  0.00    +0.000 NA
ATOM     24  C   UNL     1      -4.275  12.792  21.661  0.00  0.00    +0.000 A 
ATOM     25  C   UNL     1      -5.577  13.019  22.257  0.00  0.00    +0.000 A 
BRANCH  22  26
ATOM     26  O   UNL     1      -3.145  12.356  18.358  0.00  0.00    +0.000 OA
ATOM     27  H   UNL     1      -3.042  11.430  18.065  0.00  0.00    +0.000 HD
ENDBRANCH  22  26
ENDBRANCH   1  21
BRANCH   3  28
ATOM     28  N   UNL     1      -1.292   9.257  19.190  0.00  0.00    +0.000 N 
ATOM     29  H   UNL     1      -2.132   9.771  18.899  0.00  0.00    +0.000 HD
ATOM     30  H   UNL     1      -0.727   9.332  18.327  0.00  0.00    +0.000 HD
ENDBRANCH   3  28
BRANCH   2  31
ATOM     31  C   UNL     1       0.989  12.225  20.829  0.00  0.00    +0.000 C 
ATOM     32  N   UNL     1       1.694  13.101  21.190  0.00  0.00    +0.000 NA
ENDBRANCH   2  31
TORSDOF 4
ENDMDL
MODEL 2
REMARK VINA RESULT:      -7.5      1.860      8.513
REMARK  Name = 
REMARK  5 active torsions:
REMARK  status: ('A' for Active; 'I' for Inactive)
REMARK    1  A    between atoms: C_1  and  C_2
REMARK    2  A    between atoms: C_7  and  C_8
REMARK    3  A    between atoms: C_9  and  C_10
REMARK    4  A    between atoms: C_12  and  N_13
REMARK    5  A    between atoms: C_25  and  O_26
REMARK                            x       y       z     vdW  Elec       q    Type
REMARK                         _______ _______ _______ _____ _____    ______ ____
ROOT
ATOM      1  C   UNL     1      -0.849  13.004  22.438  0.00  0.00    +0.000 C 
ATOM      2  C   UNL     1      -1.713  12.819  21.262  0.00  0.00    +0.000 C 
ATOM      3  C   UNL     1      -2.449  11.846  21.936  0.00  0.00    +0.000 C 
ATOM      4  O   UNL     1      -3.763  12.086  21.733  0.00  0.00    +0.000 OA
ATOM      5  C   UNL     1      -3.888  13.223  22.545  0.00  0.00    +0.000 A 
ATOM      6  C   UNL     1      -2.512  13.801  23.075  0.00  0.00    +0.000 A 
ATOM      7  C   UNL     1      -2.835  14.886  23.897  0.00  0.00    +0.000 A 
ATOM      8  C   UNL     1      -4.301  15.170  24.204  0.00  0.00    +0.000 A 
ATOM      9  C   UNL     1      -5.513  14.441  23.720  0.00  0.00    +0.000 A 
ATOM     10  C   UNL     1      -6.929  14.549  24.049  0.00  0.00    +0.000 A 
ATOM     11  C   UNL     1      -7.916  13.704  23.489  0.00  0.00    +0.000 A 
ATOM     12  C   UNL     1      -7.502  12.766  22.581  0.00  0.00    +0.000 A 
ATOM     13  N   UNL     1      -6.210  12.642  22.245  0.00  0.00    +0.000 NA
ATOM     14  C   UNL     1      -5.257  13.451  22.807  0.00  0.00    +0.000 A 
ENDROOT
BRANCH   1  21
ATOM     15  C   UNL     1       2.643   6.056  18.171  0.00  0.00    +0.000 C 
ATOM     16  C   UNL     1       2.159   7.412  18.671  0.00  0.00    +0.000 A 
ATOM     17  C   UNL     1       2.015   8.496  17.816  0.00  0.00    +0.000 A 
ATOM     18  C   UNL     1       1.515   9.755  18.285  0.00  0.00    +0.000 A 
ATOM     19  C   UNL     1       1.120  10.027  19.645  0.00  0.00    +0.000 A 
ATOM     20  C   UNL     1       0.471  11.282  20.235  0.00  0.00    +0.000 A 
ATOM     21  C   UNL     1      -0.011  11.468  21.612  0.00  0.00    +0.000 A 
ATOM     22  C   UNL     1       0.423  10.290  22.309  0.00  0.00    +0.000 A 
ATOM     23  N   UNL     1       1.054   9.141  21.807  0.00  0.00    +0.000 NA
ATOM     24  C   UNL     1       1.336   8.953  20.505  0.00  0.00    +0.000 A 
ATOM     25  C   UNL     1       1.810   7.675  20.010  0.00  0.00    +0.000 A 
BRANCH  22  26
ATOM     26  O   UNL     1       0.168  10.081  23.625  0.00  0.00    +0.000 OA
ATOM     27  H   UNL     1       0.139   9.115  23.766  0.00  0.00    +0.000 HD
ENDBRANCH  22  26
ENDBRANCH   1  21
BRANCH   3  28
ATOM     28  N   UNL     1      -2.379  11.211  23.342  0.00  0.00    +0.000 N 
ATOM     29  H   UNL     1      -1.511  10.746  23.634  0.00  0.00    +0.000 HD
ATOM     30  H   UNL     1      -2.427  11.964  24.049  0.00  0.00    +0.000 HD
ENDBRANCH   3  28
BRANCH   2  31
ATOM     31  C   UNL     1      -0.890  13.844  20.594  0.00  0.00    +0.000 C 
ATOM     32  N   UNL     1      -0.419  14.830  20.144  0.00  0.00    +0.000 NA
ENDBRANCH   2  31
TORSDOF 4
ENDMDL
MODEL 3
REMARK VINA RESULT:      -7.2      3.576      7.527
REMARK  Name = 
REMARK  5 active torsions:
REMARK  status: ('A' for Active; 'I' for Inactive)
REMARK    1  A    between atoms: C_1  and  C_2
REMARK    2  A    between atoms: C_7  and  C_8
REMARK    3  A    between atoms: C_9  and  C_10
REMARK    4  A    between atoms: C_12  and  N_13
REMARK    5  A    between atoms: C_25  and  O_26
REMARK                            x       y       z     vdW  Elec       q    Type
REMARK                         _______ _______ _______ _____ _____    ______ ____
ROOT
ATOM      1  C   UNL     1      -0.004  11.069  18.731  0.00  0.00    +0.000 C 
ATOM      2  C   UNL     1      -0.607  11.639  19.946  0.00  0.00    +0.000 C 
ATOM      3  C   UNL     1      -1.137  12.695  19.207  0.00  0.00    +0.000 C 
ATOM      4  O   UNL     1      -2.423  12.876  19.578  0.00  0.00    +0.000 OA
ATOM      5  C   UNL     1      -2.969  11.735  18.972  0.00  0.00    +0.000 A 
ATOM      6  C   UNL     1      -1.895  10.721  18.401  0.00  0.00    +0.000 A 
ATOM      7  C   UNL     1      -2.618   9.687  17.798  0.00  0.00    +0.000 A 
ATOM      8  C   UNL     1      -4.134   9.808  17.690  0.00  0.00    +0.000 A 
ATOM      9  C   UNL     1      -5.017  10.912  18.176  0.00  0.00    +0.000 A 
ATOM     10  C   UNL     1      -6.441  11.183  18.015  0.00  0.00    +0.000 A 
ATOM     11  C   UNL     1      -7.068  12.340  18.535  0.00  0.00    +0.000 A 
ATOM     12  C   UNL     1      -6.287  13.219  19.236  0.00  0.00    +0.000 A 
ATOM     13  N   UNL     1      -4.975  13.001  19.414  0.00  0.00    +0.000 NA
ATOM     14  C   UNL     1      -4.372  11.887  18.891  0.00  0.00    +0.000 A 
ENDROOT
BRANCH   1  21
ATOM     15  C   UNL     1       5.692  17.387  21.245  0.00  0.00    +0.000 C 
ATOM     16  C   UNL     1       4.683  16.252  21.114  0.00  0.00    +0.000 A 
ATOM     17  C   UNL     1       3.844  15.897  22.162  0.00  0.00    +0.000 A 
ATOM     18  C   UNL     1       2.866  14.860  22.015  0.00  0.00    +0.000 A 
ATOM     19  C   UNL     1       2.650  14.096  20.811  0.00  0.00    +0.000 A 
ATOM     20  C   UNL     1       1.573  13.054  20.501  0.00  0.00    +0.000 A 
ATOM     21  C   UNL     1       1.332  12.382  19.216  0.00  0.00    +0.000 A 
ATOM     22  C   UNL     1       2.432  12.785  18.385  0.00  0.00    +0.000 A 
ATOM     23  N   UNL     1       3.457  13.706  18.652  0.00  0.00    +0.000 NA
ATOM     24  C   UNL     1       3.545  14.415  19.792  0.00  0.00    +0.000 A 
ATOM     25  C   UNL     1       4.506  15.490  19.943  0.00  0.00    +0.000 A 
BRANCH  22  26
ATOM     26  O   UNL     1       2.573  12.368  17.101  0.00  0.00    +0.000 OA
ATOM     27  H   UNL     1       2.315  13.112  16.524  0.00  0.00    +0.000 HD
ENDBRANCH  22  26
ENDBRANCH   1  21
BRANCH   3  28
ATOM     28  N   UNL     1      -1.097  13.107  17.719  0.00  0.00    +0.000 N 
ATOM     29  H   UNL     1      -0.766  12.427  17.024  0.00  0.00    +0.000 HD
ATOM     30  H   UNL     1      -2.066  13.246  17.387  0.00  0.00    +0.000 HD
ENDBRANCH   3  28
BRANCH   2  31
ATOM     31  C   UNL     1      -0.010  10.507  20.679  0.00  0.00    +0.000 C 
ATOM     32  N   UNL     1       0.224   9.501  21.251  0.00  0.00    +0.000 NA
ENDBRANCH   2  31
TORSDOF 4
ENDMDL
MODEL 4
REMARK VINA RESULT:      -7.2      2.795      8.582
REMARK  Name = 
REMARK  5 active torsions:
REMARK  status: ('A' for Active; 'I' for Inactive)
REMARK    1  A    between atoms: C_1  and  C_2
REMARK    2  A    between atoms: C_7  and  C_8
REMARK    3  A    between atoms: C_9  and  C_10
REMARK    4  A    between atoms: C_12  and  N_13
REMARK    5  A    between atoms: C_25  and  O_26
REMARK                            x       y       z     vdW  Elec       q    Type
REMARK                         _______ _______ _______ _____ _____    ______ ____
ROOT
ATOM      1  C   UNL     1      -0.251  10.087  20.062  0.00  0.00    +0.000 C 
ATOM      2  C   UNL     1       0.778  10.245  21.101  0.00  0.00    +0.000 C 
ATOM      3  C   UNL     1       1.417  11.223  20.342  0.00  0.00    +0.000 C 
ATOM      4  O   UNL     1       1.732  12.257  21.153  0.00  0.00    +0.000 OA
ATOM      5  C   UNL     1       0.439  12.768  21.338  0.00  0.00    +0.000 A 
ATOM      6  C   UNL     1      -0.716  11.842  20.775  0.00  0.00    +0.000 A 
ATOM      7  C   UNL     1      -1.912  12.530  21.001  0.00  0.00    +0.000 A 
ATOM      8  C   UNL     1      -1.856  13.951  21.550  0.00  0.00    +0.000 A 
ATOM      9  C   UNL     1      -0.655  14.759  21.924  0.00  0.00    +0.000 A 
ATOM     10  C   UNL     1      -0.486  16.149  22.331  0.00  0.00    +0.000 A 
ATOM     11  C   UNL     1       0.780  16.724  22.597  0.00  0.00    +0.000 A 
ATOM     12  C   UNL     1       1.877  15.914  22.483  0.00  0.00    +0.000 A 
ATOM     13  N   UNL     1       1.762  14.628  22.120  0.00  0.00    +0.000 NA
ATOM     14  C   UNL     1       0.535  14.083  21.845  0.00  0.00    +0.000 A 
ENDROOT
BRANCH   1  21
ATOM     15  C   UNL     1       6.395   4.852  17.395  0.00  0.00    +0.000 C 
ATOM     16  C   UNL     1       5.172   5.510  18.024  0.00  0.00    +0.000 A 
ATOM     17  C   UNL     1       4.631   5.052  19.217  0.00  0.00    +0.000 A 
ATOM     18  C   UNL     1       3.509   5.705  19.827  0.00  0.00    +0.000 A 
ATOM     19  C   UNL     1       2.843   6.867  19.291  0.00  0.00    +0.000 A 
ATOM     20  C   UNL     1       1.722   7.711  19.901  0.00  0.00    +0.000 A 
ATOM     21  C   UNL     1       1.150   8.953  19.358  0.00  0.00    +0.000 A 
ATOM     22  C   UNL     1       1.749   9.089  18.060  0.00  0.00    +0.000 A 
ATOM     23  N   UNL     1       2.749   8.311  17.456  0.00  0.00    +0.000 NA
ATOM     24  C   UNL     1       3.353   7.272  18.060  0.00  0.00    +0.000 A 
ATOM     25  C   UNL     1       4.509   6.622  17.472  0.00  0.00    +0.000 A 
BRANCH  22  26
ATOM     26  O   UNL     1       1.472  10.126  17.230  0.00  0.00    +0.000 OA
ATOM     27  H   UNL     1       0.567  10.431  17.436  0.00  0.00    +0.000 HD
ENDBRANCH  22  26
ENDBRANCH   1  21
BRANCH   3  28
ATOM     28  N   UNL     1       1.159  11.870  18.964  0.00  0.00    +0.000 N 
ATOM     29  H   UNL     1       0.196  11.916  18.609  0.00  0.00    +0.000 HD
ATOM     30  H   UNL     1       1.376  12.879  19.025  0.00  0.00    +0.000 HD
ENDBRANCH   3  28
BRANCH   2  31
ATOM     31  C   UNL     1       0.067   9.193  21.853  0.00  0.00    +0.000 C 
ATOM     32  N   UNL     1      -0.717   8.472  22.362  0.00  0.00    +0.000 NA
ENDBRANCH   2  31
TORSDOF 4
ENDMDL
MODEL 5
REMARK VINA RESULT:      -7.2      1.176      1.191
REMARK  Name = 
REMARK  5 active torsions:
REMARK  status: ('A' for Active; 'I' for Inactive)
REMARK    1  A    between atoms: C_1  and  C_2
REMARK    2  A    between atoms: C_7  and  C_8
REMARK    3  A    between atoms: C_9  and  C_10
REMARK    4  A    between atoms: C_12  and  N_13
REMARK    5  A    between atoms: C_25  and  O_26
REMARK                            x       y       z     vdW  Elec       q    Type
REMARK                         _______ _______ _______ _____ _____    ______ ____
ROOT
ATOM      1  C   UNL     1       0.457  11.812  19.221  0.00  0.00    +0.000 C 
ATOM      2  C   UNL     1       0.786  11.322  20.568  0.00  0.00    +0.000 C 
ATOM      3  C   UNL     1      -0.135  10.285  20.434  0.00  0.00    +0.000 C 
ATOM      4  O   UNL     1       0.441   9.141  20.864  0.00  0.00    +0.000 OA
ATOM      5  C   UNL     1       1.324   8.946  19.792  0.00  0.00    +0.000 A 
ATOM      6  C   UNL     1       1.416  10.169  18.790  0.00  0.00    +0.000 A 
ATOM      7  C   UNL     1       2.294   9.775  17.774  0.00  0.00    +0.000 A 
ATOM      8  C   UNL     1       2.812   8.342  17.759  0.00  0.00    +0.000 A 
ATOM      9  C   UNL     1       2.530   7.238  18.727  0.00  0.00    +0.000 A 
ATOM     10  C   UNL     1       2.867   5.820  18.735  0.00  0.00    +0.000 A 
ATOM     11  C   UNL     1       2.444   4.934  19.755  0.00  0.00    +0.000 A 
ATOM     12  C   UNL     1       1.707   5.460  20.781  0.00  0.00    +0.000 A 
ATOM     13  N   UNL     1       1.384   6.762  20.815  0.00  0.00    +0.000 NA
ATOM     14  C   UNL     1       1.781   7.609  19.813  0.00  0.00    +0.000 A 
ENDROOT
BRANCH   1  21
ATOM     15  C   UNL     1      -6.290  15.007  24.011  0.00  0.00    +0.000 C 
ATOM     16  C   UNL     1      -5.074  14.289  23.437  0.00  0.00    +0.000 A 
ATOM     17  C   UNL     1      -4.630  13.079  23.954  0.00  0.00    +0.000 A 
ATOM     18  C   UNL     1      -3.514  12.387  23.379  0.00  0.00    +0.000 A 
ATOM     19  C   UNL     1      -2.755  12.851  22.243  0.00  0.00    +0.000 A 
ATOM     20  C   UNL     1      -1.628  12.153  21.478  0.00  0.00    +0.000 A 
ATOM     21  C   UNL     1      -0.959  12.627  20.257  0.00  0.00    +0.000 A 
ATOM     22  C   UNL     1      -1.470  13.954  20.057  0.00  0.00    +0.000 A 
ATOM     23  N   UNL     1      -2.473  14.637  20.762  0.00  0.00    +0.000 NA
ATOM     24  C   UNL     1      -3.167  14.098  21.781  0.00  0.00    +0.000 A 
ATOM     25  C   UNL     1      -4.320  14.770  22.350  0.00  0.00    +0.000 A 
BRANCH  22  26
ATOM     26  O   UNL     1      -1.088  14.737  19.016  0.00  0.00    +0.000 OA
ATOM     27  H   UNL     1      -1.061  14.171  18.220  0.00  0.00    +0.000 HD
ENDBRANCH  22  26
ENDBRANCH   1  21
BRANCH   3  28
ATOM     28  N   UNL     1      -1.113   9.839  19.325  0.00  0.00    +0.000 N 
ATOM     29  H   UNL     1      -1.830  10.498  19.000  0.00  0.00    +0.000 HD
ATOM     30  H   UNL     1      -0.582   9.703  18.449  0.00  0.00    +0.000 HD
ENDBRANCH   3  28
BRANCH   2  31
ATOM     31  C   UNL     1       1.736  12.447  20.660  0.00  0.00    +0.000 C 
ATOM     32  N   UNL     1       2.379  13.389  20.967  0.00  0.00    +0.000 NA
ENDBRANCH   2  31
TORSDOF 4
ENDMDL
MODEL 6
REMARK VINA RESULT:      -7.0      1.853      8.117
REMARK  Name = 
REMARK  5 active torsions:
REMARK  status: ('A' for Active; 'I' for Inactive)
REMARK    1  A    between atoms: C_1  and  C_2
REMARK    2  A    between atoms: C_7  and  C_8
REMARK    3  A    between atoms: C_9  and  C_10
REMARK    4  A    between atoms: C_12  and  N_13
REMARK    5  A    between atoms: C_25  and  O_26
REMARK                            x       y       z     vdW  Elec       q    Type
REMARK                         _______ _______ _______ _____ _____    ______ ____
ROOT
ATOM      1  C   UNL     1       0.197  11.546  19.208  0.00  0.00    +0.000 C 
ATOM      2  C   UNL     1      -0.911  10.657  19.588  0.00  0.00    +0.000 C 
ATOM      3  C   UNL     1      -0.481  10.660  20.913  0.00  0.00    +0.000 C 
ATOM      4  O   UNL     1      -1.555  10.844  21.712  0.00  0.00    +0.000 OA
ATOM      5  C   UNL     1      -1.783  12.199  21.431  0.00  0.00    +0.000 A 
ATOM      6  C   UNL     1      -0.923  12.772  20.231  0.00  0.00    +0.000 A 
ATOM      7  C   UNL     1      -1.245  14.130  20.134  0.00  0.00    +0.000 A 
ATOM      8  C   UNL     1      -2.151  14.753  21.189  0.00  0.00    +0.000 A 
ATOM      9  C   UNL     1      -2.802  14.096  22.364  0.00  0.00    +0.000 A 
ATOM     10  C   UNL     1      -3.572  14.616  23.487  0.00  0.00    +0.000 A 
ATOM     11  C   UNL     1      -4.062  13.796  24.531  0.00  0.00    +0.000 A 
ATOM     12  C   UNL     1      -3.809  12.453  24.449  0.00  0.00    +0.000 A 
ATOM     13  N   UNL     1      -3.113  11.934  23.427  0.00  0.00    +0.000 NA
ATOM     14  C   UNL     1      -2.625  12.738  22.430  0.00  0.00    +0.000 A 
ENDROOT
BRANCH   1  21
ATOM     15  C   UNL     1       4.295   3.689  19.612  0.00  0.00    +0.000 C 
ATOM     16  C   UNL     1       3.373   4.899  19.707  0.00  0.00    +0.000 A 
ATOM     17  C   UNL     1       2.410   5.006  20.701  0.00  0.00    +0.000 A 
ATOM     18  C   UNL     1       1.578   6.169  20.812  0.00  0.00    +0.000 A 
ATOM     19  C   UNL     1       1.645   7.314  19.938  0.00  0.00    +0.000 A 
ATOM     20  C   UNL     1       0.897   8.647  20.025  0.00  0.00    +0.000 A 
ATOM     21  C   UNL     1       1.083   9.826  19.165  0.00  0.00    +0.000 A 
ATOM     22  C   UNL     1       1.979   9.384  18.134  0.00  0.00    +0.000 A 
ATOM     23  N   UNL     1       2.650   8.158  18.004  0.00  0.00    +0.000 NA
ATOM     24  C   UNL     1       2.567   7.162  18.905  0.00  0.00    +0.000 A 
ATOM     25  C   UNL     1       3.425   5.996  18.826  0.00  0.00    +0.000 A 
BRANCH  22  26
ATOM     26  O   UNL     1       2.400  10.196  17.131  0.00  0.00    +0.000 OA
ATOM     27  H   UNL     1       1.638  10.741  16.858  0.00  0.00    +0.000 HD
ENDBRANCH  22  26
ENDBRANCH   1  21
BRANCH   3  28
ATOM     28  N   UNL     1       0.691  11.319  21.673  0.00  0.00    +0.000 N 
ATOM     29  H   UNL     1       1.111  10.820  22.466  0.00  0.00    +0.000 HD
ATOM     30  H   UNL     1       1.508  11.373  21.041  0.00  0.00    +0.000 HD
ENDBRANCH   3  28
BRANCH   2  31
ATOM     31  C   UNL     1      -1.312  10.679  18.168  0.00  0.00    +0.000 C 
ATOM     32  N   UNL     1      -1.853  10.582  17.123  0.00  0.00    +0.000 NA
ENDBRANCH   2  31
TORSDOF 4
ENDMDL
MODEL 7
REMARK VINA RESULT:      -7.0      3.267      8.362
REMARK  Name = 
REMARK  5 active torsions:
REMARK  status: ('A' for Active; 'I' for Inactive)
REMARK    1  A    between atoms: C_1  and  C_2
REMARK    2  A    between atoms: C_7  and  C_8
REMARK    3  A    between atoms: C_9  and  C_10
REMARK    4  A    between atoms: C_12  and  N_13
REMARK    5  A    between atoms: C_25  and  O_26
REMARK                            x       y       z     vdW  Elec       q    Type
REMARK                         _______ _______ _______ _____ _____    ______ ____
ROOT
ATOM      1  C   UNL     1      -1.383  12.497  20.940  0.00  0.00    +0.000 C 
ATOM      2  C   UNL     1      -0.304  12.350  21.929  0.00  0.00    +0.000 C 
ATOM      3  C   UNL     1       0.511  13.207  21.191  0.00  0.00    +0.000 C 
ATOM      4  O   UNL     1       1.087  14.087  22.039  0.00  0.00    +0.000 OA
ATOM      5  C   UNL     1      -0.047  14.864  22.322  0.00  0.00    +0.000 A 
ATOM      6  C   UNL     1      -1.405  14.261  21.773  0.00  0.00    +0.000 A 
ATOM      7  C   UNL     1      -2.402  15.185  22.103  0.00  0.00    +0.000 A 
ATOM      8  C   UNL     1      -2.000  16.518  22.725  0.00  0.00    +0.000 A 
ATOM      9  C   UNL     1      -0.632  17.007  23.076  0.00  0.00    +0.000 A 
ATOM     10  C   UNL     1      -0.133  18.292  23.549  0.00  0.00    +0.000 A 
ATOM     11  C   UNL     1       1.240  18.549  23.776  0.00  0.00    +0.000 A 
ATOM     12  C   UNL     1       2.118  17.521  23.557  0.00  0.00    +0.000 A 
ATOM     13  N   UNL     1       1.697  16.321  23.131  0.00  0.00    +0.000 NA
ATOM     14  C   UNL     1       0.368  16.087  22.895  0.00  0.00    +0.000 A 
ENDROOT
BRANCH   1  21
ATOM     15  C   UNL     1       3.879   6.193  17.586  0.00  0.00    +0.000 C 
ATOM     16  C   UNL     1       2.907   7.064  18.374  0.00  0.00    +0.000 A 
ATOM     17  C   UNL     1       2.595   6.794  19.699  0.00  0.00    +0.000 A 
ATOM     18  C   UNL     1       1.717   7.646  20.448  0.00  0.00    +0.000 A 
ATOM     19  C   UNL     1       1.083   8.833  19.928  0.00  0.00    +0.000 A 
ATOM     20  C   UNL     1       0.227   9.873  20.655  0.00  0.00    +0.000 A 
ATOM     21  C   UNL     1      -0.308  11.125  20.100  0.00  0.00    +0.000 A 
ATOM     22  C   UNL     1      -0.001  11.061  18.699  0.00  0.00    +0.000 A 
ATOM     23  N   UNL     1       0.747  10.103  17.995  0.00  0.00    +0.000 NA
ATOM     24  C   UNL     1       1.350   9.051  18.579  0.00  0.00    +0.000 A 
ATOM     25  C   UNL     1       2.267   8.201  17.845  0.00  0.00    +0.000 A 
BRANCH  22  26
ATOM     26  O   UNL     1      -0.336  12.046  17.827  0.00  0.00    +0.000 OA
ATOM     27  H   UNL     1      -0.285  11.669  16.928  0.00  0.00    +0.000 HD
ENDBRANCH  22  26
ENDBRANCH   1  21
BRANCH   3  28
ATOM     28  N   UNL     1       0.351  13.985  19.867  0.00  0.00    +0.000 N 
ATOM     29  H   UNL     1      -0.588  14.283  19.576  0.00  0.00    +0.000 HD
ATOM     30  H   UNL     1       0.809  14.907  19.966  0.00  0.00    +0.000 HD
ENDBRANCH   3  28
BRANCH   2  31
ATOM     31  C   UNL     1      -1.204  11.439  22.660  0.00  0.00    +0.000 C 
ATOM     32  N   UNL     1      -1.872  10.869  23.450  0.00  0.00    +0.000 NA
ENDBRANCH   2  31
TORSDOF 4
ENDMDL
MODEL 8
REMARK VINA RESULT:      -6.9      3.403      8.559
REMARK  Name = 
REMARK  5 active torsions:
REMARK  status: ('A' for Active; 'I' for Inactive)
REMARK    1  A    between atoms: C_1  and  C_2
REMARK    2  A    between atoms: C_7  and  C_8
REMARK    3  A    between atoms: C_9  and  C_10
REMARK    4  A    between atoms: C_12  and  N_13
REMARK    5  A    between atoms: C_25  and  O_26
REMARK                            x       y       z     vdW  Elec       q    Type
REMARK                         _______ _______ _______ _____ _____    ______ ____
ROOT
ATOM      1  C   UNL     1      -2.290  14.001  21.268  0.00  0.00    +0.000 C 
ATOM      2  C   UNL     1      -2.035  13.222  22.490  0.00  0.00    +0.000 C 
ATOM      3  C   UNL     1      -0.783  13.818  22.627  0.00  0.00    +0.000 C 
ATOM      4  O   UNL     1      -0.622  14.186  23.917  0.00  0.00    +0.000 OA
ATOM      5  C   UNL     1      -1.512  15.270  23.929  0.00  0.00    +0.000 A 
ATOM      6  C   UNL     1      -2.403  15.398  22.625  0.00  0.00    +0.000 A 
ATOM      7  C   UNL     1      -3.179  16.549  22.796  0.00  0.00    +0.000 A 
ATOM      8  C   UNL     1      -2.929  17.438  24.008  0.00  0.00    +0.000 A 
ATOM      9  C   UNL     1      -1.942  17.248  25.115  0.00  0.00    +0.000 A 
ATOM     10  C   UNL     1      -1.540  18.088  26.236  0.00  0.00    +0.000 A 
ATOM     11  C   UNL     1      -0.529  17.716  27.154  0.00  0.00    +0.000 A 
ATOM     12  C   UNL     1       0.068  16.497  26.974  0.00  0.00    +0.000 A 
ATOM     13  N   UNL     1      -0.281  15.691  25.960  0.00  0.00    +0.000 NA
ATOM     14  C   UNL     1      -1.247  16.067  25.065  0.00  0.00    +0.000 A 
ENDROOT
BRANCH   1  21
ATOM     15  C   UNL     1       2.777   7.276  18.478  0.00  0.00    +0.000 C 
ATOM     16  C   UNL     1       1.829   8.239  19.184  0.00  0.00    +0.000 A 
ATOM     17  C   UNL     1       1.492   8.082  20.521  0.00  0.00    +0.000 A 
ATOM     18  C   UNL     1       0.637   9.019  21.190  0.00  0.00    +0.000 A 
ATOM     19  C   UNL     1       0.052  10.185  20.573  0.00  0.00    +0.000 A 
ATOM     20  C   UNL     1      -0.774  11.307  21.206  0.00  0.00    +0.000 A 
ATOM     21  C   UNL     1      -1.257  12.532  20.550  0.00  0.00    +0.000 A 
ATOM     22  C   UNL     1      -0.936  12.349  19.163  0.00  0.00    +0.000 A 
ATOM     23  N   UNL     1      -0.215  11.315  18.545  0.00  0.00    +0.000 NA
ATOM     24  C   UNL     1       0.342  10.290  19.215  0.00  0.00    +0.000 A 
ATOM     25  C   UNL     1       1.236   9.354  18.560  0.00  0.00    +0.000 A 
BRANCH  22  26
ATOM     26  O   UNL     1      -1.225  13.276  18.214  0.00  0.00    +0.000 OA
ATOM     27  H   UNL     1      -2.070  13.015  17.800  0.00  0.00    +0.000 HD
ENDBRANCH  22  26
ENDBRANCH   1  21
BRANCH   3  28
ATOM     28  N   UNL     1       0.018  14.863  21.819  0.00  0.00    +0.000 N 
ATOM     29  H   UNL     1      -0.143  15.861  22.000  0.00  0.00    +0.000 HD
ATOM     30  H   UNL     1       1.015  14.791  22.080  0.00  0.00    +0.000 HD
ENDBRANCH   3  28
BRANCH   2  31
ATOM     31  C   UNL     1      -3.363  12.614  22.286  0.00  0.00    +0.000 C 
ATOM     32  N   UNL     1      -4.510  12.377  22.138  0.00  0.00    +0.000 NA
ENDBRANCH   2  31
TORSDOF 4
ENDMDL
MODEL 9
REMARK VINA RESULT:      -6.9      2.139      8.517
REMARK  Name = 
REMARK  5 active torsions:
REMARK  status: ('A' for Active; 'I' for Inactive)
REMARK    1  A    between atoms: C_1  and  C_2
REMARK    2  A    between atoms: C_7  and  C_8
REMARK    3  A    between atoms: C_9  and  C_10
REMARK    4  A    between atoms: C_12  and  N_13
REMARK    5  A    between atoms: C_25  and  O_26
REMARK                            x       y       z     vdW  Elec       q    Type
REMARK                         _______ _______ _______ _____ _____    ______ ____
ROOT
ATOM      1  C   UNL     1      -0.856  13.593  21.308  0.00  0.00    +0.000 C 
ATOM      2  C   UNL     1      -1.531  13.309  20.032  0.00  0.00    +0.000 C 
ATOM      3  C   UNL     1      -2.445  12.482  20.681  0.00  0.00    +0.000 C 
ATOM      4  O   UNL     1      -3.684  12.775  20.228  0.00  0.00    +0.000 OA
ATOM      5  C   UNL     1      -3.843  14.014  20.865  0.00  0.00    +0.000 A 
ATOM      6  C   UNL     1      -2.527  14.570  21.550  0.00  0.00    +0.000 A 
ATOM      7  C   UNL     1      -2.887  15.772  22.168  0.00  0.00    +0.000 A 
ATOM      8  C   UNL     1      -4.354  16.185  22.184  0.00  0.00    +0.000 A 
ATOM      9  C   UNL     1      -5.529  15.476  21.590  0.00  0.00    +0.000 A 
ATOM     10  C   UNL     1      -6.965  15.716  21.655  0.00  0.00    +0.000 A 
ATOM     11  C   UNL     1      -7.916  14.869  21.039  0.00  0.00    +0.000 A 
ATOM     12  C   UNL     1      -7.441  13.795  20.335  0.00  0.00    +0.000 A 
ATOM     13  N   UNL     1      -6.126  13.546  20.242  0.00  0.00    +0.000 NA
ATOM     14  C   UNL     1      -5.213  14.361  20.859  0.00  0.00    +0.000 A 
ENDROOT
BRANCH   1  21
ATOM     15  C   UNL     1       2.659   5.921  18.576  0.00  0.00    +0.000 C 
ATOM     16  C   UNL     1       2.208   7.358  18.807  0.00  0.00    +0.000 A 
ATOM     17  C   UNL     1       2.237   8.304  17.792  0.00  0.00    +0.000 A 
ATOM     18  C   UNL     1       1.767   9.642  18.005  0.00  0.00    +0.000 A 
ATOM     19  C   UNL     1       1.232  10.137  19.250  0.00  0.00    +0.000 A 
ATOM     20  C   UNL     1       0.601  11.496  19.564  0.00  0.00    +0.000 A 
ATOM     21  C   UNL     1      -0.027  11.912  20.827  0.00  0.00    +0.000 A 
ATOM     22  C   UNL     1       0.244  10.835  21.737  0.00  0.00    +0.000 A 
ATOM     23  N   UNL     1       0.854   9.595  21.492  0.00  0.00    +0.000 NA
ATOM     24  C   UNL     1       1.275   9.197  20.277  0.00  0.00    +0.000 A 
ATOM     25  C   UNL     1       1.721   7.838  20.038  0.00  0.00    +0.000 A 
BRANCH  22  26
ATOM     26  O   UNL     1      -0.178  10.841  23.027  0.00  0.00    +0.000 OA
ATOM     27  H   UNL     1       0.148  10.020  23.444  0.00  0.00    +0.000 HD
ENDBRANCH  22  26
ENDBRANCH   1  21
BRANCH   3  28
ATOM     28  N   UNL     1      -2.658  12.035  22.143  0.00  0.00    +0.000 N 
ATOM     29  H   UNL     1      -3.238  11.208  22.331  0.00  0.00    +0.000 HD
ATOM     30  H   UNL     1      -1.754  11.711  22.526  0.00  0.00    +0.000 HD
ENDBRANCH   3  28
BRANCH   2  31
ATOM     31  C   UNL     1      -0.526  14.183  19.397  0.00  0.00    +0.000 C 
ATOM     32  N   UNL     1       0.067  14.985  18.764  0.00  0.00    +0.000 NA
ENDBRANCH   2  31
TORSDOF 4
ENDMDL
