MODEL 1
REMARK VINA RESULT:      -6.7      0.000      0.000
REMARK  Name = 
REMARK  5 active torsions:
REMARK  status: ('A' for Active; 'I' for Inactive)
REMARK    1  A    between atoms: C_2  and  C_3
REMARK    2  A    between atoms: N_10  and  C_11
REMARK    3  A    between atoms: C_11  and  C_12
REMARK    4  A    between atoms: C_18  and  C_19
REMARK    5  A    between atoms: C_19  and  C_20
REMARK                            x       y       z     vdW  Elec       q    Type
REMARK                         _______ _______ _______ _____ _____    ______ ____
ROOT
ATOM      1  C   UNL     1      -0.197   9.351  19.645  0.00  0.00    +0.000 C 
ATOM      2  O   UNL     1      -0.124   8.644  20.894  0.00  0.00    +0.000 OA
ATOM      3  C   UNL     1       1.264   8.567  21.204  0.00  0.00    +0.000 C 
ATOM      4  O   UNL     1       1.888   9.703  20.595  0.00  0.00    +0.000 OA
ATOM      5  C   UNL     1       1.248   9.684  19.305  0.00  0.00    +0.000 C 
ATOM      6  C   UNL     1       1.989   8.610  18.486  0.00  0.00    +0.000 C 
ATOM      7  O   UNL     1       2.243   8.785  17.295  0.00  0.00    +0.000 OA
ATOM      8  N   UNL     1       2.435   7.501  19.227  0.00  0.00    +0.000 N 
ATOM      9  C   UNL     1       1.859   7.258  20.590  0.00  0.00    +0.000 C 
ENDROOT
BRANCH   1  11
ATOM     10  O   UNL     1      -1.053  11.205  20.945  0.00  0.00    +0.000 OA
ATOM     11  C   UNL     1      -1.056  10.609  19.866  0.00  0.00    +0.000 C 
ATOM     12  N   UNL     1      -1.829  11.061  18.800  0.00  0.00    +0.000 N 
ATOM     13  C   UNL     1      -1.897  10.472  17.456  0.00  0.00    +0.000 C 
ATOM     14  C   UNL     1      -3.334  10.039  17.145  0.00  0.00    +0.000 C 
ATOM     15  O   UNL     1      -4.235  11.153  17.272  0.00  0.00    +0.000 OA
ATOM     16  C   UNL     1      -4.208  11.679  18.611  0.00  0.00    +0.000 C 
ATOM     17  C   UNL     1      -2.797  12.143  19.004  0.00  0.00    +0.000 C 
ENDBRANCH   1  11
BRANCH   8  18
ATOM     18  C   UNL     1       3.735   6.904  18.915  0.00  0.00    +0.000 C 
BRANCH  18  19
ATOM     19  C   UNL     1       3.736   5.481  18.417  0.00  0.00    +0.000 A 
ATOM     20  C   UNL     1       4.687   4.567  18.899  0.00  0.00    +0.000 A 
ATOM     21  C   UNL     1       4.699   3.244  18.459  0.00  0.00    +0.000 A 
ATOM     22  C   UNL     1       3.748   2.810  17.541  0.00  0.00    +0.000 A 
ATOM     23  C   UNL     1       2.778   3.696  17.075  0.00  0.00    +0.000 A 
ATOM     24  C   UNL     1       2.769   5.025  17.510  0.00  0.00    +0.000 A 
ENDBRANCH  18  19
ENDBRANCH   8  18
BRANCH   9  25
ATOM     25  C   UNL     1       0.819   6.124  20.464  0.00  0.00    +0.000 C 
BRANCH  25  26
ATOM     26  C   UNL     1       1.211   4.683  20.696  0.00  0.00    +0.000 A 
ATOM     27  C   UNL     1       0.580   3.697  19.918  0.00  0.00    +0.000 A 
ATOM     28  C   UNL     1       1.021   2.375  19.927  0.00  0.00    +0.000 A 
ATOM     29  C   UNL     1       2.100   2.019  20.732  0.00  0.00    +0.000 A 
ATOM     30  C   UNL     1       2.700   2.969  21.551  0.00  0.00    +0.000 A 
ATOM     31  C   UNL     1       2.262   4.298  21.536  0.00  0.00    +0.000 A 
ENDBRANCH  25  26
ENDBRANCH   9  25
TORSDOF 5
ENDMDL
MODEL 2
REMARK VINA RESULT:      -6.6      0.201      1.236
REMARK  Name = 
REMARK  5 active torsions:
REMARK  status: ('A' for Active; 'I' for Inactive)
REMARK    1  A    between atoms: C_2  and  C_3
REMARK    2  A    between atoms: N_10  and  C_11
REMARK    3  A    between atoms: C_11  and  C_12
REMARK    4  A    between atoms: C_18  and  C_19
REMARK    5  A    between atoms: C_19  and  C_20
REMARK                            x       y       z     vdW  Elec       q    Type
REMARK                         _______ _______ _______ _____ _____    ______ ____
ROOT
ATOM      1  C   UNL     1      -0.246   9.387  19.527  0.00  0.00    +0.000 C 
ATOM      2  O   UNL     1      -0.179   8.738  20.808  0.00  0.00    +0.000 OA
ATOM      3  C   UNL     1       1.206   8.699  21.139  0.00  0.00    +0.000 C 
ATOM      4  O   UNL     1       1.819   9.818  20.486  0.00  0.00    +0.000 OA
ATOM      5  C   UNL     1       1.197   9.730  19.191  0.00  0.00    +0.000 C 
ATOM      6  C   UNL     1       1.967   8.633  18.430  0.00  0.00    +0.000 C 
ATOM      7  O   UNL     1       2.234   8.760  17.236  0.00  0.00    +0.000 OA
ATOM      8  N   UNL     1       2.421   7.567  19.227  0.00  0.00    +0.000 N 
ATOM      9  C   UNL     1       1.831   7.375  20.591  0.00  0.00    +0.000 C 
ENDROOT
BRANCH   1  11
ATOM     10  O   UNL     1      -1.126  11.301  20.720  0.00  0.00    +0.000 OA
ATOM     11  C   UNL     1      -1.129  10.639  19.680  0.00  0.00    +0.000 C 
ATOM     12  N   UNL     1      -1.925  11.006  18.598  0.00  0.00    +0.000 N 
ATOM     13  C   UNL     1      -1.997  10.332  17.296  0.00  0.00    +0.000 C 
ATOM     14  C   UNL     1      -3.428   9.852  17.032  0.00  0.00    +0.000 C 
ATOM     15  O   UNL     1      -4.351  10.953  17.101  0.00  0.00    +0.000 OA
ATOM     16  C   UNL     1      -4.319  11.562  18.404  0.00  0.00    +0.000 C 
ATOM     17  C   UNL     1      -2.913  12.079  18.748  0.00  0.00    +0.000 C 
ENDBRANCH   1  11
BRANCH   8  18
ATOM     18  C   UNL     1       3.736   6.979  18.958  0.00  0.00    +0.000 C 
BRANCH  18  19
ATOM     19  C   UNL     1       3.769   5.531  18.538  0.00  0.00    +0.000 A 
ATOM     20  C   UNL     1       2.954   5.084  17.486  0.00  0.00    +0.000 A 
ATOM     21  C   UNL     1       2.977   3.751  17.076  0.00  0.00    +0.000 A 
ATOM     22  C   UNL     1       3.828   2.848  17.704  0.00  0.00    +0.000 A 
ATOM     23  C   UNL     1       4.665   3.281  18.731  0.00  0.00    +0.000 A 
ATOM     24  C   UNL     1       4.638   4.615  19.147  0.00  0.00    +0.000 A 
ENDBRANCH  18  19
ENDBRANCH   8  18
BRANCH   9  25
ATOM     25  C   UNL     1       0.813   6.218  20.503  0.00  0.00    +0.000 C 
BRANCH  25  26
ATOM     26  C   UNL     1       1.268   4.778  20.555  0.00  0.00    +0.000 A 
ATOM     27  C   UNL     1       2.219   4.425  21.529  0.00  0.00    +0.000 A 
ATOM     28  C   UNL     1       2.542   3.091  21.775  0.00  0.00    +0.000 A 
ATOM     29  C   UNL     1       1.921   2.089  21.036  0.00  0.00    +0.000 A 
ATOM     30  C   UNL     1       1.020   2.422  20.031  0.00  0.00    +0.000 A 
ATOM     31  C   UNL     1       0.690   3.760  19.789  0.00  0.00    +0.000 A 
ENDBRANCH  25  26
ENDBRANCH   9  25
TORSDOF 5
ENDMDL
MODEL 3
REMARK VINA RESULT:      -6.4      1.411      1.863
REMARK  Name = 
REMARK  5 active torsions:
REMARK  status: ('A' for Active; 'I' for Inactive)
REMARK    1  A    between atoms: C_2  and  C_3
REMARK    2  A    between atoms: N_10  and  C_11
REMARK    3  A    between atoms: C_11  and  C_12
REMARK    4  A    between atoms: C_18  and  C_19
REMARK    5  A    between atoms: C_19  and  C_20
REMARK                            x       y       z     vdW  Elec       q    Type
REMARK                         _______ _______ _______ _____ _____    ______ ____
ROOT
ATOM      1  C   UNL     1      -0.234   9.410  21.051  0.00  0.00    +0.000 C 
ATOM      2  O   UNL     1       0.260   8.350  21.887  0.00  0.00    +0.000 OA
ATOM      3  C   UNL     1       1.657   8.281  21.622  0.00  0.00    +0.000 C 
ATOM      4  O   UNL     1       2.069   9.595  21.227  0.00  0.00    +0.000 OA
ATOM      5  C   UNL     1       0.996   9.940  20.331  0.00  0.00    +0.000 C 
ATOM      6  C   UNL     1       1.323   9.239  18.998  0.00  0.00    +0.000 C 
ATOM      7  O   UNL     1       1.125   9.803  17.922  0.00  0.00    +0.000 OA
ATOM      8  N   UNL     1       1.953   7.989  19.124  0.00  0.00    +0.000 N 
ATOM      9  C   UNL     1       1.912   7.283  20.446  0.00  0.00    +0.000 C 
ENDROOT
BRANCH   1  11
ATOM     10  O   UNL     1      -0.903  10.326  23.190  0.00  0.00    +0.000 OA
ATOM     11  C   UNL     1      -0.883  10.465  21.965  0.00  0.00    +0.000 C 
ATOM     12  N   UNL     1      -1.437  11.591  21.362  0.00  0.00    +0.000 N 
ATOM     13  C   UNL     1      -1.449  11.899  19.927  0.00  0.00    +0.000 C 
ATOM     14  C   UNL     1      -2.894  12.030  19.430  0.00  0.00    +0.000 C 
ATOM     15  O   UNL     1      -3.597  13.033  20.185  0.00  0.00    +0.000 OA
ATOM     16  C   UNL     1      -3.635  12.686  21.580  0.00  0.00    +0.000 C 
ATOM     17  C   UNL     1      -2.221  12.538  22.161  0.00  0.00    +0.000 C 
ENDBRANCH   1  11
BRANCH   8  18
ATOM     18  C   UNL     1       3.011   7.620  18.181  0.00  0.00    +0.000 C 
BRANCH  18  19
ATOM     19  C   UNL     1       3.563   6.220  18.279  0.00  0.00    +0.000 A 
ATOM     20  C   UNL     1       3.055   5.204  17.454  0.00  0.00    +0.000 A 
ATOM     21  C   UNL     1       3.559   3.905  17.523  0.00  0.00    +0.000 A 
ATOM     22  C   UNL     1       4.590   3.607  18.408  0.00  0.00    +0.000 A 
ATOM     23  C   UNL     1       5.126   4.611  19.213  0.00  0.00    +0.000 A 
ATOM     24  C   UNL     1       4.618   5.912  19.150  0.00  0.00    +0.000 A 
ENDBRANCH  18  19
ENDBRANCH   8  18
BRANCH   9  25
ATOM     25  C   UNL     1       0.843   6.174  20.353  0.00  0.00    +0.000 C 
BRANCH  25  26
ATOM     26  C   UNL     1       1.209   4.723  20.560  0.00  0.00    +0.000 A 
ATOM     27  C   UNL     1       0.640   3.772  19.694  0.00  0.00    +0.000 A 
ATOM     28  C   UNL     1       1.075   2.447  19.688  0.00  0.00    +0.000 A 
ATOM     29  C   UNL     1       2.083   2.054  20.563  0.00  0.00    +0.000 A 
ATOM     30  C   UNL     1       2.618   2.967  21.464  0.00  0.00    +0.000 A 
ATOM     31  C   UNL     1       2.187   4.299  21.466  0.00  0.00    +0.000 A 
ENDBRANCH  25  26
ENDBRANCH   9  25
TORSDOF 5
ENDMDL
MODEL 4
REMARK VINA RESULT:      -6.1      2.754      4.659
REMARK  Name = 
REMARK  5 active torsions:
REMARK  status: ('A' for Active; 'I' for Inactive)
REMARK    1  A    between atoms: C_2  and  C_3
REMARK    2  A    between atoms: N_10  and  C_11
REMARK    3  A    between atoms: C_11  and  C_12
REMARK    4  A    between atoms: C_18  and  C_19
REMARK    5  A    between atoms: C_19  and  C_20
REMARK                            x       y       z     vdW  Elec       q    Type
REMARK                         _______ _______ _______ _____ _____    ______ ____
ROOT
ATOM      1  C   UNL     1       1.661  10.672  18.958  0.00  0.00    +0.000 C 
ATOM      2  O   UNL     1       2.062  10.159  17.676  0.00  0.00    +0.000 OA
ATOM      3  C   UNL     1       1.451   8.877  17.574  0.00  0.00    +0.000 C 
ATOM      4  O   UNL     1       0.259   8.922  18.369  0.00  0.00    +0.000 OA
ATOM      5  C   UNL     1       0.760   9.594  19.540  0.00  0.00    +0.000 C 
ATOM      6  C   UNL     1       1.486   8.513  20.364  0.00  0.00    +0.000 C 
ATOM      7  O   UNL     1       1.393   8.483  21.591  0.00  0.00    +0.000 OA
ATOM      8  N   UNL     1       2.145   7.530  19.604  0.00  0.00    +0.000 N 
ATOM      9  C   UNL     1       2.418   7.795  18.153  0.00  0.00    +0.000 C 
ENDROOT
BRANCH   1  11
ATOM     10  O   UNL     1      -0.044  12.065  17.951  0.00  0.00    +0.000 OA
ATOM     11  C   UNL     1       0.916  11.998  18.720  0.00  0.00    +0.000 C 
ATOM     12  N   UNL     1       1.357  13.121  19.416  0.00  0.00    +0.000 N 
ATOM     13  C   UNL     1       2.458  13.173  20.386  0.00  0.00    +0.000 C 
ATOM     14  C   UNL     1       3.531  14.159  19.909  0.00  0.00    +0.000 C 
ATOM     15  O   UNL     1       2.960  15.462  19.697  0.00  0.00    +0.000 OA
ATOM     16  C   UNL     1       1.928  15.409  18.696  0.00  0.00    +0.000 C 
ATOM     17  C   UNL     1       0.804  14.441  19.099  0.00  0.00    +0.000 C 
ENDBRANCH   1  11
BRANCH   8  18
ATOM     18  C   UNL     1       2.122   6.137  20.056  0.00  0.00    +0.000 C 
BRANCH  18  19
ATOM     19  C   UNL     1       2.748   5.109  19.148  0.00  0.00    +0.000 A 
ATOM     20  C   UNL     1       4.043   4.634  19.409  0.00  0.00    +0.000 A 
ATOM     21  C   UNL     1       4.636   3.676  18.587  0.00  0.00    +0.000 A 
ATOM     22  C   UNL     1       3.934   3.166  17.499  0.00  0.00    +0.000 A 
ATOM     23  C   UNL     1       2.636   3.605  17.243  0.00  0.00    +0.000 A 
ATOM     24  C   UNL     1       2.043   4.570  18.062  0.00  0.00    +0.000 A 
ENDBRANCH  18  19
ENDBRANCH   8  18
BRANCH   9  25
ATOM     25  C   UNL     1       3.907   8.182  18.020  0.00  0.00    +0.000 C 
BRANCH  25  26
ATOM     26  C   UNL     1       4.860   7.336  17.209  0.00  0.00    +0.000 A 
ATOM     27  C   UNL     1       6.147   7.115  17.728  0.00  0.00    +0.000 A 
ATOM     28  C   UNL     1       7.014   6.191  17.147  0.00  0.00    +0.000 A 
ATOM     29  C   UNL     1       6.603   5.481  16.023  0.00  0.00    +0.000 A 
ATOM     30  C   UNL     1       5.355   5.726  15.462  0.00  0.00    +0.000 A 
ATOM     31  C   UNL     1       4.482   6.649  16.050  0.00  0.00    +0.000 A 
ENDBRANCH  25  26
ENDBRANCH   9  25
TORSDOF 5
ENDMDL
MODEL 5
REMARK VINA RESULT:      -6.0      2.278      8.326
REMARK  Name = 
REMARK  5 active torsions:
REMARK  status: ('A' for Active; 'I' for Inactive)
REMARK    1  A    between atoms: C_2  and  C_3
REMARK    2  A    between atoms: N_10  and  C_11
REMARK    3  A    between atoms: C_11  and  C_12
REMARK    4  A    between atoms: C_18  and  C_19
REMARK    5  A    between atoms: C_19  and  C_20
REMARK                            x       y       z     vdW  Elec       q    Type
REMARK                         _______ _______ _______ _____ _____    ______ ____
ROOT
ATOM      1  C   UNL     1       1.327   8.605  19.212  0.00  0.00    +0.000 C 
ATOM      2  O   UNL     1       0.652   9.104  18.045  0.00  0.00    +0.000 OA
ATOM      3  C   UNL     1       0.789  10.520  18.107  0.00  0.00    +0.000 C 
ATOM      4  O   UNL     1       2.001  10.788  18.824  0.00  0.00    +0.000 OA
ATOM      5  C   UNL     1       1.872   9.844  19.904  0.00  0.00    +0.000 C 
ATOM      6  C   UNL     1       0.913  10.498  20.918  0.00  0.00    +0.000 C 
ATOM      7  O   UNL     1       1.113  10.404  22.128  0.00  0.00    +0.000 OA
ATOM      8  N   UNL     1      -0.107  11.281  20.350  0.00  0.00    +0.000 N 
ATOM      9  C   UNL     1      -0.420  11.123  18.893  0.00  0.00    +0.000 C 
ENDROOT
BRANCH   1  11
ATOM     10  O   UNL     1       3.144   7.928  17.762  0.00  0.00    +0.000 OA
ATOM     11  C   UNL     1       2.443   7.655  18.738  0.00  0.00    +0.000 C 
ATOM     12  N   UNL     1       2.643   6.481  19.459  0.00  0.00    +0.000 N 
ATOM     13  C   UNL     1       1.909   6.054  20.657  0.00  0.00    +0.000 C 
ATOM     14  C   UNL     1       1.215   4.713  20.397  0.00  0.00    +0.000 C 
ATOM     15  O   UNL     1       2.172   3.719  19.990  0.00  0.00    +0.000 OA
ATOM     16  C   UNL     1       2.837   4.120  18.778  0.00  0.00    +0.000 C 
ATOM     17  C   UNL     1       3.566   5.461  18.954  0.00  0.00    +0.000 C 
ENDBRANCH   1  11
BRANCH   8  18
ATOM     18  C   UNL     1      -0.504  12.529  21.007  0.00  0.00    +0.000 C 
BRANCH  18  19
ATOM     19  C   UNL     1      -1.875  12.571  21.633  0.00  0.00    +0.000 A 
ATOM     20  C   UNL     1      -2.038  12.251  22.991  0.00  0.00    +0.000 A 
ATOM     21  C   UNL     1      -3.296  12.293  23.592  0.00  0.00    +0.000 A 
ATOM     22  C   UNL     1      -4.408  12.671  22.847  0.00  0.00    +0.000 A 
ATOM     23  C   UNL     1      -4.259  13.021  21.506  0.00  0.00    +0.000 A 
ATOM     24  C   UNL     1      -3.000  12.974  20.900  0.00  0.00    +0.000 A 
ENDBRANCH  18  19
ENDBRANCH   8  18
BRANCH   9  25
ATOM     25  C   UNL     1      -1.701  10.267  18.779  0.00  0.00    +0.000 C 
BRANCH  25  26
ATOM     26  C   UNL     1      -2.594  10.364  17.564  0.00  0.00    +0.000 A 
ATOM     27  C   UNL     1      -3.744  11.167  17.658  0.00  0.00    +0.000 A 
ATOM     28  C   UNL     1      -4.510  11.470  16.532  0.00  0.00    +0.000 A 
ATOM     29  C   UNL     1      -4.136  10.958  15.293  0.00  0.00    +0.000 A 
ATOM     30  C   UNL     1      -3.034  10.116  15.191  0.00  0.00    +0.000 A 
ATOM     31  C   UNL     1      -2.262   9.819  16.320  0.00  0.00    +0.000 A 
ENDBRANCH  25  26
ENDBRANCH   9  25
TORSDOF 5
ENDMDL
MODEL 6
REMARK VINA RESULT:      -6.0      0.894      1.029
REMARK  Name = 
REMARK  5 active torsions:
REMARK  status: ('A' for Active; 'I' for Inactive)
REMARK    1  A    between atoms: C_2  and  C_3
REMARK    2  A    between atoms: N_10  and  C_11
REMARK    3  A    between atoms: C_11  and  C_12
REMARK    4  A    between atoms: C_18  and  C_19
REMARK    5  A    between atoms: C_19  and  C_20
REMARK                            x       y       z     vdW  Elec       q    Type
REMARK                         _______ _______ _______ _____ _____    ______ ____
ROOT
ATOM      1  C   UNL     1      -0.152   9.204  19.507  0.00  0.00    +0.000 C 
ATOM      2  O   UNL     1      -0.220   8.524  20.771  0.00  0.00    +0.000 OA
ATOM      3  C   UNL     1       1.123   8.465  21.241  0.00  0.00    +0.000 C 
ATOM      4  O   UNL     1       1.807   9.595  20.683  0.00  0.00    +0.000 OA
ATOM      5  C   UNL     1       1.319   9.543  19.328  0.00  0.00    +0.000 C 
ATOM      6  C   UNL     1       2.157   8.459  18.624  0.00  0.00    +0.000 C 
ATOM      7  O   UNL     1       2.546   8.612  17.467  0.00  0.00    +0.000 OA
ATOM      8  N   UNL     1       2.521   7.370  19.436  0.00  0.00    +0.000 N 
ATOM      9  C   UNL     1       1.793   7.150  20.728  0.00  0.00    +0.000 C 
ENDROOT
BRANCH   1  11
ATOM     10  O   UNL     1      -1.097  11.127  20.635  0.00  0.00    +0.000 OA
ATOM     11  C   UNL     1      -1.039  10.459  19.600  0.00  0.00    +0.000 C 
ATOM     12  N   UNL     1      -1.767  10.823  18.470  0.00  0.00    +0.000 N 
ATOM     13  C   UNL     1      -1.761  10.143  17.169  0.00  0.00    +0.000 C 
ATOM     14  C   UNL     1      -3.175   9.665  16.821  0.00  0.00    +0.000 C 
ATOM     15  O   UNL     1      -4.097  10.769  16.829  0.00  0.00    +0.000 OA
ATOM     16  C   UNL     1      -4.143  11.385  18.128  0.00  0.00    +0.000 C 
ATOM     17  C   UNL     1      -2.759  11.899  18.554  0.00  0.00    +0.000 C 
ENDBRANCH   1  11
BRANCH   8  18
ATOM     18  C   UNL     1       3.853   6.777  19.288  0.00  0.00    +0.000 C 
BRANCH  18  19
ATOM     19  C   UNL     1       4.107   5.956  18.049  0.00  0.00    +0.000 A 
ATOM     20  C   UNL     1       4.936   6.455  17.032  0.00  0.00    +0.000 A 
ATOM     21  C   UNL     1       5.191   5.707  15.882  0.00  0.00    +0.000 A 
ATOM     22  C   UNL     1       4.633   4.441  15.741  0.00  0.00    +0.000 A 
ATOM     23  C   UNL     1       3.832   3.918  16.755  0.00  0.00    +0.000 A 
ATOM     24  C   UNL     1       3.570   4.669  17.905  0.00  0.00    +0.000 A 
ENDBRANCH  18  19
ENDBRANCH   8  18
BRANCH   9  25
ATOM     25  C   UNL     1       0.783   6.004  20.507  0.00  0.00    +0.000 C 
BRANCH  25  26
ATOM     26  C   UNL     1       1.227   4.560  20.540  0.00  0.00    +0.000 A 
ATOM     27  C   UNL     1       0.674   3.681  19.593  0.00  0.00    +0.000 A 
ATOM     28  C   UNL     1       1.173   2.389  19.426  0.00  0.00    +0.000 A 
ATOM     29  C   UNL     1       2.230   1.956  20.220  0.00  0.00    +0.000 A 
ATOM     30  C   UNL     1       2.753   2.792  21.200  0.00  0.00    +0.000 A 
ATOM     31  C   UNL     1       2.257   4.091  21.363  0.00  0.00    +0.000 A 
ENDBRANCH  25  26
ENDBRANCH   9  25
TORSDOF 5
ENDMDL
MODEL 7
REMARK VINA RESULT:      -5.9      8.856     10.792
REMARK  Name = 
REMARK  5 active torsions:
REMARK  status: ('A' for Active; 'I' for Inactive)
REMARK    1  A    between atoms: C_2  and  C_3
REMARK    2  A    between atoms: N_10  and  C_11
REMARK    3  A    between atoms: C_11  and  C_12
REMARK    4  A    between atoms: C_18  and  C_19
REMARK    5  A    between atoms: C_19  and  C_20
REMARK                            x       y       z     vdW  Elec       q    Type
REMARK                         _______ _______ _______ _____ _____    ______ ____
ROOT
ATOM      1  C   UNL     1       5.050  15.276  21.001  0.00  0.00    +0.000 C 
ATOM      2  O   UNL     1       5.992  14.292  21.460  0.00  0.00    +0.000 OA
ATOM      3  C   UNL     1       7.111  15.033  21.936  0.00  0.00    +0.000 C 
ATOM      4  O   UNL     1       6.611  16.303  22.373  0.00  0.00    +0.000 OA
ATOM      5  C   UNL     1       5.717  16.613  21.286  0.00  0.00    +0.000 C 
ATOM      6  C   UNL     1       6.610  17.151  20.151  0.00  0.00    +0.000 C 
ATOM      7  O   UNL     1       6.248  18.101  19.458  0.00  0.00    +0.000 OA
ATOM      8  N   UNL     1       7.879  16.553  20.061  0.00  0.00    +0.000 N 
ATOM      9  C   UNL     1       8.123  15.252  20.765  0.00  0.00    +0.000 C 
ENDROOT
BRANCH   1  11
ATOM     10  O   UNL     1       3.751  14.582  22.922  0.00  0.00    +0.000 OA
ATOM     11  C   UNL     1       3.747  15.086  21.797  0.00  0.00    +0.000 C 
ATOM     12  N   UNL     1       2.560  15.515  21.208  0.00  0.00    +0.000 N 
ATOM     13  C   UNL     1       2.417  16.162  19.898  0.00  0.00    +0.000 C 
ATOM     14  C   UNL     1       1.510  15.320  18.993  0.00  0.00    +0.000 C 
ATOM     15  O   UNL     1       0.230  15.112  19.615  0.00  0.00    +0.000 OA
ATOM     16  C   UNL     1       0.378  14.418  20.866  0.00  0.00    +0.000 C 
ATOM     17  C   UNL     1       1.275  15.200  21.840  0.00  0.00    +0.000 C 
ENDBRANCH   1  11
BRANCH   8  18
ATOM     18  C   UNL     1       9.041  17.380  19.726  0.00  0.00    +0.000 C 
BRANCH  18  19
ATOM     19  C   UNL     1      10.107  16.753  18.865  0.00  0.00    +0.000 A 
ATOM     20  C   UNL     1       9.894  16.592  17.486  0.00  0.00    +0.000 A 
ATOM     21  C   UNL     1      10.872  16.023  16.670  0.00  0.00    +0.000 A 
ATOM     22  C   UNL     1      12.084  15.620  17.219  0.00  0.00    +0.000 A 
ATOM     23  C   UNL     1      12.324  15.800  18.581  0.00  0.00    +0.000 A 
ATOM     24  C   UNL     1      11.343  16.364  19.401  0.00  0.00    +0.000 A 
ENDBRANCH  18  19
ENDBRANCH   8  18
BRANCH   9  25
ATOM     25  C   UNL     1       8.071  14.129  19.705  0.00  0.00    +0.000 C 
BRANCH  25  26
ATOM     26  C   UNL     1       9.284  13.274  19.421  0.00  0.00    +0.000 A 
ATOM     27  C   UNL     1       9.470  12.816  18.105  0.00  0.00    +0.000 A 
ATOM     28  C   UNL     1      10.656  12.194  17.716  0.00  0.00    +0.000 A 
ATOM     29  C   UNL     1      11.671  12.011  18.650  0.00  0.00    +0.000 A 
ATOM     30  C   UNL     1      11.483  12.407  19.969  0.00  0.00    +0.000 A 
ATOM     31  C   UNL     1      10.295  13.038  20.358  0.00  0.00    +0.000 A 
ENDBRANCH  25  26
ENDBRANCH   9  25
TORSDOF 5
ENDMDL
MODEL 8
REMARK VINA RESULT:      -5.9      2.666      9.016
REMARK  Name = 
REMARK  5 active torsions:
REMARK  status: ('A' for Active; 'I' for Inactive)
REMARK    1  A    between atoms: C_2  and  C_3
REMARK    2  A    between atoms: N_10  and  C_11
REMARK    3  A    between atoms: C_11  and  C_12
REMARK    4  A    between atoms: C_18  and  C_19
REMARK    5  A    between atoms: C_19  and  C_20
REMARK                            x       y       z     vdW  Elec       q    Type
REMARK                         _______ _______ _______ _____ _____    ______ ____
ROOT
ATOM      1  C   UNL     1       0.420   9.867  19.050  0.00  0.00    +0.000 C 
ATOM      2  O   UNL     1      -0.459  10.385  18.037  0.00  0.00    +0.000 OA
ATOM      3  C   UNL     1      -0.416  11.800  18.186  0.00  0.00    +0.000 C 
ATOM      4  O   UNL     1       0.869  12.120  18.735  0.00  0.00    +0.000 OA
ATOM      5  C   UNL     1       0.974  11.100  19.747  0.00  0.00    +0.000 C 
ATOM      6  C   UNL     1       0.138  11.606  20.938  0.00  0.00    +0.000 C 
ATOM      7  O   UNL     1       0.527  11.450  22.095  0.00  0.00    +0.000 OA
ATOM      8  N   UNL     1      -1.010  12.338  20.589  0.00  0.00    +0.000 N 
ATOM      9  C   UNL     1      -1.531  12.249  19.185  0.00  0.00    +0.000 C 
ENDROOT
BRANCH   1  11
ATOM     10  O   UNL     1       1.848   9.285  17.184  0.00  0.00    +0.000 OA
ATOM     11  C   UNL     1       1.515   9.046  18.346  0.00  0.00    +0.000 C 
ATOM     12  N   UNL     1       2.127   8.027  19.072  0.00  0.00    +0.000 N 
ATOM     13  C   UNL     1       1.855   7.662  20.467  0.00  0.00    +0.000 C 
ATOM     14  C   UNL     1       1.380   6.206  20.545  0.00  0.00    +0.000 C 
ATOM     15  O   UNL     1       2.353   5.326  19.956  0.00  0.00    +0.000 OA
ATOM     16  C   UNL     1       2.562   5.653  18.570  0.00  0.00    +0.000 C 
ATOM     17  C   UNL     1       3.046   7.102  18.402  0.00  0.00    +0.000 C 
ENDBRANCH   1  11
BRANCH   8  18
ATOM     18  C   UNL     1      -1.390  13.504  21.390  0.00  0.00    +0.000 C 
BRANCH  18  19
ATOM     19  C   UNL     1      -2.611  13.369  22.264  0.00  0.00    +0.000 A 
ATOM     20  C   UNL     1      -2.697  12.323  23.197  0.00  0.00    +0.000 A 
ATOM     21  C   UNL     1      -3.813  12.187  24.022  0.00  0.00    +0.000 A 
ATOM     22  C   UNL     1      -4.854  13.106  23.937  0.00  0.00    +0.000 A 
ATOM     23  C   UNL     1      -4.771  14.167  23.038  0.00  0.00    +0.000 A 
ATOM     24  C   UNL     1      -3.656  14.302  22.206  0.00  0.00    +0.000 A 
ENDBRANCH  18  19
ENDBRANCH   8  18
BRANCH   9  25
ATOM     25  C   UNL     1      -2.749  11.301  19.196  0.00  0.00    +0.000 C 
BRANCH  25  26
ATOM     26  C   UNL     1      -4.098  11.764  18.697  0.00  0.00    +0.000 A 
ATOM     27  C   UNL     1      -4.959  12.389  19.616  0.00  0.00    +0.000 A 
ATOM     28  C   UNL     1      -6.129  13.020  19.198  0.00  0.00    +0.000 A 
ATOM     29  C   UNL     1      -6.460  13.022  17.846  0.00  0.00    +0.000 A 
ATOM     30  C   UNL     1      -5.650  12.360  16.930  0.00  0.00    +0.000 A 
ATOM     31  C   UNL     1      -4.471  11.733  17.349  0.00  0.00    +0.000 A 
ENDBRANCH  25  26
ENDBRANCH   9  25
TORSDOF 5
ENDMDL
MODEL 9
REMARK VINA RESULT:      -5.9      5.584      8.321
REMARK  Name = 
REMARK  5 active torsions:
REMARK  status: ('A' for Active; 'I' for Inactive)
REMARK    1  A    between atoms: C_2  and  C_3
REMARK    2  A    between atoms: N_10  and  C_11
REMARK    3  A    between atoms: C_11  and  C_12
REMARK    4  A    between atoms: C_18  and  C_19
REMARK    5  A    between atoms: C_19  and  C_20
REMARK                            x       y       z     vdW  Elec       q    Type
REMARK                         _______ _______ _______ _____ _____    ______ ____
ROOT
ATOM      1  C   UNL     1       1.151  13.721  20.772  0.00  0.00    +0.000 C 
ATOM      2  O   UNL     1       0.357  13.449  21.940  0.00  0.00    +0.000 OA
ATOM      3  C   UNL     1       0.189  12.035  21.960  0.00  0.00    +0.000 C 
ATOM      4  O   UNL     1       1.332  11.472  21.303  0.00  0.00    +0.000 OA
ATOM      5  C   UNL     1       1.433  12.354  20.169  0.00  0.00    +0.000 C 
ATOM      6  C   UNL     1       0.380  11.858  19.158  0.00  0.00    +0.000 C 
ATOM      7  O   UNL     1       0.624  11.833  17.952  0.00  0.00    +0.000 OA
ATOM      8  N   UNL     1      -0.797  11.346  19.731  0.00  0.00    +0.000 N 
ATOM      9  C   UNL     1      -1.102  11.656  21.166  0.00  0.00    +0.000 C 
ENDROOT
BRANCH   1  11
ATOM     10  O   UNL     1       2.753  14.477  22.421  0.00  0.00    +0.000 OA
ATOM     11  C   UNL     1       2.432  14.439  21.232  0.00  0.00    +0.000 C 
ATOM     12  N   UNL     1       3.226  15.035  20.256  0.00  0.00    +0.000 N 
ATOM     13  C   UNL     1       2.982  15.033  18.808  0.00  0.00    +0.000 C 
ATOM     14  C   UNL     1       2.845  16.472  18.296  0.00  0.00    +0.000 C 
ATOM     15  O   UNL     1       4.017  17.238  18.627  0.00  0.00    +0.000 OA
ATOM     16  C   UNL     1       4.207  17.288  20.052  0.00  0.00    +0.000 C 
ATOM     17  C   UNL     1       4.358  15.880  20.649  0.00  0.00    +0.000 C 
ENDBRANCH   1  11
BRANCH   8  18
ATOM     18  C   UNL     1      -1.437  10.173  19.131  0.00  0.00    +0.000 C 
BRANCH  18  19
ATOM     19  C   UNL     1      -2.327  10.410  17.938  0.00  0.00    +0.000 A 
ATOM     20  C   UNL     1      -3.447  11.250  18.051  0.00  0.00    +0.000 A 
ATOM     21  C   UNL     1      -4.278  11.490  16.957  0.00  0.00    +0.000 A 
ATOM     22  C   UNL     1      -3.991  10.906  15.727  0.00  0.00    +0.000 A 
ATOM     23  C   UNL     1      -2.866  10.094  15.590  0.00  0.00    +0.000 A 
ATOM     24  C   UNL     1      -2.036   9.847  16.687  0.00  0.00    +0.000 A 
ENDBRANCH  18  19
ENDBRANCH   8  18
BRANCH   9  25
ATOM     25  C   UNL     1      -2.172  12.769  21.187  0.00  0.00    +0.000 C 
BRANCH  25  26
ATOM     26  C   UNL     1      -3.367  12.681  22.108  0.00  0.00    +0.000 A 
ATOM     27  C   UNL     1      -3.126  12.475  23.478  0.00  0.00    +0.000 A 
ATOM     28  C   UNL     1      -4.151  12.579  24.417  0.00  0.00    +0.000 A 
ATOM     29  C   UNL     1      -5.441  12.881  23.991  0.00  0.00    +0.000 A 
ATOM     30  C   UNL     1      -5.709  13.033  22.635  0.00  0.00    +0.000 A 
ATOM     31  C   UNL     1      -4.678  12.935  21.693  0.00  0.00    +0.000 A 
ENDBRANCH  25  26
ENDBRANCH   9  25
TORSDOF 5
ENDMDL
