MODEL 1
REMARK VINA RESULT:      -6.8      0.000      0.000
REMARK  Name = 
REMARK  6 active torsions:
REMARK  status: ('A' for Active; 'I' for Inactive)
REMARK    1  A    between atoms: C_1  and  C_2
REMARK    2  A    between atoms: C_2  and  C_3
REMARK    3  A    between atoms: C_2  and  N_4
REMARK    4  A    between atoms: C_2  and  C_5
REMARK    5  A    between atoms: C_5  and  C_6
REMARK    6  A    between atoms: N_8  and  C_9
REMARK                            x       y       z     vdW  Elec       q    Type
REMARK                         _______ _______ _______ _____ _____    ______ ____
ROOT
ATOM      1  C   UNL     1       2.380   7.491  18.867  0.00  0.00    +0.000 C 
ATOM      2  C   UNL     1       1.874   6.721  17.647  0.00  0.00    +0.000 C 
ATOM      3  C   UNL     1       2.406   5.293  17.555  0.00  0.00    +0.000 C 
ATOM      4  C   UNL     1       3.883   5.194  17.883  0.00  0.00    +0.000 A 
ATOM      5  C   UNL     1       4.264   5.306  19.240  0.00  0.00    +0.000 A 
ATOM      6  C   UNL     1       5.582   5.102  19.631  0.00  0.00    +0.000 A 
ATOM      7  C   UNL     1       6.561   4.888  18.665  0.00  0.00    +0.000 A 
ATOM      8  C   UNL     1       6.231   4.818  17.306  0.00  0.00    +0.000 A 
ATOM      9  C   UNL     1       7.246   4.610  16.359  0.00  0.00    +0.000 A 
ATOM     10  C   UNL     1       6.954   4.495  15.003  0.00  0.00    +0.000 A 
ATOM     11  C   UNL     1       5.638   4.594  14.576  0.00  0.00    +0.000 A 
ATOM     12  C   UNL     1       4.618   4.824  15.504  0.00  0.00    +0.000 A 
ATOM     13  C   UNL     1       4.880   4.947  16.891  0.00  0.00    +0.000 A 
ATOM     14  N   UNL     1       3.342   5.647  20.246  0.00  0.00    +0.000 N 
ATOM     15  C   UNL     1       2.391   6.635  20.148  0.00  0.00    +0.000 C 
ATOM     16  O   UNL     1       1.641   6.870  21.100  0.00  0.00    +0.000 OA
ATOM     17  H   UNL     1       3.520   5.351  21.197  0.00  0.00    +0.000 HD
ENDROOT
BRANCH   1  20
ATOM     18  C   UNL     1       1.718   9.821  18.351  0.00  0.00    +0.000 C 
ATOM     19  O   UNL     1       2.387   9.861  17.322  0.00  0.00    +0.000 OA
ATOM     20  N   UNL     1       1.597   8.695  19.122  0.00  0.00    +0.000 N 
ATOM     21  H   UNL     1       1.128   8.744  20.024  0.00  0.00    +0.000 HD
BRANCH  18  22
ATOM     22  C   UNL     1       0.949  11.023  18.853  0.00  0.00    +0.000 C 
BRANCH  22  24
ATOM     23  C   UNL     1      -1.088  12.323  18.034  0.00  0.00    +0.000 C 
ATOM     24  C   UNL     1      -0.559  10.977  18.546  0.00  0.00    +0.000 C 
ATOM     25  C   UNL     1      -1.369  10.524  19.768  0.00  0.00    +0.000 C 
BRANCH  24  26
ATOM     26  N   UNL     1      -0.764   9.993  17.463  0.00  0.00    +0.000 NA
ATOM     27  H   UNL     1       0.068   9.950  16.875  0.00  0.00    +0.000 HD
ATOM     28  H   UNL     1      -1.519  10.304  16.851  0.00  0.00    +0.000 HD
ENDBRANCH  24  26
ENDBRANCH  22  24
ENDBRANCH  18  22
ENDBRANCH   1  20
TORSDOF 4
ENDMDL
MODEL 2
REMARK VINA RESULT:      -6.8      2.432      4.144
REMARK  Name = 
REMARK  6 active torsions:
REMARK  status: ('A' for Active; 'I' for Inactive)
REMARK    1  A    between atoms: C_1  and  C_2
REMARK    2  A    between atoms: C_2  and  C_3
REMARK    3  A    between atoms: C_2  and  N_4
REMARK    4  A    between atoms: C_2  and  C_5
REMARK    5  A    between atoms: C_5  and  C_6
REMARK    6  A    between atoms: N_8  and  C_9
REMARK                            x       y       z     vdW  Elec       q    Type
REMARK                         _______ _______ _______ _____ _____    ______ ____
ROOT
ATOM      1  C   UNL     1       0.902   9.018  18.181  0.00  0.00    +0.000 C 
ATOM      2  C   UNL     1       0.727   8.660  19.657  0.00  0.00    +0.000 C 
ATOM      3  C   UNL     1       1.882   7.848  20.236  0.00  0.00    +0.000 C 
ATOM      4  C   UNL     1       2.357   6.752  19.301  0.00  0.00    +0.000 A 
ATOM      5  C   UNL     1       3.120   7.135  18.174  0.00  0.00    +0.000 A 
ATOM      6  C   UNL     1       3.694   6.181  17.342  0.00  0.00    +0.000 A 
ATOM      7  C   UNL     1       3.430   4.832  17.558  0.00  0.00    +0.000 A 
ATOM      8  C   UNL     1       2.640   4.414  18.636  0.00  0.00    +0.000 A 
ATOM      9  C   UNL     1       2.387   3.046  18.818  0.00  0.00    +0.000 A 
ATOM     10  C   UNL     1       1.638   2.589  19.899  0.00  0.00    +0.000 A 
ATOM     11  C   UNL     1       1.128   3.500  20.812  0.00  0.00    +0.000 A 
ATOM     12  C   UNL     1       1.352   4.868  20.632  0.00  0.00    +0.000 A 
ATOM     13  C   UNL     1       2.106   5.368  19.543  0.00  0.00    +0.000 A 
ATOM     14  N   UNL     1       3.315   8.485  17.830  0.00  0.00    +0.000 N 
ATOM     15  C   UNL     1       2.340   9.455  17.841  0.00  0.00    +0.000 C 
ATOM     16  O   UNL     1       2.611  10.610  17.502  0.00  0.00    +0.000 OA
ATOM     17  H   UNL     1       4.135   8.745  17.298  0.00  0.00    +0.000 HD
ENDROOT
BRANCH   1  20
ATOM     18  C   UNL     1      -0.919  10.639  18.616  0.00  0.00    +0.000 C 
ATOM     19  O   UNL     1      -0.940  10.404  19.821  0.00  0.00    +0.000 OA
ATOM     20  N   UNL     1      -0.013  10.071  17.757  0.00  0.00    +0.000 N 
ATOM     21  H   UNL     1      -0.109  10.208  16.753  0.00  0.00    +0.000 HD
BRANCH  18  22
ATOM     22  C   UNL     1      -1.892  11.600  17.971  0.00  0.00    +0.000 C 
BRANCH  22  24
ATOM     23  C   UNL     1      -2.851  10.886  15.716  0.00  0.00    +0.000 C 
ATOM     24  C   UNL     1      -3.059  10.914  17.237  0.00  0.00    +0.000 C 
ATOM     25  C   UNL     1      -4.403  11.576  17.571  0.00  0.00    +0.000 C 
BRANCH  24  26
ATOM     26  N   UNL     1      -3.108   9.510  17.691  0.00  0.00    +0.000 NA
ATOM     27  H   UNL     1      -2.944   8.885  16.900  0.00  0.00    +0.000 HD
ATOM     28  H   UNL     1      -4.046   9.287  18.027  0.00  0.00    +0.000 HD
ENDBRANCH  24  26
ENDBRANCH  22  24
ENDBRANCH  18  22
ENDBRANCH   1  20
TORSDOF 4
ENDMDL
MODEL 3
REMARK VINA RESULT:      -6.7      1.161      1.295
REMARK  Name = 
REMARK  6 active torsions:
REMARK  status: ('A' for Active; 'I' for Inactive)
REMARK    1  A    between atoms: C_1  and  C_2
REMARK    2  A    between atoms: C_2  and  C_3
REMARK    3  A    between atoms: C_2  and  N_4
REMARK    4  A    between atoms: C_2  and  C_5
REMARK    5  A    between atoms: C_5  and  C_6
REMARK    6  A    between atoms: N_8  and  C_9
REMARK                            x       y       z     vdW  Elec       q    Type
REMARK                         _______ _______ _______ _____ _____    ______ ____
ROOT
ATOM      1  C   UNL     1       2.623   6.358  18.974  0.00  0.00    +0.000 C 
ATOM      2  C   UNL     1       2.080   5.581  17.774  0.00  0.00    +0.000 C 
ATOM      3  C   UNL     1       2.861   4.307  17.460  0.00  0.00    +0.000 C 
ATOM      4  C   UNL     1       4.362   4.502  17.548  0.00  0.00    +0.000 A 
ATOM      5  C   UNL     1       4.937   4.601  18.835  0.00  0.00    +0.000 A 
ATOM      6  C   UNL     1       6.317   4.655  18.999  0.00  0.00    +0.000 A 
ATOM      7  C   UNL     1       7.140   4.717  17.879  0.00  0.00    +0.000 A 
ATOM      8  C   UNL     1       6.606   4.669  16.586  0.00  0.00    +0.000 A 
ATOM      9  C   UNL     1       7.466   4.744  15.479  0.00  0.00    +0.000 A 
ATOM     10  C   UNL     1       6.976   4.661  14.179  0.00  0.00    +0.000 A 
ATOM     11  C   UNL     1       5.614   4.506  13.970  0.00  0.00    +0.000 A 
ATOM     12  C   UNL     1       4.741   4.454  15.061  0.00  0.00    +0.000 A 
ATOM     13  C   UNL     1       5.205   4.537  16.396  0.00  0.00    +0.000 A 
ATOM     14  N   UNL     1       4.151   4.672  19.999  0.00  0.00    +0.000 N 
ATOM     15  C   UNL     1       3.020   5.441  20.146  0.00  0.00    +0.000 C 
ATOM     16  O   UNL     1       2.411   5.447  21.220  0.00  0.00    +0.000 OA
ATOM     17  H   UNL     1       4.541   4.358  20.878  0.00  0.00    +0.000 HD
ENDROOT
BRANCH   1  20
ATOM     18  C   UNL     1       1.694   8.653  19.042  0.00  0.00    +0.000 C 
ATOM     19  O   UNL     1       2.418   9.052  18.135  0.00  0.00    +0.000 OA
ATOM     20  N   UNL     1       1.672   7.349  19.465  0.00  0.00    +0.000 N 
ATOM     21  H   UNL     1       1.142   7.092  20.294  0.00  0.00    +0.000 HD
BRANCH  18  22
ATOM     22  C   UNL     1       0.741   9.575  19.770  0.00  0.00    +0.000 C 
BRANCH  22  24
ATOM     23  C   UNL     1      -1.009  11.426  19.625  0.00  0.00    +0.000 C 
ATOM     24  C   UNL     1      -0.026  10.540  18.848  0.00  0.00    +0.000 C 
ATOM     25  C   UNL     1      -0.766   9.786  17.734  0.00  0.00    +0.000 C 
BRANCH  24  26
ATOM     26  N   UNL     1       0.962  11.440  18.221  0.00  0.00    +0.000 NA
ATOM     27  H   UNL     1       0.488  12.088  17.592  0.00  0.00    +0.000 HD
ATOM     28  H   UNL     1       1.598  10.900  17.632  0.00  0.00    +0.000 HD
ENDBRANCH  24  26
ENDBRANCH  22  24
ENDBRANCH  18  22
ENDBRANCH   1  20
TORSDOF 4
ENDMDL
MODEL 4
REMARK VINA RESULT:      -6.7      1.072      1.355
REMARK  Name = 
REMARK  6 active torsions:
REMARK  status: ('A' for Active; 'I' for Inactive)
REMARK    1  A    between atoms: C_1  and  C_2
REMARK    2  A    between atoms: C_2  and  C_3
REMARK    3  A    between atoms: C_2  and  N_4
REMARK    4  A    between atoms: C_2  and  C_5
REMARK    5  A    between atoms: C_5  and  C_6
REMARK    6  A    between atoms: N_8  and  C_9
REMARK                            x       y       z     vdW  Elec       q    Type
REMARK                         _______ _______ _______ _____ _____    ______ ____
ROOT
ATOM      1  C   UNL     1       2.247   6.904  18.552  0.00  0.00    +0.000 C 
ATOM      2  C   UNL     1       1.862   5.844  17.519  0.00  0.00    +0.000 C 
ATOM      3  C   UNL     1       2.726   4.586  17.575  0.00  0.00    +0.000 C 
ATOM      4  C   UNL     1       4.200   4.893  17.749  0.00  0.00    +0.000 A 
ATOM      5  C   UNL     1       4.638   5.316  19.025  0.00  0.00    +0.000 A 
ATOM      6  C   UNL     1       5.990   5.495  19.294  0.00  0.00    +0.000 A 
ATOM      7  C   UNL     1       6.919   5.359  18.267  0.00  0.00    +0.000 A 
ATOM      8  C   UNL     1       6.520   4.988  16.976  0.00  0.00    +0.000 A 
ATOM      9  C   UNL     1       7.484   4.869  15.963  0.00  0.00    +0.000 A 
ATOM     10  C   UNL     1       7.133   4.465  14.678  0.00  0.00    +0.000 A 
ATOM     11  C   UNL     1       5.807   4.179  14.390  0.00  0.00    +0.000 A 
ATOM     12  C   UNL     1       4.831   4.315  15.382  0.00  0.00    +0.000 A 
ATOM     13  C   UNL     1       5.153   4.726  16.699  0.00  0.00    +0.000 A 
ATOM     14  N   UNL     1       3.735   5.594  20.067  0.00  0.00    +0.000 N 
ATOM     15  C   UNL     1       2.562   6.300  19.934  0.00  0.00    +0.000 C 
ATOM     16  O   UNL     1       1.848   6.507  20.919  0.00  0.00    +0.000 OA
ATOM     17  H   UNL     1       4.048   5.511  21.026  0.00  0.00    +0.000 HD
ENDROOT
BRANCH   1  20
ATOM     18  C   UNL     1       1.339   9.184  18.213  0.00  0.00    +0.000 C 
ATOM     19  O   UNL     1       2.266   9.524  17.483  0.00  0.00    +0.000 OA
ATOM     20  N   UNL     1       1.208   7.915  18.716  0.00  0.00    +0.000 N 
ATOM     21  H   UNL     1       0.490   7.714  19.408  0.00  0.00    +0.000 HD
BRANCH  18  22
ATOM     22  C   UNL     1       0.241  10.144  18.611  0.00  0.00    +0.000 C 
BRANCH  22  24
ATOM     23  C   UNL     1      -0.875  11.244  20.625  0.00  0.00    +0.000 C 
ATOM     24  C   UNL     1       0.449  10.798  19.989  0.00  0.00    +0.000 C 
ATOM     25  C   UNL     1       1.420  11.985  19.909  0.00  0.00    +0.000 C 
BRANCH  24  26
ATOM     26  N   UNL     1       1.035   9.780  20.884  0.00  0.00    +0.000 NA
ATOM     27  H   UNL     1       1.982   9.555  20.576  0.00  0.00    +0.000 HD
ATOM     28  H   UNL     1       0.507   8.909  20.811  0.00  0.00    +0.000 HD
ENDBRANCH  24  26
ENDBRANCH  22  24
ENDBRANCH  18  22
ENDBRANCH   1  20
TORSDOF 4
ENDMDL
MODEL 5
REMARK VINA RESULT:      -6.7      2.727      4.415
REMARK  Name = 
REMARK  6 active torsions:
REMARK  status: ('A' for Active; 'I' for Inactive)
REMARK    1  A    between atoms: C_1  and  C_2
REMARK    2  A    between atoms: C_2  and  C_3
REMARK    3  A    between atoms: C_2  and  N_4
REMARK    4  A    between atoms: C_2  and  C_5
REMARK    5  A    between atoms: C_5  and  C_6
REMARK    6  A    between atoms: N_8  and  C_9
REMARK                            x       y       z     vdW  Elec       q    Type
REMARK                         _______ _______ _______ _____ _____    ______ ____
ROOT
ATOM      1  C   UNL     1       0.259   9.469  19.179  0.00  0.00    +0.000 C 
ATOM      2  C   UNL     1       0.378   8.912  20.599  0.00  0.00    +0.000 C 
ATOM      3  C   UNL     1       1.689   8.178  20.865  0.00  0.00    +0.000 C 
ATOM      4  C   UNL     1       2.099   7.272  19.720  0.00  0.00    +0.000 A 
ATOM      5  C   UNL     1       2.614   7.880  18.553  0.00  0.00    +0.000 A 
ATOM      6  C   UNL     1       3.125   7.112  17.513  0.00  0.00    +0.000 A 
ATOM      7  C   UNL     1       3.034   5.725  17.574  0.00  0.00    +0.000 A 
ATOM      8  C   UNL     1       2.487   5.085  18.693  0.00  0.00    +0.000 A 
ATOM      9  C   UNL     1       2.403   3.684  18.715  0.00  0.00    +0.000 A 
ATOM     10  C   UNL     1       1.900   3.011  19.825  0.00  0.00    +0.000 A 
ATOM     11  C   UNL     1       1.470   3.734  20.927  0.00  0.00    +0.000 A 
ATOM     12  C   UNL     1       1.526   5.130  20.911  0.00  0.00    +0.000 A 
ATOM     13  C   UNL     1       2.028   5.848  19.799  0.00  0.00    +0.000 A 
ATOM     14  N   UNL     1       2.615   9.276  18.379  0.00  0.00    +0.000 N 
ATOM     15  C   UNL     1       1.568  10.114  18.682  0.00  0.00    +0.000 C 
ATOM     16  O   UNL     1       1.663  11.326  18.472  0.00  0.00    +0.000 OA
ATOM     17  H   UNL     1       3.302   9.696  17.765  0.00  0.00    +0.000 HD
ENDROOT
BRANCH   1  20
ATOM     18  C   UNL     1      -1.579  10.561  17.929  0.00  0.00    +0.000 C 
ATOM     19  O   UNL     1      -1.513   9.768  16.994  0.00  0.00    +0.000 OA
ATOM     20  N   UNL     1      -0.813  10.451  19.061  0.00  0.00    +0.000 N 
ATOM     21  H   UNL     1      -0.821  11.195  19.755  0.00  0.00    +0.000 HD
BRANCH  18  22
ATOM     22  C   UNL     1      -2.536  11.732  17.919  0.00  0.00    +0.000 C 
BRANCH  22  24
ATOM     23  C   UNL     1      -4.670  11.609  16.525  0.00  0.00    +0.000 C 
ATOM     24  C   UNL     1      -4.022  11.329  17.888  0.00  0.00    +0.000 C 
ATOM     25  C   UNL     1      -4.818  12.023  19.002  0.00  0.00    +0.000 C 
BRANCH  24  26
ATOM     26  N   UNL     1      -4.094   9.870  18.107  0.00  0.00    +0.000 NA
ATOM     27  H   UNL     1      -3.580   9.385  17.371  0.00  0.00    +0.000 HD
ATOM     28  H   UNL     1      -5.061   9.554  18.022  0.00  0.00    +0.000 HD
ENDBRANCH  24  26
ENDBRANCH  22  24
ENDBRANCH  18  22
ENDBRANCH   1  20
TORSDOF 4
ENDMDL
MODEL 6
REMARK VINA RESULT:      -6.6      1.691      2.100
REMARK  Name = 
REMARK  6 active torsions:
REMARK  status: ('A' for Active; 'I' for Inactive)
REMARK    1  A    between atoms: C_1  and  C_2
REMARK    2  A    between atoms: C_2  and  C_3
REMARK    3  A    between atoms: C_2  and  N_4
REMARK    4  A    between atoms: C_2  and  C_5
REMARK    5  A    between atoms: C_5  and  C_6
REMARK    6  A    between atoms: N_8  and  C_9
REMARK                            x       y       z     vdW  Elec       q    Type
REMARK                         _______ _______ _______ _____ _____    ______ ____
ROOT
ATOM      1  C   UNL     1       2.586   6.222  18.763  0.00  0.00    +0.000 C 
ATOM      2  C   UNL     1       2.116   5.282  17.652  0.00  0.00    +0.000 C 
ATOM      3  C   UNL     1       3.028   4.077  17.437  0.00  0.00    +0.000 C 
ATOM      4  C   UNL     1       4.500   4.440  17.472  0.00  0.00    +0.000 A 
ATOM      5  C   UNL     1       5.078   4.721  18.732  0.00  0.00    +0.000 A 
ATOM      6  C   UNL     1       6.445   4.939  18.858  0.00  0.00    +0.000 A 
ATOM      7  C   UNL     1       7.242   4.985  17.719  0.00  0.00    +0.000 A 
ATOM      8  C   UNL     1       6.699   4.759  16.447  0.00  0.00    +0.000 A 
ATOM      9  C   UNL     1       7.532   4.823  15.319  0.00  0.00    +0.000 A 
ATOM     10  C   UNL     1       7.037   4.567  14.044  0.00  0.00    +0.000 A 
ATOM     11  C   UNL     1       5.698   4.247  13.881  0.00  0.00    +0.000 A 
ATOM     12  C   UNL     1       4.850   4.202  14.992  0.00  0.00    +0.000 A 
ATOM     13  C   UNL     1       5.319   4.460  16.303  0.00  0.00    +0.000 A 
ATOM     14  N   UNL     1       4.303   4.814  19.902  0.00  0.00    +0.000 N 
ATOM     15  C   UNL     1       3.096   5.466  20.005  0.00  0.00    +0.000 C 
ATOM     16  O   UNL     1       2.504   5.506  21.087  0.00  0.00    +0.000 OA
ATOM     17  H   UNL     1       4.737   4.627  20.797  0.00  0.00    +0.000 HD
ENDROOT
BRANCH   1  20
ATOM     18  C   UNL     1       1.650   8.501  19.015  0.00  0.00    +0.000 C 
ATOM     19  O   UNL     1       2.567   9.026  18.390  0.00  0.00    +0.000 OA
ATOM     20  N   UNL     1       1.538   7.145  19.183  0.00  0.00    +0.000 N 
ATOM     21  H   UNL     1       0.828   6.767  19.806  0.00  0.00    +0.000 HD
BRANCH  18  22
ATOM     22  C   UNL     1       0.545   9.315  19.650  0.00  0.00    +0.000 C 
BRANCH  22  24
ATOM     23  C   UNL     1      -0.570   8.463  21.781  0.00  0.00    +0.000 C 
ATOM     24  C   UNL     1       0.565   9.309  21.189  0.00  0.00    +0.000 C 
ATOM     25  C   UNL     1       0.511  10.733  21.760  0.00  0.00    +0.000 C 
BRANCH  24  26
ATOM     26  N   UNL     1       1.834   8.687  21.617  0.00  0.00    +0.000 NA
ATOM     27  H   UNL     1       1.660   7.733  21.935  0.00  0.00    +0.000 HD
ATOM     28  H   UNL     1       2.208   9.183  22.427  0.00  0.00    +0.000 HD
ENDBRANCH  24  26
ENDBRANCH  22  24
ENDBRANCH  18  22
ENDBRANCH   1  20
TORSDOF 4
ENDMDL
MODEL 7
REMARK VINA RESULT:      -6.4      3.794      6.174
REMARK  Name = 
REMARK  6 active torsions:
REMARK  status: ('A' for Active; 'I' for Inactive)
REMARK    1  A    between atoms: C_1  and  C_2
REMARK    2  A    between atoms: C_2  and  C_3
REMARK    3  A    between atoms: C_2  and  N_4
REMARK    4  A    between atoms: C_2  and  C_5
REMARK    5  A    between atoms: C_5  and  C_6
REMARK    6  A    between atoms: N_8  and  C_9
REMARK                            x       y       z     vdW  Elec       q    Type
REMARK                         _______ _______ _______ _____ _____    ______ ____
ROOT
ATOM      1  C   UNL     1      -1.366  11.350  18.902  0.00  0.00    +0.000 C 
ATOM      2  C   UNL     1      -1.218  10.906  20.359  0.00  0.00    +0.000 C 
ATOM      3  C   UNL     1       0.225  10.641  20.779  0.00  0.00    +0.000 C 
ATOM      4  C   UNL     1       1.012   9.879  19.730  0.00  0.00    +0.000 A 
ATOM      5  C   UNL     1       1.421  10.584  18.575  0.00  0.00    +0.000 A 
ATOM      6  C   UNL     1       2.250   9.988  17.631  0.00  0.00    +0.000 A 
ATOM      7  C   UNL     1       2.598   8.649  17.769  0.00  0.00    +0.000 A 
ATOM      8  C   UNL     1       2.174   7.902  18.876  0.00  0.00    +0.000 A 
ATOM      9  C   UNL     1       2.537   6.550  18.978  0.00  0.00    +0.000 A 
ATOM     10  C   UNL     1       2.167   5.786  20.081  0.00  0.00    +0.000 A 
ATOM     11  C   UNL     1       1.423   6.367  21.097  0.00  0.00    +0.000 A 
ATOM     12  C   UNL     1       1.033   7.706  20.999  0.00  0.00    +0.000 A 
ATOM     13  C   UNL     1       1.390   8.512  19.891  0.00  0.00    +0.000 A 
ATOM     14  N   UNL     1       0.996  11.899  18.316  0.00  0.00    +0.000 N 
ATOM     15  C   UNL     1      -0.288  12.365  18.478  0.00  0.00    +0.000 C 
ATOM     16  O   UNL     1      -0.562  13.536  18.202  0.00  0.00    +0.000 OA
ATOM     17  H   UNL     1       1.572  12.498  17.737  0.00  0.00    +0.000 HD
ENDROOT
BRANCH   1  20
ATOM     18  C   UNL     1      -3.678  11.218  18.024  0.00  0.00    +0.000 C 
ATOM     19  O   UNL     1      -3.596  10.018  17.779  0.00  0.00    +0.000 OA
ATOM     20  N   UNL     1      -2.677  11.930  18.634  0.00  0.00    +0.000 N 
ATOM     21  H   UNL     1      -2.746  12.942  18.709  0.00  0.00    +0.000 HD
BRANCH  18  22
ATOM     22  C   UNL     1      -4.913  12.022  17.682  0.00  0.00    +0.000 C 
BRANCH  22  24
ATOM     23  C   UNL     1      -7.363  12.528  18.184  0.00  0.00    +0.000 C 
ATOM     24  C   UNL     1      -6.096  11.793  18.641  0.00  0.00    +0.000 C 
ATOM     25  C   UNL     1      -5.743  12.199  20.079  0.00  0.00    +0.000 C 
BRANCH  24  26
ATOM     26  N   UNL     1      -6.407  10.350  18.630  0.00  0.00    +0.000 NA
ATOM     27  H   UNL     1      -5.969   9.897  19.433  0.00  0.00    +0.000 HD
ATOM     28  H   UNL     1      -5.992   9.912  17.807  0.00  0.00    +0.000 HD
ENDBRANCH  24  26
ENDBRANCH  22  24
ENDBRANCH  18  22
ENDBRANCH   1  20
TORSDOF 4
ENDMDL
MODEL 8
REMARK VINA RESULT:      -6.1      4.766      7.101
REMARK  Name = 
REMARK  6 active torsions:
REMARK  status: ('A' for Active; 'I' for Inactive)
REMARK    1  A    between atoms: C_1  and  C_2
REMARK    2  A    between atoms: C_2  and  C_3
REMARK    3  A    between atoms: C_2  and  N_4
REMARK    4  A    between atoms: C_2  and  C_5
REMARK    5  A    between atoms: C_5  and  C_6
REMARK    6  A    between atoms: N_8  and  C_9
REMARK                            x       y       z     vdW  Elec       q    Type
REMARK                         _______ _______ _______ _____ _____    ______ ____
ROOT
ATOM      1  C   UNL     1       0.528  13.347  20.752  0.00  0.00    +0.000 C 
ATOM      2  C   UNL     1       0.266  13.013  19.282  0.00  0.00    +0.000 C 
ATOM      3  C   UNL     1      -0.434  11.674  19.070  0.00  0.00    +0.000 C 
ATOM      4  C   UNL     1       0.124  10.572  19.951  0.00  0.00    +0.000 A 
ATOM      5  C   UNL     1      -0.214  10.593  21.323  0.00  0.00    +0.000 A 
ATOM      6  C   UNL     1       0.156   9.552  22.166  0.00  0.00    +0.000 A 
ATOM      7  C   UNL     1       0.959   8.526  21.679  0.00  0.00    +0.000 A 
ATOM      8  C   UNL     1       1.356   8.493  20.336  0.00  0.00    +0.000 A 
ATOM      9  C   UNL     1       2.174   7.447  19.882  0.00  0.00    +0.000 A 
ATOM     10  C   UNL     1       2.557   7.360  18.547  0.00  0.00    +0.000 A 
ATOM     11  C   UNL     1       2.128   8.325  17.648  0.00  0.00    +0.000 A 
ATOM     12  C   UNL     1       1.332   9.386  18.089  0.00  0.00    +0.000 A 
ATOM     13  C   UNL     1       0.925   9.507  19.440  0.00  0.00    +0.000 A 
ATOM     14  N   UNL     1      -0.915  11.667  21.901  0.00  0.00    +0.000 N 
ATOM     15  C   UNL     1      -0.664  12.998  21.663  0.00  0.00    +0.000 C 
ATOM     16  O   UNL     1      -1.326  13.866  22.238  0.00  0.00    +0.000 OA
ATOM     17  H   UNL     1      -1.468  11.504  22.733  0.00  0.00    +0.000 HD
ENDROOT
BRANCH   1  20
ATOM     18  C   UNL     1       1.931  15.153  21.705  0.00  0.00    +0.000 C 
ATOM     19  O   UNL     1       2.756  14.369  22.165  0.00  0.00    +0.000 OA
ATOM     20  N   UNL     1       0.861  14.754  20.945  0.00  0.00    +0.000 N 
ATOM     21  H   UNL     1       0.143  15.427  20.686  0.00  0.00    +0.000 HD
BRANCH  18  22
ATOM     22  C   UNL     1       2.033  16.645  21.927  0.00  0.00    +0.000 C 
BRANCH  22  24
ATOM     23  C   UNL     1       0.105  18.155  22.644  0.00  0.00    +0.000 C 
ATOM     24  C   UNL     1       1.184  17.164  23.102  0.00  0.00    +0.000 C 
ATOM     25  C   UNL     1       2.058  17.804  24.190  0.00  0.00    +0.000 C 
BRANCH  24  26
ATOM     26  N   UNL     1       0.483  16.007  23.693  0.00  0.00    +0.000 NA
ATOM     27  H   UNL     1       1.104  15.522  24.341  0.00  0.00    +0.000 HD
ATOM     28  H   UNL     1       0.259  15.328  22.964  0.00  0.00    +0.000 HD
ENDBRANCH  24  26
ENDBRANCH  22  24
ENDBRANCH  18  22
ENDBRANCH   1  20
TORSDOF 4
ENDMDL
MODEL 9
REMARK VINA RESULT:      -6.0      8.479      9.733
REMARK  Name = 
REMARK  6 active torsions:
REMARK  status: ('A' for Active; 'I' for Inactive)
REMARK    1  A    between atoms: C_1  and  C_2
REMARK    2  A    between atoms: C_2  and  C_3
REMARK    3  A    between atoms: C_2  and  N_4
REMARK    4  A    between atoms: C_2  and  C_5
REMARK    5  A    between atoms: C_5  and  C_6
REMARK    6  A    between atoms: N_8  and  C_9
REMARK                            x       y       z     vdW  Elec       q    Type
REMARK                         _______ _______ _______ _____ _____    ______ ____
ROOT
ATOM      1  C   UNL     1       6.431  15.457  19.752  0.00  0.00    +0.000 C 
ATOM      2  C   UNL     1       7.133  14.998  21.031  0.00  0.00    +0.000 C 
ATOM      3  C   UNL     1       8.623  15.328  21.068  0.00  0.00    +0.000 C 
ATOM      4  C   UNL     1       9.319  15.055  19.749  0.00  0.00    +0.000 A 
ATOM      5  C   UNL     1       9.091  15.958  18.686  0.00  0.00    +0.000 A 
ATOM      6  C   UNL     1       9.788  15.844  17.489  0.00  0.00    +0.000 A 
ATOM      7  C   UNL     1      10.647  14.767  17.294  0.00  0.00    +0.000 A 
ATOM      8  C   UNL     1      10.864  13.823  18.306  0.00  0.00    +0.000 A 
ATOM      9  C   UNL     1      11.730  12.744  18.069  0.00  0.00    +0.000 A 
ATOM     10  C   UNL     1      12.001  11.807  19.063  0.00  0.00    +0.000 A 
ATOM     11  C   UNL     1      11.403  11.937  20.307  0.00  0.00    +0.000 A 
ATOM     12  C   UNL     1      10.520  12.994  20.551  0.00  0.00    +0.000 A 
ATOM     13  C   UNL     1      10.220  13.963  19.563  0.00  0.00    +0.000 A 
ATOM     14  N   UNL     1       8.141  16.992  18.778  0.00  0.00    +0.000 N 
ATOM     15  C   UNL     1       6.876  16.862  19.301  0.00  0.00    +0.000 C 
ATOM     16  O   UNL     1       6.109  17.829  19.317  0.00  0.00    +0.000 OA
ATOM     17  H   UNL     1       8.259  17.822  18.211  0.00  0.00    +0.000 HD
ENDROOT
BRANCH   1  20
ATOM     18  C   UNL     1       4.151  15.029  18.884  0.00  0.00    +0.000 C 
ATOM     19  O   UNL     1       4.562  14.501  17.855  0.00  0.00    +0.000 OA
ATOM     20  N   UNL     1       4.979  15.455  19.890  0.00  0.00    +0.000 N 
ATOM     21  H   UNL     1       4.600  15.990  20.669  0.00  0.00    +0.000 HD
BRANCH  18  22
ATOM     22  C   UNL     1       2.676  15.244  19.139  0.00  0.00    +0.000 C 
BRANCH  22  24
ATOM     23  C   UNL     1       2.162  17.479  20.258  0.00  0.00    +0.000 C 
ATOM     24  C   UNL     1       2.209  16.697  18.938  0.00  0.00    +0.000 C 
ATOM     25  C   UNL     1       0.842  16.759  18.242  0.00  0.00    +0.000 C 
BRANCH  24  26
ATOM     26  N   UNL     1       3.200  17.370  18.074  0.00  0.00    +0.000 NA
ATOM     27  H   UNL     1       4.143  17.167  18.408  0.00  0.00    +0.000 HD
ATOM     28  H   UNL     1       3.094  18.382  18.148  0.00  0.00    +0.000 HD
ENDBRANCH  24  26
ENDBRANCH  22  24
ENDBRANCH  18  22
ENDBRANCH   1  20
TORSDOF 4
ENDMDL
