MODEL 1
REMARK VINA RESULT:      -7.4      0.000      0.000
REMARK  Name = 
REMARK  6 active torsions:
REMARK  status: ('A' for Active; 'I' for Inactive)
REMARK    1  A    between atoms: C_1  and  C_2
REMARK    2  A    between atoms: C_5  and  C_6
REMARK    3  A    between atoms: C_7  and  C_8
REMARK    4  A    between atoms: C_8  and  C_9
REMARK    5  A    between atoms: C_9  and  C_10
REMARK    6  A    between atoms: C_12  and  C_13
REMARK                            x       y       z     vdW  Elec       q    Type
REMARK                         _______ _______ _______ _____ _____    ______ ____
ROOT
ATOM      1  C   UNL     1       3.348   4.850  17.901  0.00  0.00    +0.000 A 
ATOM      2  N   UNL     1       2.623   5.939  17.798  0.00  0.00    +0.000 NA
ATOM      3  C   UNL     1       2.647   6.442  19.084  0.00  0.00    +0.000 A 
ATOM      4  N   UNL     1       3.333   5.675  19.949  0.00  0.00    +0.000 NA
ATOM      5  O   UNL     1       3.807   4.629  19.166  0.00  0.00    +0.000 OA
ENDROOT
BRANCH   3   6
ATOM      6  C   UNL     1       2.007   7.704  19.445  0.00  0.00    +0.000 A 
ATOM      7  C   UNL     1       1.542   7.917  20.751  0.00  0.00    +0.000 A 
ATOM      8  C   UNL     1       0.932   9.126  21.105  0.00  0.00    +0.000 A 
ATOM      9  C   UNL     1       0.780  10.130  20.150  0.00  0.00    +0.000 A 
ATOM     10 CL   UNL     1       0.043  11.622  20.587  0.00  0.00    +0.000 Cl
ATOM     11  C   UNL     1       1.225   9.933  18.846  0.00  0.00    +0.000 A 
ATOM     12  C   UNL     1       1.836   8.724  18.494  0.00  0.00    +0.000 A 
ENDBRANCH   3   6
BRANCH   1  13
ATOM     13  C   UNL     1       3.785   3.911  16.836  0.00  0.00    +0.000 C 
BRANCH  13  14
ATOM     14  C   UNL     1       5.255   3.500  16.960  0.00  0.00    +0.000 C 
BRANCH  14  21
ATOM     15  C   UNL     1       6.980   5.885  18.367  0.00  0.00    +0.000 C 
ATOM     16  C   UNL     1       6.929   5.514  16.932  0.00  0.00    +0.000 A 
ATOM     17  N   UNL     1       7.650   6.200  16.040  0.00  0.00    +0.000 NA
ATOM     18  O   UNL     1       7.385   5.623  14.817  0.00  0.00    +0.000 OA
ATOM     19  C   UNL     1       6.511   4.594  14.975  0.00  0.00    +0.000 A 
ATOM     20  C   UNL     1       6.132   3.881  13.741  0.00  0.00    +0.000 C 
ATOM     21  C   UNL     1       6.181   4.473  16.311  0.00  0.00    +0.000 A 
ENDBRANCH  14  21
ENDBRANCH  13  14
ENDBRANCH   1  13
TORSDOF 4
ENDMDL
MODEL 2
REMARK VINA RESULT:      -7.4      0.125      1.061
REMARK  Name = 
REMARK  6 active torsions:
REMARK  status: ('A' for Active; 'I' for Inactive)
REMARK    1  A    between atoms: C_1  and  C_2
REMARK    2  A    between atoms: C_5  and  C_6
REMARK    3  A    between atoms: C_7  and  C_8
REMARK    4  A    between atoms: C_8  and  C_9
REMARK    5  A    between atoms: C_9  and  C_10
REMARK    6  A    between atoms: C_12  and  C_13
REMARK                            x       y       z     vdW  Elec       q    Type
REMARK                         _______ _______ _______ _____ _____    ______ ____
ROOT
ATOM      1  C   UNL     1       3.360   4.845  17.962  0.00  0.00    +0.000 A 
ATOM      2  N   UNL     1       2.636   5.930  17.815  0.00  0.00    +0.000 NA
ATOM      3  C   UNL     1       2.647   6.477  19.083  0.00  0.00    +0.000 A 
ATOM      4  N   UNL     1       3.324   5.741  19.980  0.00  0.00    +0.000 NA
ATOM      5  O   UNL     1       3.806   4.669  19.238  0.00  0.00    +0.000 OA
ENDROOT
BRANCH   3   6
ATOM      6  C   UNL     1       2.003   7.751  19.393  0.00  0.00    +0.000 A 
ATOM      7  C   UNL     1       1.859   8.734  18.403  0.00  0.00    +0.000 A 
ATOM      8  C   UNL     1       1.240   9.955  18.693  0.00  0.00    +0.000 A 
ATOM      9  C   UNL     1       0.762  10.201  19.979  0.00  0.00    +0.000 A 
ATOM     10 CL   UNL     1      -0.013  11.695  20.333  0.00  0.00    +0.000 Cl
ATOM     11  C   UNL     1       0.906   9.242  20.978  0.00  0.00    +0.000 A 
ATOM     12  C   UNL     1       1.524   8.021  20.686  0.00  0.00    +0.000 A 
ENDBRANCH   3   6
BRANCH   1  13
ATOM     13  C   UNL     1       3.809   3.871  16.935  0.00  0.00    +0.000 C 
BRANCH  13  14
ATOM     14  C   UNL     1       5.285   3.491  17.067  0.00  0.00    +0.000 C 
BRANCH  14  21
ATOM     15  C   UNL     1       6.992   5.883  18.484  0.00  0.00    +0.000 C 
ATOM     16  C   UNL     1       6.934   5.526  17.046  0.00  0.00    +0.000 A 
ATOM     17  N   UNL     1       7.639   6.230  16.156  0.00  0.00    +0.000 NA
ATOM     18  O   UNL     1       7.372   5.662  14.929  0.00  0.00    +0.000 OA
ATOM     19  C   UNL     1       6.512   4.621  15.084  0.00  0.00    +0.000 A 
ATOM     20  C   UNL     1       6.133   3.915  13.845  0.00  0.00    +0.000 C 
ATOM     21  C   UNL     1       6.194   4.482  16.421  0.00  0.00    +0.000 A 
ENDBRANCH  14  21
ENDBRANCH  13  14
ENDBRANCH   1  13
TORSDOF 4
ENDMDL
MODEL 3
REMARK VINA RESULT:      -7.4      0.812      1.904
REMARK  Name = 
REMARK  6 active torsions:
REMARK  status: ('A' for Active; 'I' for Inactive)
REMARK    1  A    between atoms: C_1  and  C_2
REMARK    2  A    between atoms: C_5  and  C_6
REMARK    3  A    between atoms: C_7  and  C_8
REMARK    4  A    between atoms: C_8  and  C_9
REMARK    5  A    between atoms: C_9  and  C_10
REMARK    6  A    between atoms: C_12  and  C_13
REMARK                            x       y       z     vdW  Elec       q    Type
REMARK                         _______ _______ _______ _____ _____    ______ ____
ROOT
ATOM      1  C   UNL     1       3.849   4.821  18.543  0.00  0.00    +0.000 A 
ATOM      2  N   UNL     1       3.413   6.011  18.199  0.00  0.00    +0.000 NA
ATOM      3  C   UNL     1       2.669   6.390  19.299  0.00  0.00    +0.000 A 
ATOM      4  N   UNL     1       2.623   5.457  20.265  0.00  0.00    +0.000 NA
ATOM      5  O   UNL     1       3.413   4.426  19.772  0.00  0.00    +0.000 OA
ENDROOT
BRANCH   3   6
ATOM      6  C   UNL     1       2.024   7.696  19.397  0.00  0.00    +0.000 A 
ATOM      7  C   UNL     1       1.475   8.129  20.613  0.00  0.00    +0.000 A 
ATOM      8  C   UNL     1       0.859   9.381  20.716  0.00  0.00    +0.000 A 
ATOM      9  C   UNL     1       0.786  10.210  19.597  0.00  0.00    +0.000 A 
ATOM     10 CL   UNL     1       0.042  11.755  19.724  0.00  0.00    +0.000 Cl
ATOM     11  C   UNL     1       1.315   9.794  18.378  0.00  0.00    +0.000 A 
ATOM     12  C   UNL     1       1.931   8.542  18.278  0.00  0.00    +0.000 A 
ENDBRANCH   3   6
BRANCH   1  13
ATOM     13  C   UNL     1       4.792   3.926  17.824  0.00  0.00    +0.000 C 
BRANCH  13  14
ATOM     14  C   UNL     1       4.697   4.047  16.301  0.00  0.00    +0.000 C 
BRANCH  14  21
ATOM     15  C   UNL     1       5.904   3.644  13.297  0.00  0.00    +0.000 C 
ATOM     16  C   UNL     1       6.427   4.502  14.387  0.00  0.00    +0.000 A 
ATOM     17  N   UNL     1       7.530   5.229  14.192  0.00  0.00    +0.000 NA
ATOM     18  O   UNL     1       7.754   5.901  15.375  0.00  0.00    +0.000 OA
ATOM     19  C   UNL     1       6.787   5.580  16.274  0.00  0.00    +0.000 A 
ATOM     20  C   UNL     1       6.901   6.227  17.595  0.00  0.00    +0.000 C 
ATOM     21  C   UNL     1       5.904   4.685  15.700  0.00  0.00    +0.000 A 
ENDBRANCH  14  21
ENDBRANCH  13  14
ENDBRANCH   1  13
TORSDOF 4
ENDMDL
MODEL 4
REMARK VINA RESULT:      -7.2      5.332      7.282
REMARK  Name = 
REMARK  6 active torsions:
REMARK  status: ('A' for Active; 'I' for Inactive)
REMARK    1  A    between atoms: C_1  and  C_2
REMARK    2  A    between atoms: C_5  and  C_6
REMARK    3  A    between atoms: C_7  and  C_8
REMARK    4  A    between atoms: C_8  and  C_9
REMARK    5  A    between atoms: C_9  and  C_10
REMARK    6  A    between atoms: C_12  and  C_13
REMARK                            x       y       z     vdW  Elec       q    Type
REMARK                         _______ _______ _______ _____ _____    ______ ____
ROOT
ATOM      1  C   UNL     1       7.912   8.214  17.835  0.00  0.00    +0.000 A 
ATOM      2  N   UNL     1       6.868   7.574  17.359  0.00  0.00    +0.000 NA
ATOM      3  C   UNL     1       6.873   6.401  18.087  0.00  0.00    +0.000 A 
ATOM      4  N   UNL     1       7.897   6.310  18.953  0.00  0.00    +0.000 NA
ATOM      5  O   UNL     1       8.576   7.512  18.796  0.00  0.00    +0.000 OA
ENDROOT
BRANCH   3   6
ATOM      6  C   UNL     1       5.839   5.381  17.938  0.00  0.00    +0.000 A 
ATOM      7  C   UNL     1       5.647   4.739  16.706  0.00  0.00    +0.000 A 
ATOM      8  C   UNL     1       4.661   3.758  16.556  0.00  0.00    +0.000 A 
ATOM      9  C   UNL     1       3.856   3.414  17.642  0.00  0.00    +0.000 A 
ATOM     10 CL   UNL     1       2.653   2.198  17.464  0.00  0.00    +0.000 Cl
ATOM     11  C   UNL     1       4.024   4.048  18.870  0.00  0.00    +0.000 A 
ATOM     12  C   UNL     1       5.012   5.029  19.018  0.00  0.00    +0.000 A 
ENDBRANCH   3   6
BRANCH   1  13
ATOM     13  C   UNL     1       8.388   9.587  17.531  0.00  0.00    +0.000 C 
BRANCH  13  14
ATOM     14  C   UNL     1       9.072  10.266  18.720  0.00  0.00    +0.000 C 
BRANCH  14  21
ATOM     15  C   UNL     1      11.992  11.570  19.369  0.00  0.00    +0.000 C 
ATOM     16  C   UNL     1      10.838  12.201  18.685  0.00  0.00    +0.000 A 
ATOM     17  N   UNL     1      10.927  13.463  18.254  0.00  0.00    +0.000 NA
ATOM     18  O   UNL     1       9.709  13.752  17.677  0.00  0.00    +0.000 OA
ATOM     19  C   UNL     1       8.894  12.666  17.759  0.00  0.00    +0.000 A 
ATOM     20  C   UNL     1       7.547  12.832  17.181  0.00  0.00    +0.000 C 
ATOM     21  C   UNL     1       9.562  11.637  18.396  0.00  0.00    +0.000 A 
ENDBRANCH  14  21
ENDBRANCH  13  14
ENDBRANCH   1  13
TORSDOF 4
ENDMDL
MODEL 5
REMARK VINA RESULT:      -7.2      0.730      2.121
REMARK  Name = 
REMARK  6 active torsions:
REMARK  status: ('A' for Active; 'I' for Inactive)
REMARK    1  A    between atoms: C_1  and  C_2
REMARK    2  A    between atoms: C_5  and  C_6
REMARK    3  A    between atoms: C_7  and  C_8
REMARK    4  A    between atoms: C_8  and  C_9
REMARK    5  A    between atoms: C_9  and  C_10
REMARK    6  A    between atoms: C_12  and  C_13
REMARK                            x       y       z     vdW  Elec       q    Type
REMARK                         _______ _______ _______ _____ _____    ______ ____
ROOT
ATOM      1  C   UNL     1       3.403   4.825  18.127  0.00  0.00    +0.000 A 
ATOM      2  N   UNL     1       3.043   6.058  17.858  0.00  0.00    +0.000 NA
ATOM      3  C   UNL     1       2.446   6.464  19.035  0.00  0.00    +0.000 A 
ATOM      4  N   UNL     1       2.411   5.507  19.978  0.00  0.00    +0.000 NA
ATOM      5  O   UNL     1       3.055   4.428  19.384  0.00  0.00    +0.000 OA
ENDROOT
BRANCH   3   6
ATOM      6  C   UNL     1       1.933   7.817  19.229  0.00  0.00    +0.000 A 
ATOM      7  C   UNL     1       1.976   8.750  18.182  0.00  0.00    +0.000 A 
ATOM      8  C   UNL     1       1.482  10.047  18.359  0.00  0.00    +0.000 A 
ATOM      9  C   UNL     1       0.943  10.421  19.589  0.00  0.00    +0.000 A 
ATOM     10 CL   UNL     1       0.322  12.011  19.804  0.00  0.00    +0.000 Cl
ATOM     11  C   UNL     1       0.902   9.513  20.644  0.00  0.00    +0.000 A 
ATOM     12  C   UNL     1       1.395   8.216  20.464  0.00  0.00    +0.000 A 
ENDBRANCH   3   6
BRANCH   1  13
ATOM     13  C   UNL     1       4.187   3.875  17.297  0.00  0.00    +0.000 C 
BRANCH  13  14
ATOM     14  C   UNL     1       5.677   3.856  17.646  0.00  0.00    +0.000 C 
BRANCH  14  21
ATOM     15  C   UNL     1       6.082   3.669  14.414  0.00  0.00    +0.000 C 
ATOM     16  C   UNL     1       6.660   4.659  15.355  0.00  0.00    +0.000 A 
ATOM     17  N   UNL     1       7.461   5.625  14.896  0.00  0.00    +0.000 NA
ATOM     18  O   UNL     1       7.829   6.365  15.999  0.00  0.00    +0.000 OA
ATOM     19  C   UNL     1       7.250   5.846  17.113  0.00  0.00    +0.000 A 
ATOM     20  C   UNL     1       7.560   6.540  18.378  0.00  0.00    +0.000 C 
ATOM     21  C   UNL     1       6.485   4.749  16.765  0.00  0.00    +0.000 A 
ENDBRANCH  14  21
ENDBRANCH  13  14
ENDBRANCH   1  13
TORSDOF 4
ENDMDL
MODEL 6
REMARK VINA RESULT:      -7.1      1.938      2.401
REMARK  Name = 
REMARK  6 active torsions:
REMARK  status: ('A' for Active; 'I' for Inactive)
REMARK    1  A    between atoms: C_1  and  C_2
REMARK    2  A    between atoms: C_5  and  C_6
REMARK    3  A    between atoms: C_7  and  C_8
REMARK    4  A    between atoms: C_8  and  C_9
REMARK    5  A    between atoms: C_9  and  C_10
REMARK    6  A    between atoms: C_12  and  C_13
REMARK                            x       y       z     vdW  Elec       q    Type
REMARK                         _______ _______ _______ _____ _____    ______ ____
ROOT
ATOM      1  C   UNL     1       3.029   7.214  18.078  0.00  0.00    +0.000 A 
ATOM      2  N   UNL     1       2.447   7.407  19.239  0.00  0.00    +0.000 NA
ATOM      3  C   UNL     1       1.825   8.627  19.066  0.00  0.00    +0.000 A 
ATOM      4  N   UNL     1       2.043   9.177  17.860  0.00  0.00    +0.000 NA
ATOM      5  O   UNL     1       2.828   8.238  17.201  0.00  0.00    +0.000 OA
ENDROOT
BRANCH   3   6
ATOM      6  C   UNL     1       0.989   9.234  20.099  0.00  0.00    +0.000 A 
ATOM      7  C   UNL     1       1.098   8.820  21.435  0.00  0.00    +0.000 A 
ATOM      8  C   UNL     1       0.303   9.400  22.431  0.00  0.00    +0.000 A 
ATOM      9  C   UNL     1      -0.610  10.398  22.093  0.00  0.00    +0.000 A 
ATOM     10 CL   UNL     1      -1.577  11.122  23.318  0.00  0.00    +0.000 Cl
ATOM     11  C   UNL     1      -0.741  10.814  20.771  0.00  0.00    +0.000 A 
ATOM     12  C   UNL     1       0.056  10.234  19.777  0.00  0.00    +0.000 A 
ENDBRANCH   3   6
BRANCH   1  13
ATOM     13  C   UNL     1       3.777   6.027  17.590  0.00  0.00    +0.000 C 
BRANCH  13  14
ATOM     14  C   UNL     1       4.868   6.376  16.575  0.00  0.00    +0.000 C 
BRANCH  14  21
ATOM     15  C   UNL     1       6.405   5.585  19.342  0.00  0.00    +0.000 C 
ATOM     16  C   UNL     1       6.764   5.207  17.955  0.00  0.00    +0.000 A 
ATOM     17  N   UNL     1       7.842   4.451  17.728  0.00  0.00    +0.000 NA
ATOM     18  O   UNL     1       7.903   4.282  16.361  0.00  0.00    +0.000 OA
ATOM     19  C   UNL     1       6.865   4.932  15.772  0.00  0.00    +0.000 A 
ATOM     20  C   UNL     1       6.805   4.840  14.301  0.00  0.00    +0.000 C 
ATOM     21  C   UNL     1       6.096   5.545  16.743  0.00  0.00    +0.000 A 
ENDBRANCH  14  21
ENDBRANCH  13  14
ENDBRANCH   1  13
TORSDOF 4
ENDMDL
MODEL 7
REMARK VINA RESULT:      -7.1      1.322      2.263
REMARK  Name = 
REMARK  6 active torsions:
REMARK  status: ('A' for Active; 'I' for Inactive)
REMARK    1  A    between atoms: C_1  and  C_2
REMARK    2  A    between atoms: C_5  and  C_6
REMARK    3  A    between atoms: C_7  and  C_8
REMARK    4  A    between atoms: C_8  and  C_9
REMARK    5  A    between atoms: C_9  and  C_10
REMARK    6  A    between atoms: C_12  and  C_13
REMARK                            x       y       z     vdW  Elec       q    Type
REMARK                         _______ _______ _______ _____ _____    ______ ____
ROOT
ATOM      1  C   UNL     1       3.575   5.843  18.351  0.00  0.00    +0.000 A 
ATOM      2  N   UNL     1       2.875   6.263  19.380  0.00  0.00    +0.000 NA
ATOM      3  C   UNL     1       2.499   7.533  18.992  0.00  0.00    +0.000 A 
ATOM      4  N   UNL     1       2.975   7.892  17.787  0.00  0.00    +0.000 NA
ATOM      5  O   UNL     1       3.676   6.771  17.358  0.00  0.00    +0.000 OA
ENDROOT
BRANCH   3   6
ATOM      6  C   UNL     1       1.639   8.382  19.813  0.00  0.00    +0.000 A 
ATOM      7  C   UNL     1       1.361   8.035  21.144  0.00  0.00    +0.000 A 
ATOM      8  C   UNL     1       0.542   8.845  21.938  0.00  0.00    +0.000 A 
ATOM      9  C   UNL     1      -0.008  10.009  21.403  0.00  0.00    +0.000 A 
ATOM     10 CL   UNL     1      -1.003  11.014  22.382  0.00  0.00    +0.000 Cl
ATOM     11  C   UNL     1       0.248  10.365  20.081  0.00  0.00    +0.000 A 
ATOM     12  C   UNL     1       1.068   9.554  19.289  0.00  0.00    +0.000 A 
ENDBRANCH   3   6
BRANCH   1  13
ATOM     13  C   UNL     1       4.174   4.506  18.108  0.00  0.00    +0.000 C 
BRANCH  13  14
ATOM     14  C   UNL     1       5.684   4.467  18.352  0.00  0.00    +0.000 C 
BRANCH  14  21
ATOM     15  C   UNL     1       5.800   3.555  15.221  0.00  0.00    +0.000 C 
ATOM     16  C   UNL     1       6.510   4.681  15.875  0.00  0.00    +0.000 A 
ATOM     17  N   UNL     1       7.321   5.464  15.158  0.00  0.00    +0.000 NA
ATOM     18  O   UNL     1       7.824   6.396  16.040  0.00  0.00    +0.000 OA
ATOM     19  C   UNL     1       7.313   6.175  17.280  0.00  0.00    +0.000 A 
ATOM     20  C   UNL     1       7.768   7.101  18.334  0.00  0.00    +0.000 C 
ATOM     21  C   UNL     1       6.462   5.087  17.240  0.00  0.00    +0.000 A 
ENDBRANCH  14  21
ENDBRANCH  13  14
ENDBRANCH   1  13
TORSDOF 4
ENDMDL
MODEL 8
REMARK VINA RESULT:      -7.0      1.165      1.369
REMARK  Name = 
REMARK  6 active torsions:
REMARK  status: ('A' for Active; 'I' for Inactive)
REMARK    1  A    between atoms: C_1  and  C_2
REMARK    2  A    between atoms: C_5  and  C_6
REMARK    3  A    between atoms: C_7  and  C_8
REMARK    4  A    between atoms: C_8  and  C_9
REMARK    5  A    between atoms: C_9  and  C_10
REMARK    6  A    between atoms: C_12  and  C_13
REMARK                            x       y       z     vdW  Elec       q    Type
REMARK                         _______ _______ _______ _____ _____    ______ ____
ROOT
ATOM      1  C   UNL     1       3.264   5.777  17.877  0.00  0.00    +0.000 A 
ATOM      2  N   UNL     1       2.515   6.119  18.899  0.00  0.00    +0.000 NA
ATOM      3  C   UNL     1       2.459   7.494  18.788  0.00  0.00    +0.000 A 
ATOM      4  N   UNL     1       3.172   7.980  17.758  0.00  0.00    +0.000 NA
ATOM      5  O   UNL     1       3.694   6.845  17.148  0.00  0.00    +0.000 OA
ENDROOT
BRANCH   3   6
ATOM      6  C   UNL     1       1.671   8.323  19.696  0.00  0.00    +0.000 A 
ATOM      7  C   UNL     1       1.469   7.925  21.027  0.00  0.00    +0.000 A 
ATOM      8  C   UNL     1       0.719   8.716  21.903  0.00  0.00    +0.000 A 
ATOM      9  C   UNL     1       0.162   9.913  21.452  0.00  0.00    +0.000 A 
ATOM     10 CL   UNL     1      -0.748  10.894  22.533  0.00  0.00    +0.000 Cl
ATOM     11  C   UNL     1       0.342  10.319  20.133  0.00  0.00    +0.000 A 
ATOM     12  C   UNL     1       1.094   9.526  19.258  0.00  0.00    +0.000 A 
ENDBRANCH   3   6
BRANCH   1  13
ATOM     13  C   UNL     1       3.616   4.420  17.385  0.00  0.00    +0.000 C 
BRANCH  13  14
ATOM     14  C   UNL     1       5.066   4.028  17.682  0.00  0.00    +0.000 C 
BRANCH  14  21
ATOM     15  C   UNL     1       7.337   6.111  18.752  0.00  0.00    +0.000 C 
ATOM     16  C   UNL     1       7.036   5.722  17.353  0.00  0.00    +0.000 A 
ATOM     17  N   UNL     1       7.739   6.253  16.349  0.00  0.00    +0.000 NA
ATOM     18  O   UNL     1       7.223   5.702  15.195  0.00  0.00    +0.000 OA
ATOM     19  C   UNL     1       6.217   4.843  15.508  0.00  0.00    +0.000 A 
ATOM     20  C   UNL     1       5.565   4.178  14.364  0.00  0.00    +0.000 C 
ATOM     21  C   UNL     1       6.049   4.812  16.879  0.00  0.00    +0.000 A 
ENDBRANCH  14  21
ENDBRANCH  13  14
ENDBRANCH   1  13
TORSDOF 4
ENDMDL
MODEL 9
REMARK VINA RESULT:      -7.0      5.282      7.144
REMARK  Name = 
REMARK  6 active torsions:
REMARK  status: ('A' for Active; 'I' for Inactive)
REMARK    1  A    between atoms: C_1  and  C_2
REMARK    2  A    between atoms: C_5  and  C_6
REMARK    3  A    between atoms: C_7  and  C_8
REMARK    4  A    between atoms: C_8  and  C_9
REMARK    5  A    between atoms: C_9  and  C_10
REMARK    6  A    between atoms: C_12  and  C_13
REMARK                            x       y       z     vdW  Elec       q    Type
REMARK                         _______ _______ _______ _____ _____    ______ ____
ROOT
ATOM      1  C   UNL     1       7.908   8.226  17.821  0.00  0.00    +0.000 A 
ATOM      2  N   UNL     1       6.820   7.662  17.347  0.00  0.00    +0.000 NA
ATOM      3  C   UNL     1       6.773   6.468  18.039  0.00  0.00    +0.000 A 
ATOM      4  N   UNL     1       7.806   6.292  18.880  0.00  0.00    +0.000 NA
ATOM      5  O   UNL     1       8.549   7.458  18.746  0.00  0.00    +0.000 OA
ENDROOT
BRANCH   3   6
ATOM      6  C   UNL     1       5.679   5.514  17.881  0.00  0.00    +0.000 A 
ATOM      7  C   UNL     1       4.498   5.655  18.625  0.00  0.00    +0.000 A 
ATOM      8  C   UNL     1       3.445   4.747  18.475  0.00  0.00    +0.000 A 
ATOM      9  C   UNL     1       3.568   3.686  17.579  0.00  0.00    +0.000 A 
ATOM     10 CL   UNL     1       2.268   2.576  17.383  0.00  0.00    +0.000 Cl
ATOM     11  C   UNL     1       4.736   3.522  16.840  0.00  0.00    +0.000 A 
ATOM     12  C   UNL     1       5.788   4.432  16.990  0.00  0.00    +0.000 A 
ENDBRANCH   3   6
BRANCH   1  13
ATOM     13  C   UNL     1       8.456   9.580  17.549  0.00  0.00    +0.000 C 
BRANCH  13  14
ATOM     14  C   UNL     1       9.071  10.241  18.784  0.00  0.00    +0.000 C 
BRANCH  14  21
ATOM     15  C   UNL     1      11.927  11.572  19.632  0.00  0.00    +0.000 C 
ATOM     16  C   UNL     1      10.808  12.200  18.888  0.00  0.00    +0.000 A 
ATOM     17  N   UNL     1      10.905  13.469  18.484  0.00  0.00    +0.000 NA
ATOM     18  O   UNL     1       9.721  13.752  17.837  0.00  0.00    +0.000 OA
ATOM     19  C   UNL     1       8.919  12.655  17.852  0.00  0.00    +0.000 A 
ATOM     20  C   UNL     1       7.608  12.812  17.194  0.00  0.00    +0.000 C 
ATOM     21  C   UNL     1       9.560  11.624  18.512  0.00  0.00    +0.000 A 
ENDBRANCH  14  21
ENDBRANCH  13  14
ENDBRANCH   1  13
TORSDOF 4
ENDMDL
