MODEL 1
REMARK VINA RESULT:      -7.2      0.000      0.000
REMARK  Name = 
REMARK  12 active torsions:
REMARK  status: ('A' for Active; 'I' for Inactive)
REMARK    1  A    between atoms: C_1  and  C_2
REMARK    2  A    between atoms: C_2  and  C_3
REMARK    3  A    between atoms: C_2  and  C_4
REMARK    4  A    between atoms: C_2  and  C_5
REMARK    5  A    between atoms: C_8  and  C_9
REMARK    6  A    between atoms: N_11  and  C_12
REMARK    7  A    between atoms: C_12  and  C_13
REMARK    8  A    between atoms: C_16  and  S_17
REMARK    9  A    between atoms: S_17  and  C_18
REMARK   10  A    between atoms: C_18  and  C_19
REMARK   11  A    between atoms: N_21  and  C_22
REMARK   12  A    between atoms: C_22  and  C_23
REMARK                            x       y       z     vdW  Elec       q    Type
REMARK                         _______ _______ _______ _____ _____    ______ ____
ROOT
ATOM      1  C   UNL     1       2.326   5.661  18.235  0.00  0.00    +0.000 A 
ATOM      2  N   UNL     1       1.490   5.240  17.313  0.00  0.00    +0.000 NA
ATOM      3  N   UNL     1       1.169   3.941  17.642  0.00  0.00    +0.000 NA
ATOM      4  C   UNL     1       1.807   3.659  18.763  0.00  0.00    +0.000 A 
ATOM      5  O   UNL     1       2.561   4.719  19.212  0.00  0.00    +0.000 OA
ENDROOT
BRANCH   1   6
ATOM      6  C   UNL     1       3.010   6.972  18.334  0.00  0.00    +0.000 C 
BRANCH   6   9
ATOM      7  C   UNL     1       1.704   9.041  18.550  0.00  0.00    +0.000 C 
ATOM      8  O   UNL     1       1.918   9.333  17.375  0.00  0.00    +0.000 OA
ATOM      9  N   UNL     1       2.213   7.896  19.122  0.00  0.00    +0.000 N 
ATOM     10  H   UNL     1       1.825   7.544  19.984  0.00  0.00    +0.000 HD
BRANCH   7  14
ATOM     11  C   UNL     1      -0.758  11.643  21.014  0.00  0.00    +0.000 A 
ATOM     12  C   UNL     1      -0.560  10.283  21.323  0.00  0.00    +0.000 A 
ATOM     13  C   UNL     1       0.273   9.465  20.544  0.00  0.00    +0.000 A 
ATOM     14  C   UNL     1       0.945   9.983  19.434  0.00  0.00    +0.000 A 
ATOM     15  C   UNL     1       0.753  11.328  19.114  0.00  0.00    +0.000 A 
ATOM     16  C   UNL     1      -0.121  12.129  19.863  0.00  0.00    +0.000 A 
BRANCH  11  18
ATOM     17  C   UNL     1      -2.822  13.100  21.156  0.00  0.00    +0.000 C 
ATOM     18  C   UNL     1      -1.596  12.560  21.926  0.00  0.00    +0.000 C 
ATOM     19  C   UNL     1      -0.757  13.752  22.427  0.00  0.00    +0.000 C 
ATOM     20  C   UNL     1      -2.150  11.817  23.166  0.00  0.00    +0.000 C 
ENDBRANCH  11  18
ENDBRANCH   7  14
ENDBRANCH   6   9
ENDBRANCH   1   6
BRANCH   4  21
ATOM     21  S   UNL     1       1.770   2.082  19.492  0.00  0.00    +0.000 S 
BRANCH  21  22
ATOM     22  C   UNL     1       3.364   1.388  19.007  0.00  0.00    +0.000 C 
BRANCH  22  23
ATOM     23  C   UNL     1       4.533   2.307  19.311  0.00  0.00    +0.000 C 
ATOM     24  O   UNL     1       5.139   2.327  20.380  0.00  0.00    +0.000 OA
ATOM     25  N   UNL     1       4.889   3.112  18.248  0.00  0.00    +0.000 N 
ATOM     26  H   UNL     1       4.317   3.153  17.413  0.00  0.00    +0.000 HD
BRANCH  25  27
ATOM     27  C   UNL     1       5.973   4.081  18.330  0.00  0.00    +0.000 C 
BRANCH  27  28
ATOM     28  C   UNL     1       6.056   4.939  17.071  0.00  0.00    +0.000 C 
ATOM     29  C   UNL     1       5.044   4.565  16.007  0.00  0.00    +0.000 C 
ATOM     30  C   UNL     1       5.710   5.099  14.767  0.00  0.00    +0.000 C 
ATOM     31  C   UNL     1       7.170   4.834  15.024  0.00  0.00    +0.000 C 
ATOM     32  O   UNL     1       7.350   4.807  16.451  0.00  0.00    +0.000 OA
ENDBRANCH  27  28
ENDBRANCH  25  27
ENDBRANCH  22  23
ENDBRANCH  21  22
ENDBRANCH   4  21
TORSDOF 9
ENDMDL
MODEL 2
REMARK VINA RESULT:      -7.2      2.445      3.037
REMARK  Name = 
REMARK  12 active torsions:
REMARK  status: ('A' for Active; 'I' for Inactive)
REMARK    1  A    between atoms: C_1  and  C_2
REMARK    2  A    between atoms: C_2  and  C_3
REMARK    3  A    between atoms: C_2  and  C_4
REMARK    4  A    between atoms: C_2  and  C_5
REMARK    5  A    between atoms: C_8  and  C_9
REMARK    6  A    between atoms: N_11  and  C_12
REMARK    7  A    between atoms: C_12  and  C_13
REMARK    8  A    between atoms: C_16  and  S_17
REMARK    9  A    between atoms: S_17  and  C_18
REMARK   10  A    between atoms: C_18  and  C_19
REMARK   11  A    between atoms: N_21  and  C_22
REMARK   12  A    between atoms: C_22  and  C_23
REMARK                            x       y       z     vdW  Elec       q    Type
REMARK                         _______ _______ _______ _____ _____    ______ ____
ROOT
ATOM      1  C   UNL     1       2.272   7.351  18.398  0.00  0.00    +0.000 A 
ATOM      2  N   UNL     1       2.040   6.452  17.467  0.00  0.00    +0.000 NA
ATOM      3  N   UNL     1       2.229   5.222  18.058  0.00  0.00    +0.000 NA
ATOM      4  C   UNL     1       2.537   5.445  19.322  0.00  0.00    +0.000 A 
ATOM      5  O   UNL     1       2.571   6.789  19.619  0.00  0.00    +0.000 OA
ENDROOT
BRANCH   1   6
ATOM      6  C   UNL     1       2.248   8.828  18.282  0.00  0.00    +0.000 C 
BRANCH   6   9
ATOM      7  C   UNL     1       0.421  10.387  18.794  0.00  0.00    +0.000 C 
ATOM      8  O   UNL     1       1.123  10.987  19.607  0.00  0.00    +0.000 OA
ATOM      9  N   UNL     1       0.886   9.295  18.095  0.00  0.00    +0.000 N 
ATOM     10  H   UNL     1       0.405   8.983  17.265  0.00  0.00    +0.000 HD
BRANCH   7  14
ATOM     11  C   UNL     1      -3.798  11.396  18.514  0.00  0.00    +0.000 A 
ATOM     12  C   UNL     1      -2.917  12.084  19.371  0.00  0.00    +0.000 A 
ATOM     13  C   UNL     1      -1.548  11.778  19.420  0.00  0.00    +0.000 A 
ATOM     14  C   UNL     1      -1.012  10.779  18.603  0.00  0.00    +0.000 A 
ATOM     15  C   UNL     1      -1.876  10.086  17.753  0.00  0.00    +0.000 A 
ATOM     16  C   UNL     1      -3.251  10.359  17.745  0.00  0.00    +0.000 A 
BRANCH  11  18
ATOM     17  C   UNL     1      -5.580  12.301  16.962  0.00  0.00    +0.000 C 
ATOM     18  C   UNL     1      -5.280  11.801  18.394  0.00  0.00    +0.000 C 
ATOM     19  C   UNL     1      -5.628  12.919  19.395  0.00  0.00    +0.000 C 
ATOM     20  C   UNL     1      -6.242  10.617  18.654  0.00  0.00    +0.000 C 
ENDBRANCH  11  18
ENDBRANCH   7  14
ENDBRANCH   6   9
ENDBRANCH   1   6
BRANCH   4  21
ATOM     21  S   UNL     1       2.959   4.171  20.424  0.00  0.00    +0.000 S 
BRANCH  21  22
ATOM     22  C   UNL     1       4.406   3.434  19.635  0.00  0.00    +0.000 C 
BRANCH  22  23
ATOM     23  C   UNL     1       5.393   4.465  19.116  0.00  0.00    +0.000 C 
ATOM     24  O   UNL     1       6.109   5.159  19.831  0.00  0.00    +0.000 OA
ATOM     25  N   UNL     1       5.442   4.530  17.738  0.00  0.00    +0.000 N 
ATOM     26  H   UNL     1       4.774   4.023  17.170  0.00  0.00    +0.000 HD
BRANCH  25  27
ATOM     27  C   UNL     1       6.308   5.463  17.031  0.00  0.00    +0.000 C 
BRANCH  27  28
ATOM     28  C   UNL     1       6.089   5.399  15.522  0.00  0.00    +0.000 C 
ATOM     29  C   UNL     1       5.386   4.140  15.058  0.00  0.00    +0.000 C 
ATOM     30  C   UNL     1       5.831   4.068  13.621  0.00  0.00    +0.000 C 
ATOM     31  C   UNL     1       7.250   4.566  13.679  0.00  0.00    +0.000 C 
ATOM     32  O   UNL     1       7.349   5.431  14.825  0.00  0.00    +0.000 OA
ENDBRANCH  27  28
ENDBRANCH  25  27
ENDBRANCH  22  23
ENDBRANCH  21  22
ENDBRANCH   4  21
TORSDOF 9
ENDMDL
MODEL 3
REMARK VINA RESULT:      -7.1      5.139     10.871
REMARK  Name = 
REMARK  12 active torsions:
REMARK  status: ('A' for Active; 'I' for Inactive)
REMARK    1  A    between atoms: C_1  and  C_2
REMARK    2  A    between atoms: C_2  and  C_3
REMARK    3  A    between atoms: C_2  and  C_4
REMARK    4  A    between atoms: C_2  and  C_5
REMARK    5  A    between atoms: C_8  and  C_9
REMARK    6  A    between atoms: N_11  and  C_12
REMARK    7  A    between atoms: C_12  and  C_13
REMARK    8  A    between atoms: C_16  and  S_17
REMARK    9  A    between atoms: S_17  and  C_18
REMARK   10  A    between atoms: C_18  and  C_19
REMARK   11  A    between atoms: N_21  and  C_22
REMARK   12  A    between atoms: C_22  and  C_23
REMARK                            x       y       z     vdW  Elec       q    Type
REMARK                         _______ _______ _______ _____ _____    ______ ____
ROOT
ATOM      1  C   UNL     1      -2.288  11.524  18.054  0.00  0.00    +0.000 A 
ATOM      2  N   UNL     1      -2.651  10.864  16.977  0.00  0.00    +0.000 NA
ATOM      3  N   UNL     1      -4.026  10.928  16.925  0.00  0.00    +0.000 NA
ATOM      4  C   UNL     1      -4.417  11.650  17.959  0.00  0.00    +0.000 A 
ATOM      5  O   UNL     1      -3.356  12.079  18.724  0.00  0.00    +0.000 OA
ENDROOT
BRANCH   1   6
ATOM      6  C   UNL     1      -0.925  11.726  18.598  0.00  0.00    +0.000 C 
BRANCH   6   9
ATOM      7  C   UNL     1       0.670  10.122  19.554  0.00  0.00    +0.000 C 
ATOM      8  O   UNL     1       0.821  10.824  20.553  0.00  0.00    +0.000 OA
ATOM      9  N   UNL     1      -0.166  10.490  18.523  0.00  0.00    +0.000 N 
ATOM     10  H   UNL     1      -0.474   9.804  17.851  0.00  0.00    +0.000 HD
BRANCH   7  14
ATOM     11  C   UNL     1       2.769   6.372  18.896  0.00  0.00    +0.000 A 
ATOM     12  C   UNL     1       2.631   7.342  17.885  0.00  0.00    +0.000 A 
ATOM     13  C   UNL     1       1.989   8.568  18.123  0.00  0.00    +0.000 A 
ATOM     14  C   UNL     1       1.473   8.868  19.386  0.00  0.00    +0.000 A 
ATOM     15  C   UNL     1       1.599   7.912  20.396  0.00  0.00    +0.000 A 
ATOM     16  C   UNL     1       2.193   6.669  20.140  0.00  0.00    +0.000 A 
BRANCH  11  18
ATOM     17  C   UNL     1       3.427   4.136  19.882  0.00  0.00    +0.000 C 
ATOM     18  C   UNL     1       3.558   5.070  18.657  0.00  0.00    +0.000 C 
ATOM     19  C   UNL     1       5.050   5.368  18.414  0.00  0.00    +0.000 C 
ATOM     20  C   UNL     1       3.030   4.271  17.440  0.00  0.00    +0.000 C 
ENDBRANCH  11  18
ENDBRANCH   7  14
ENDBRANCH   6   9
ENDBRANCH   1   6
BRANCH   4  21
ATOM     21  S   UNL     1      -6.091  11.907  18.345  0.00  0.00    +0.000 S 
BRANCH  21  22
ATOM     22  C   UNL     1      -6.555  10.351  19.133  0.00  0.00    +0.000 C 
BRANCH  22  23
ATOM     23  C   UNL     1      -7.165  10.538  20.511  0.00  0.00    +0.000 C 
ATOM     24  O   UNL     1      -7.917   9.731  21.052  0.00  0.00    +0.000 OA
ATOM     25  N   UNL     1      -6.766  11.704  21.134  0.00  0.00    +0.000 N 
ATOM     26  H   UNL     1      -6.228  12.401  20.634  0.00  0.00    +0.000 HD
BRANCH  25  27
ATOM     27  C   UNL     1      -7.245  12.088  22.453  0.00  0.00    +0.000 C 
BRANCH  27  28
ATOM     28  C   UNL     1      -6.213  12.925  23.204  0.00  0.00    +0.000 C 
ATOM     29  C   UNL     1      -5.055  13.385  22.343  0.00  0.00    +0.000 C 
ATOM     30  C   UNL     1      -3.991  13.621  23.383  0.00  0.00    +0.000 C 
ATOM     31  C   UNL     1      -4.240  12.519  24.379  0.00  0.00    +0.000 C 
ATOM     32  O   UNL     1      -5.631  12.165  24.281  0.00  0.00    +0.000 OA
ENDBRANCH  27  28
ENDBRANCH  25  27
ENDBRANCH  22  23
ENDBRANCH  21  22
ENDBRANCH   4  21
TORSDOF 9
ENDMDL
MODEL 4
REMARK VINA RESULT:      -7.1      1.980      3.678
REMARK  Name = 
REMARK  12 active torsions:
REMARK  status: ('A' for Active; 'I' for Inactive)
REMARK    1  A    between atoms: C_1  and  C_2
REMARK    2  A    between atoms: C_2  and  C_3
REMARK    3  A    between atoms: C_2  and  C_4
REMARK    4  A    between atoms: C_2  and  C_5
REMARK    5  A    between atoms: C_8  and  C_9
REMARK    6  A    between atoms: N_11  and  C_12
REMARK    7  A    between atoms: C_12  and  C_13
REMARK    8  A    between atoms: C_16  and  S_17
REMARK    9  A    between atoms: S_17  and  C_18
REMARK   10  A    between atoms: C_18  and  C_19
REMARK   11  A    between atoms: N_21  and  C_22
REMARK   12  A    between atoms: C_22  and  C_23
REMARK                            x       y       z     vdW  Elec       q    Type
REMARK                         _______ _______ _______ _____ _____    ______ ____
ROOT
ATOM      1  C   UNL     1       2.977   7.316  18.320  0.00  0.00    +0.000 A 
ATOM      2  N   UNL     1       2.535   6.544  19.287  0.00  0.00    +0.000 NA
ATOM      3  N   UNL     1       3.589   5.736  19.654  0.00  0.00    +0.000 NA
ATOM      4  C   UNL     1       4.620   6.086  18.906  0.00  0.00    +0.000 A 
ATOM      5  O   UNL     1       4.307   7.104  18.034  0.00  0.00    +0.000 OA
ENDROOT
BRANCH   1   6
ATOM      6  C   UNL     1       2.237   8.338  17.543  0.00  0.00    +0.000 C 
BRANCH   6   9
ATOM      7  C   UNL     1       1.252  10.303  18.639  0.00  0.00    +0.000 C 
ATOM      8  O   UNL     1       2.153  11.026  18.216  0.00  0.00    +0.000 OA
ATOM      9  N   UNL     1       1.213   8.953  18.369  0.00  0.00    +0.000 N 
ATOM     10  H   UNL     1       0.356   8.436  18.496  0.00  0.00    +0.000 HD
BRANCH   7  14
ATOM     11  C   UNL     1      -1.701  12.209  21.197  0.00  0.00    +0.000 A 
ATOM     12  C   UNL     1      -1.832  12.176  19.795  0.00  0.00    +0.000 A 
ATOM     13  C   UNL     1      -0.894  11.520  18.984  0.00  0.00    +0.000 A 
ATOM     14  C   UNL     1       0.203  10.863  19.549  0.00  0.00    +0.000 A 
ATOM     15  C   UNL     1       0.346  10.892  20.937  0.00  0.00    +0.000 A 
ATOM     16  C   UNL     1      -0.564  11.593  21.741  0.00  0.00    +0.000 A 
BRANCH  11  18
ATOM     17  C   UNL     1      -4.161  12.770  21.392  0.00  0.00    +0.000 C 
ATOM     18  C   UNL     1      -2.784  12.847  22.090  0.00  0.00    +0.000 C 
ATOM     19  C   UNL     1      -2.455  14.324  22.382  0.00  0.00    +0.000 C 
ATOM     20  C   UNL     1      -2.940  12.119  23.447  0.00  0.00    +0.000 C 
ENDBRANCH  11  18
ENDBRANCH   7  14
ENDBRANCH   6   9
ENDBRANCH   1   6
BRANCH   4  21
ATOM     21  S   UNL     1       6.144   5.255  18.961  0.00  0.00    +0.000 S 
BRANCH  21  22
ATOM     22  C   UNL     1       6.167   4.371  17.388  0.00  0.00    +0.000 C 
BRANCH  22  23
ATOM     23  C   UNL     1       4.813   3.798  17.005  0.00  0.00    +0.000 C 
ATOM     24  O   UNL     1       4.236   4.031  15.947  0.00  0.00    +0.000 OA
ATOM     25  N   UNL     1       4.290   2.944  17.957  0.00  0.00    +0.000 N 
ATOM     26  H   UNL     1       4.732   2.844  18.862  0.00  0.00    +0.000 HD
BRANCH  25  27
ATOM     27  C   UNL     1       2.995   2.299  17.800  0.00  0.00    +0.000 C 
BRANCH  27  28
ATOM     28  C   UNL     1       2.315   2.069  19.146  0.00  0.00    +0.000 C 
ATOM     29  C   UNL     1       1.140   2.989  19.404  0.00  0.00    +0.000 C 
ATOM     30  C   UNL     1       1.074   2.968  20.908  0.00  0.00    +0.000 C 
ATOM     31  C   UNL     1       2.523   2.913  21.310  0.00  0.00    +0.000 C 
ATOM     32  O   UNL     1       3.241   2.296  20.227  0.00  0.00    +0.000 OA
ENDBRANCH  27  28
ENDBRANCH  25  27
ENDBRANCH  22  23
ENDBRANCH  21  22
ENDBRANCH   4  21
TORSDOF 9
ENDMDL
MODEL 5
REMARK VINA RESULT:      -7.1      2.313      3.925
REMARK  Name = 
REMARK  12 active torsions:
REMARK  status: ('A' for Active; 'I' for Inactive)
REMARK    1  A    between atoms: C_1  and  C_2
REMARK    2  A    between atoms: C_2  and  C_3
REMARK    3  A    between atoms: C_2  and  C_4
REMARK    4  A    between atoms: C_2  and  C_5
REMARK    5  A    between atoms: C_8  and  C_9
REMARK    6  A    between atoms: N_11  and  C_12
REMARK    7  A    between atoms: C_12  and  C_13
REMARK    8  A    between atoms: C_16  and  S_17
REMARK    9  A    between atoms: S_17  and  C_18
REMARK   10  A    between atoms: C_18  and  C_19
REMARK   11  A    between atoms: N_21  and  C_22
REMARK   12  A    between atoms: C_22  and  C_23
REMARK                            x       y       z     vdW  Elec       q    Type
REMARK                         _______ _______ _______ _____ _____    ______ ____
ROOT
ATOM      1  C   UNL     1       2.029   7.832  19.331  0.00  0.00    +0.000 A 
ATOM      2  N   UNL     1       1.799   8.705  18.376  0.00  0.00    +0.000 NA
ATOM      3  N   UNL     1       2.658   8.390  17.345  0.00  0.00    +0.000 NA
ATOM      4  C   UNL     1       3.340   7.324  17.724  0.00  0.00    +0.000 A 
ATOM      5  O   UNL     1       2.981   6.900  18.983  0.00  0.00    +0.000 OA
ENDROOT
BRANCH   1   6
ATOM      6  C   UNL     1       1.406   7.746  20.672  0.00  0.00    +0.000 C 
BRANCH   6   9
ATOM      7  C   UNL     1       0.807   9.774  21.922  0.00  0.00    +0.000 C 
ATOM      8  O   UNL     1       1.759   9.620  22.685  0.00  0.00    +0.000 OA
ATOM      9  N   UNL     1       0.541   8.891  20.899  0.00  0.00    +0.000 N 
ATOM     10  H   UNL     1      -0.068   9.161  20.141  0.00  0.00    +0.000 HD
BRANCH   7  14
ATOM     11  C   UNL     1      -2.219  12.854  22.435  0.00  0.00    +0.000 A 
ATOM     12  C   UNL     1      -2.174  11.703  23.245  0.00  0.00    +0.000 A 
ATOM     13  C   UNL     1      -1.166  10.737  23.098  0.00  0.00    +0.000 A 
ATOM     14  C   UNL     1      -0.160  10.897  22.141  0.00  0.00    +0.000 A 
ATOM     15  C   UNL     1      -0.196  12.032  21.328  0.00  0.00    +0.000 A 
ATOM     16  C   UNL     1      -1.234  12.967  21.442  0.00  0.00    +0.000 A 
BRANCH  11  18
ATOM     17  C   UNL     1      -3.748  14.526  21.309  0.00  0.00    +0.000 C 
ATOM     18  C   UNL     1      -3.270  13.957  22.664  0.00  0.00    +0.000 C 
ATOM     19  C   UNL     1      -2.686  15.106  23.509  0.00  0.00    +0.000 C 
ATOM     20  C   UNL     1      -4.533  13.432  23.388  0.00  0.00    +0.000 C 
ENDBRANCH  11  18
ENDBRANCH   7  14
ENDBRANCH   6   9
ENDBRANCH   1   6
BRANCH   4  21
ATOM     21  S   UNL     1       4.616   6.637  16.767  0.00  0.00    +0.000 S 
BRANCH  21  22
ATOM     22  C   UNL     1       5.919   6.368  17.986  0.00  0.00    +0.000 C 
BRANCH  22  23
ATOM     23  C   UNL     1       6.003   4.928  18.463  0.00  0.00    +0.000 C 
ATOM     24  O   UNL     1       7.021   4.243  18.421  0.00  0.00    +0.000 OA
ATOM     25  N   UNL     1       4.818   4.456  18.992  0.00  0.00    +0.000 N 
ATOM     26  H   UNL     1       3.967   5.001  18.926  0.00  0.00    +0.000 HD
BRANCH  25  27
ATOM     27  C   UNL     1       4.672   3.097  19.492  0.00  0.00    +0.000 C 
BRANCH  27  28
ATOM     28  C   UNL     1       3.249   2.580  19.306  0.00  0.00    +0.000 C 
ATOM     29  C   UNL     1       2.525   3.190  18.123  0.00  0.00    +0.000 C 
ATOM     30  C   UNL     1       1.087   2.991  18.524  0.00  0.00    +0.000 C 
ATOM     31  C   UNL     1       1.117   3.206  20.013  0.00  0.00    +0.000 C 
ATOM     32  O   UNL     1       2.445   2.881  20.462  0.00  0.00    +0.000 OA
ENDBRANCH  27  28
ENDBRANCH  25  27
ENDBRANCH  22  23
ENDBRANCH  21  22
ENDBRANCH   4  21
TORSDOF 9
ENDMDL
MODEL 6
REMARK VINA RESULT:      -7.1      2.527      3.310
REMARK  Name = 
REMARK  12 active torsions:
REMARK  status: ('A' for Active; 'I' for Inactive)
REMARK    1  A    between atoms: C_1  and  C_2
REMARK    2  A    between atoms: C_2  and  C_3
REMARK    3  A    between atoms: C_2  and  C_4
REMARK    4  A    between atoms: C_2  and  C_5
REMARK    5  A    between atoms: C_8  and  C_9
REMARK    6  A    between atoms: N_11  and  C_12
REMARK    7  A    between atoms: C_12  and  C_13
REMARK    8  A    between atoms: C_16  and  S_17
REMARK    9  A    between atoms: S_17  and  C_18
REMARK   10  A    between atoms: C_18  and  C_19
REMARK   11  A    between atoms: N_21  and  C_22
REMARK   12  A    between atoms: C_22  and  C_23
REMARK                            x       y       z     vdW  Elec       q    Type
REMARK                         _______ _______ _______ _____ _____    ______ ____
ROOT
ATOM      1  C   UNL     1       1.956   7.804  19.177  0.00  0.00    +0.000 A 
ATOM      2  N   UNL     1       1.849   8.020  20.469  0.00  0.00    +0.000 NA
ATOM      3  N   UNL     1       1.950   6.790  21.080  0.00  0.00    +0.000 NA
ATOM      4  C   UNL     1       2.142   5.900  20.124  0.00  0.00    +0.000 A 
ATOM      5  O   UNL     1       2.172   6.478  18.875  0.00  0.00    +0.000 OA
ENDROOT
BRANCH   1   6
ATOM      6  C   UNL     1       1.875   8.782  18.067  0.00  0.00    +0.000 C 
BRANCH   6   9
ATOM      7  C   UNL     1       0.128  10.443  18.537  0.00  0.00    +0.000 C 
ATOM      8  O   UNL     1       0.900  11.102  19.232  0.00  0.00    +0.000 OA
ATOM      9  N   UNL     1       0.515   9.271  17.926  0.00  0.00    +0.000 N 
ATOM     10  H   UNL     1      -0.032   8.890  17.169  0.00  0.00    +0.000 HD
BRANCH   7  14
ATOM     11  C   UNL     1      -4.083  11.518  18.428  0.00  0.00    +0.000 A 
ATOM     12  C   UNL     1      -3.160  12.184  19.257  0.00  0.00    +0.000 A 
ATOM     13  C   UNL     1      -1.795  11.857  19.250  0.00  0.00    +0.000 A 
ATOM     14  C   UNL     1      -1.305  10.858  18.404  0.00  0.00    +0.000 A 
ATOM     15  C   UNL     1      -2.212  10.187  17.581  0.00  0.00    +0.000 A 
ATOM     16  C   UNL     1      -3.582  10.480  17.629  0.00  0.00    +0.000 A 
BRANCH  11  18
ATOM     17  C   UNL     1      -6.479  10.723  18.602  0.00  0.00    +0.000 C 
ATOM     18  C   UNL     1      -5.563  11.946  18.369  0.00  0.00    +0.000 C 
ATOM     19  C   UNL     1      -5.901  12.568  17.000  0.00  0.00    +0.000 C 
ATOM     20  C   UNL     1      -5.926  12.980  19.461  0.00  0.00    +0.000 C 
ENDBRANCH  11  18
ENDBRANCH   7  14
ENDBRANCH   6   9
ENDBRANCH   1   6
BRANCH   4  21
ATOM     21  S   UNL     1       2.226   4.192  20.433  0.00  0.00    +0.000 S 
BRANCH  21  22
ATOM     22  C   UNL     1       3.157   3.581  19.013  0.00  0.00    +0.000 C 
BRANCH  22  23
ATOM     23  C   UNL     1       4.593   4.075  18.983  0.00  0.00    +0.000 C 
ATOM     24  O   UNL     1       5.532   3.508  19.535  0.00  0.00    +0.000 OA
ATOM     25  N   UNL     1       4.763   5.223  18.234  0.00  0.00    +0.000 N 
ATOM     26  H   UNL     1       3.964   5.729  17.871  0.00  0.00    +0.000 HD
BRANCH  25  27
ATOM     27  C   UNL     1       6.056   5.875  18.088  0.00  0.00    +0.000 C 
BRANCH  27  28
ATOM     28  C   UNL     1       6.531   5.860  16.638  0.00  0.00    +0.000 C 
ATOM     29  C   UNL     1       5.406   5.810  15.625  0.00  0.00    +0.000 C 
ATOM     30  C   UNL     1       6.110   5.223  14.431  0.00  0.00    +0.000 C 
ATOM     31  C   UNL     1       7.064   4.236  15.050  0.00  0.00    +0.000 C 
ATOM     32  O   UNL     1       7.346   4.699  16.383  0.00  0.00    +0.000 OA
ENDBRANCH  27  28
ENDBRANCH  25  27
ENDBRANCH  22  23
ENDBRANCH  21  22
ENDBRANCH   4  21
TORSDOF 9
ENDMDL
MODEL 7
REMARK VINA RESULT:      -7.1      1.828      2.785
REMARK  Name = 
REMARK  12 active torsions:
REMARK  status: ('A' for Active; 'I' for Inactive)
REMARK    1  A    between atoms: C_1  and  C_2
REMARK    2  A    between atoms: C_2  and  C_3
REMARK    3  A    between atoms: C_2  and  C_4
REMARK    4  A    between atoms: C_2  and  C_5
REMARK    5  A    between atoms: C_8  and  C_9
REMARK    6  A    between atoms: N_11  and  C_12
REMARK    7  A    between atoms: C_12  and  C_13
REMARK    8  A    between atoms: C_16  and  S_17
REMARK    9  A    between atoms: S_17  and  C_18
REMARK   10  A    between atoms: C_18  and  C_19
REMARK   11  A    between atoms: N_21  and  C_22
REMARK   12  A    between atoms: C_22  and  C_23
REMARK                            x       y       z     vdW  Elec       q    Type
REMARK                         _______ _______ _______ _____ _____    ______ ____
ROOT
ATOM      1  C   UNL     1       2.344   8.421  18.296  0.00  0.00    +0.000 A 
ATOM      2  N   UNL     1       3.336   7.732  17.778  0.00  0.00    +0.000 NA
ATOM      3  N   UNL     1       3.429   6.571  18.514  0.00  0.00    +0.000 NA
ATOM      4  C   UNL     1       2.467   6.611  19.419  0.00  0.00    +0.000 A 
ATOM      5  O   UNL     1       1.720   7.763  19.332  0.00  0.00    +0.000 OA
ENDROOT
BRANCH   1   6
ATOM      6  C   UNL     1       1.849   9.762  17.905  0.00  0.00    +0.000 C 
BRANCH   6   9
ATOM      7  C   UNL     1      -0.331  10.511  18.754  0.00  0.00    +0.000 C 
ATOM      8  O   UNL     1      -0.872  10.245  17.682  0.00  0.00    +0.000 OA
ATOM      9  N   UNL     1       1.018  10.318  18.959  0.00  0.00    +0.000 N 
ATOM     10  H   UNL     1       1.390  10.292  19.896  0.00  0.00    +0.000 HD
BRANCH   7  14
ATOM     11  C   UNL     1      -2.492  12.627  21.878  0.00  0.00    +0.000 A 
ATOM     12  C   UNL     1      -2.844  12.732  20.518  0.00  0.00    +0.000 A 
ATOM     13  C   UNL     1      -2.166  12.009  19.524  0.00  0.00    +0.000 A 
ATOM     14  C   UNL     1      -1.118  11.147  19.859  0.00  0.00    +0.000 A 
ATOM     15  C   UNL     1      -0.757  11.038  21.203  0.00  0.00    +0.000 A 
ATOM     16  C   UNL     1      -1.401  11.801  22.186  0.00  0.00    +0.000 A 
BRANCH  11  18
ATOM     17  C   UNL     1      -4.599  13.936  22.376  0.00  0.00    +0.000 C 
ATOM     18  C   UNL     1      -3.301  13.347  22.974  0.00  0.00    +0.000 C 
ATOM     19  C   UNL     1      -2.479  14.488  23.604  0.00  0.00    +0.000 C 
ATOM     20  C   UNL     1      -3.737  12.393  24.113  0.00  0.00    +0.000 C 
ENDBRANCH  11  18
ENDBRANCH   7  14
ENDBRANCH   6   9
ENDBRANCH   1   6
BRANCH   4  21
ATOM     21  S   UNL     1       2.274   5.387  20.637  0.00  0.00    +0.000 S 
BRANCH  21  22
ATOM     22  C   UNL     1       1.331   4.116  19.769  0.00  0.00    +0.000 C 
BRANCH  22  23
ATOM     23  C   UNL     1       1.943   3.726  18.435  0.00  0.00    +0.000 C 
ATOM     24  O   UNL     1       1.331   3.712  17.370  0.00  0.00    +0.000 OA
ATOM     25  N   UNL     1       3.285   3.415  18.517  0.00  0.00    +0.000 N 
ATOM     26  H   UNL     1       3.746   3.336  19.416  0.00  0.00    +0.000 HD
BRANCH  25  27
ATOM     27  C   UNL     1       4.063   2.998  17.360  0.00  0.00    +0.000 C 
BRANCH  27  28
ATOM     28  C   UNL     1       5.028   4.090  16.908  0.00  0.00    +0.000 C 
ATOM     29  C   UNL     1       5.758   3.768  15.621  0.00  0.00    +0.000 C 
ATOM     30  C   UNL     1       6.977   4.642  15.746  0.00  0.00    +0.000 C 
ATOM     31  C   UNL     1       7.286   4.584  17.219  0.00  0.00    +0.000 C 
ATOM     32  O   UNL     1       6.050   4.306  17.901  0.00  0.00    +0.000 OA
ENDBRANCH  27  28
ENDBRANCH  25  27
ENDBRANCH  22  23
ENDBRANCH  21  22
ENDBRANCH   4  21
TORSDOF 9
ENDMDL
MODEL 8
REMARK VINA RESULT:      -7.0      2.421      4.425
REMARK  Name = 
REMARK  12 active torsions:
REMARK  status: ('A' for Active; 'I' for Inactive)
REMARK    1  A    between atoms: C_1  and  C_2
REMARK    2  A    between atoms: C_2  and  C_3
REMARK    3  A    between atoms: C_2  and  C_4
REMARK    4  A    between atoms: C_2  and  C_5
REMARK    5  A    between atoms: C_8  and  C_9
REMARK    6  A    between atoms: N_11  and  C_12
REMARK    7  A    between atoms: C_12  and  C_13
REMARK    8  A    between atoms: C_16  and  S_17
REMARK    9  A    between atoms: S_17  and  C_18
REMARK   10  A    between atoms: C_18  and  C_19
REMARK   11  A    between atoms: N_21  and  C_22
REMARK   12  A    between atoms: C_22  and  C_23
REMARK                            x       y       z     vdW  Elec       q    Type
REMARK                         _______ _______ _______ _____ _____    ______ ____
ROOT
ATOM      1  C   UNL     1       1.808   8.308  19.675  0.00  0.00    +0.000 A 
ATOM      2  N   UNL     1       1.633   9.114  18.652  0.00  0.00    +0.000 NA
ATOM      3  N   UNL     1       2.373   8.592  17.613  0.00  0.00    +0.000 NA
ATOM      4  C   UNL     1       2.931   7.481  18.059  0.00  0.00    +0.000 A 
ATOM      5  O   UNL     1       2.604   7.226  19.371  0.00  0.00    +0.000 OA
ENDROOT
BRANCH   1   6
ATOM      6  C   UNL     1       1.269   8.430  21.050  0.00  0.00    +0.000 C 
BRANCH   6   9
ATOM      7  C   UNL     1       0.172  10.158  22.407  0.00  0.00    +0.000 C 
ATOM      8  O   UNL     1       0.561   9.629  23.447  0.00  0.00    +0.000 OA
ATOM      9  N   UNL     1       0.461   9.631  21.168  0.00  0.00    +0.000 N 
ATOM     10  H   UNL     1       0.363  10.200  20.340  0.00  0.00    +0.000 HD
BRANCH   7  14
ATOM     11  C   UNL     1      -2.214  13.775  22.764  0.00  0.00    +0.000 A 
ATOM     12  C   UNL     1      -1.004  13.741  22.043  0.00  0.00    +0.000 A 
ATOM     13  C   UNL     1      -0.266  12.557  21.898  0.00  0.00    +0.000 A 
ATOM     14  C   UNL     1      -0.719  11.361  22.462  0.00  0.00    +0.000 A 
ATOM     15  C   UNL     1      -1.914  11.382  23.184  0.00  0.00    +0.000 A 
ATOM     16  C   UNL     1      -2.622  12.578  23.371  0.00  0.00    +0.000 A 
BRANCH  11  18
ATOM     17  C   UNL     1      -4.378  14.867  22.038  0.00  0.00    +0.000 C 
ATOM     18  C   UNL     1      -3.069  15.055  22.838  0.00  0.00    +0.000 C 
ATOM     19  C   UNL     1      -2.302  16.262  22.263  0.00  0.00    +0.000 C 
ATOM     20  C   UNL     1      -3.487  15.407  24.286  0.00  0.00    +0.000 C 
ENDBRANCH  11  18
ENDBRANCH   7  14
ENDBRANCH   6   9
ENDBRANCH   1   6
BRANCH   4  21
ATOM     21  S   UNL     1       4.040   6.541  17.107  0.00  0.00    +0.000 S 
BRANCH  21  22
ATOM     22  C   UNL     1       5.500   6.466  18.167  0.00  0.00    +0.000 C 
BRANCH  22  23
ATOM     23  C   UNL     1       5.594   5.175  18.962  0.00  0.00    +0.000 C 
ATOM     24  O   UNL     1       6.433   4.958  19.832  0.00  0.00    +0.000 OA
ATOM     25  N   UNL     1       4.612   4.260  18.640  0.00  0.00    +0.000 N 
ATOM     26  H   UNL     1       3.993   4.417  17.853  0.00  0.00    +0.000 HD
BRANCH  25  27
ATOM     27  C   UNL     1       4.528   2.951  19.270  0.00  0.00    +0.000 C 
BRANCH  27  28
ATOM     28  C   UNL     1       3.110   2.645  19.744  0.00  0.00    +0.000 C 
ATOM     29  C   UNL     1       2.093   3.697  19.352  0.00  0.00    +0.000 C 
ATOM     30  C   UNL     1       1.025   3.474  20.389  0.00  0.00    +0.000 C 
ATOM     31  C   UNL     1       1.816   3.129  21.623  0.00  0.00    +0.000 C 
ATOM     32  O   UNL     1       3.063   2.564  21.182  0.00  0.00    +0.000 OA
ENDBRANCH  27  28
ENDBRANCH  25  27
ENDBRANCH  22  23
ENDBRANCH  21  22
ENDBRANCH   4  21
TORSDOF 9
ENDMDL
MODEL 9
REMARK VINA RESULT:      -7.0      4.342      5.500
REMARK  Name = 
REMARK  12 active torsions:
REMARK  status: ('A' for Active; 'I' for Inactive)
REMARK    1  A    between atoms: C_1  and  C_2
REMARK    2  A    between atoms: C_2  and  C_3
REMARK    3  A    between atoms: C_2  and  C_4
REMARK    4  A    between atoms: C_2  and  C_5
REMARK    5  A    between atoms: C_8  and  C_9
REMARK    6  A    between atoms: N_11  and  C_12
REMARK    7  A    between atoms: C_12  and  C_13
REMARK    8  A    between atoms: C_16  and  S_17
REMARK    9  A    between atoms: S_17  and  C_18
REMARK   10  A    between atoms: C_18  and  C_19
REMARK   11  A    between atoms: N_21  and  C_22
REMARK   12  A    between atoms: C_22  and  C_23
REMARK                            x       y       z     vdW  Elec       q    Type
REMARK                         _______ _______ _______ _____ _____    ______ ____
ROOT
ATOM      1  C   UNL     1       3.747   4.559  18.635  0.00  0.00    +0.000 A 
ATOM      2  N   UNL     1       4.260   3.726  19.513  0.00  0.00    +0.000 NA
ATOM      3  N   UNL     1       5.626   3.771  19.341  0.00  0.00    +0.000 NA
ATOM      4  C   UNL     1       5.865   4.652  18.386  0.00  0.00    +0.000 A 
ATOM      5  O   UNL     1       4.707   5.210  17.893  0.00  0.00    +0.000 OA
ENDROOT
BRANCH   1   6
ATOM      6  C   UNL     1       2.320   4.858  18.371  0.00  0.00    +0.000 C 
BRANCH   6   9
ATOM      7  C   UNL     1       1.820   6.991  19.482  0.00  0.00    +0.000 C 
ATOM      8  O   UNL     1       1.713   6.431  20.572  0.00  0.00    +0.000 OA
ATOM      9  N   UNL     1       2.107   6.294  18.329  0.00  0.00    +0.000 N 
ATOM     10  H   UNL     1       2.443   6.782  17.512  0.00  0.00    +0.000 HD
BRANCH   7  14
ATOM     11  C   UNL     1       1.337  11.299  19.152  0.00  0.00    +0.000 A 
ATOM     12  C   UNL     1       1.857  10.519  18.101  0.00  0.00    +0.000 A 
ATOM     13  C   UNL     1       1.967   9.124  18.204  0.00  0.00    +0.000 A 
ATOM     14  C   UNL     1       1.549   8.459  19.360  0.00  0.00    +0.000 A 
ATOM     15  C   UNL     1       1.036   9.221  20.410  0.00  0.00    +0.000 A 
ATOM     16  C   UNL     1       0.976  10.619  20.325  0.00  0.00    +0.000 A 
BRANCH  11  18
ATOM     17  C   UNL     1       2.190  13.405  18.039  0.00  0.00    +0.000 C 
ATOM     18  C   UNL     1       1.128  12.818  18.997  0.00  0.00    +0.000 C 
ATOM     19  C   UNL     1       1.238  13.529  20.359  0.00  0.00    +0.000 C 
ATOM     20  C   UNL     1      -0.252  13.169  18.390  0.00  0.00    +0.000 C 
ENDBRANCH  11  18
ENDBRANCH   7  14
ENDBRANCH   6   9
ENDBRANCH   1   6
BRANCH   4  21
ATOM     21  S   UNL     1       7.459   4.958  17.768  0.00  0.00    +0.000 S 
BRANCH  21  22
ATOM     22  C   UNL     1       8.067   6.250  18.872  0.00  0.00    +0.000 C 
BRANCH  22  23
ATOM     23  C   UNL     1       8.094   7.624  18.225  0.00  0.00    +0.000 C 
ATOM     24  O   UNL     1       7.554   7.897  17.157  0.00  0.00    +0.000 OA
ATOM     25  N   UNL     1       8.763   8.570  18.976  0.00  0.00    +0.000 N 
ATOM     26  H   UNL     1       9.286   8.303  19.802  0.00  0.00    +0.000 HD
BRANCH  25  27
ATOM     27  C   UNL     1       8.924   9.947  18.533  0.00  0.00    +0.000 C 
BRANCH  27  28
ATOM     28  C   UNL     1       9.924  10.704  19.402  0.00  0.00    +0.000 C 
ATOM     29  C   UNL     1       9.293  11.768  20.277  0.00  0.00    +0.000 C 
ATOM     30  C   UNL     1      10.465  12.681  20.521  0.00  0.00    +0.000 C 
ATOM     31  C   UNL     1      11.203  12.645  19.209  0.00  0.00    +0.000 C 
ATOM     32  O   UNL     1      10.893  11.386  18.584  0.00  0.00    +0.000 OA
ENDBRANCH  27  28
ENDBRANCH  25  27
ENDBRANCH  22  23
ENDBRANCH  21  22
ENDBRANCH   4  21
TORSDOF 9
ENDMDL
