MODEL 1
REMARK VINA RESULT:      -8.7      0.000      0.000
REMARK  Name = 
REMARK  12 active torsions:
REMARK  status: ('A' for Active; 'I' for Inactive)
REMARK    1  A    between atoms: C_1  and  C_2
REMARK    2  A    between atoms: C_2  and  C_3
REMARK    3  A    between atoms: C_2  and  C_25
REMARK    4  A    between atoms: C_2  and  S_29
REMARK    5  A    between atoms: C_3  and  C_4
REMARK    6  A    between atoms: C_4  and  C_5
REMARK    7  A    between atoms: C_8  and  O_9
REMARK    8  A    between atoms: O_9  and  C_10
REMARK    9  A    between atoms: C_10  and  C_11
REMARK   10  A    between atoms: C_13  and  C_14
REMARK   11  A    between atoms: N_27  and  O_28
REMARK   12  A    between atoms: S_29  and  C_30
REMARK                            x       y       z     vdW  Elec       q    Type
REMARK                         _______ _______ _______ _____ _____    ______ ____
ROOT
ATOM      1  C   UNL     1       2.379   7.379  18.560  0.00  0.00    +0.000 A 
ATOM      2  C   UNL     1       1.982   7.535  19.893  0.00  0.00    +0.000 A 
ATOM      3  C   UNL     1       1.360   8.711  20.307  0.00  0.00    +0.000 A 
ATOM      4  C   UNL     1       1.148   9.754  19.407  0.00  0.00    +0.000 A 
ATOM      5  C   UNL     1       1.556   9.616  18.081  0.00  0.00    +0.000 A 
ATOM      6  C   UNL     1       2.169   8.432  17.661  0.00  0.00    +0.000 A 
ENDROOT
BRANCH   1   7
ATOM      7  C   UNL     1       3.030   6.101  18.097  0.00  0.00    +0.000 C 
BRANCH   7   8
ATOM      8  C   UNL     1       4.474   6.317  17.615  0.00  0.00    +0.000 C 
BRANCH   8  10
ATOM      9  C   UNL     1       4.576   4.085  16.400  0.00  0.00    +0.000 C 
ATOM     10  C   UNL     1       5.274   5.001  17.421  0.00  0.00    +0.000 C 
BRANCH  10  11
ATOM     11  C   UNL     1       5.448   4.283  18.756  0.00  0.00    +0.000 C 
ATOM     12  O   UNL     1       5.963   4.822  19.738  0.00  0.00    +0.000 OA
ATOM     13  N   UNL     1       5.052   2.966  18.809  0.00  0.00    +0.000 N 
ATOM     14  H   UNL     1       4.309   2.594  18.211  0.00  0.00    +0.000 HD
BRANCH  13  15
ATOM     15  O   UNL     1       5.207   2.338  20.067  0.00  0.00    +0.000 OA
ATOM     16  H   UNL     1       6.143   2.039  20.052  0.00  0.00    +0.000 HD
ENDBRANCH  13  15
ENDBRANCH  10  11
BRANCH  10  17
ATOM     17  S   UNL     1       6.934   5.414  16.813  0.00  0.00    +0.000 S 
ATOM     18  C   UNL     1       6.949   5.033  15.072  0.00  0.00    +0.000 C 
ATOM     19  O   UNL     1       7.118   6.847  16.940  0.00  0.00    +0.000 OA
ATOM     20  O   UNL     1       7.871   4.504  17.460  0.00  0.00    +0.000 OA
ENDBRANCH  10  17
ENDBRANCH   8  10
ENDBRANCH   7   8
ENDBRANCH   1   7
BRANCH   4  21
ATOM     21  O   UNL     1       0.482  10.827  19.922  0.00  0.00    +0.000 OA
BRANCH  21  22
ATOM     22  C   UNL     1       0.200  11.885  19.010  0.00  0.00    +0.000 C 
BRANCH  22  23
ATOM     23  C   UNL     1      -1.226  11.752  18.636  0.00  0.00    +0.000 A 
ATOM     24  N   UNL     1      -2.301  12.020  19.341  0.00  0.00    +0.000 NA
ATOM     25  C   UNL     1      -3.317  11.705  18.468  0.00  0.00    +0.000 A 
ATOM     26  N   UNL     1      -2.893  11.244  17.279  0.00  0.00    +0.000 NA
ATOM     27  O   UNL     1      -1.504  11.275  17.389  0.00  0.00    +0.000 OA
BRANCH  25  28
ATOM     28  C   UNL     1      -4.718  11.850  18.842  0.00  0.00    +0.000 A 
ATOM     29  C   UNL     1      -5.750  11.515  17.952  0.00  0.00    +0.000 A 
ATOM     30  C   UNL     1      -7.089  11.651  18.330  0.00  0.00    +0.000 A 
ATOM     31  C   UNL     1      -7.406  12.125  19.602  0.00  0.00    +0.000 A 
ATOM     32  C   UNL     1      -6.384  12.458  20.483  0.00  0.00    +0.000 A 
ATOM     33  F   UNL     1      -6.688  12.911  21.706  0.00  0.00    +0.000 F 
ATOM     34  C   UNL     1      -5.050  12.326  20.117  0.00  0.00    +0.000 A 
ENDBRANCH  25  28
ENDBRANCH  22  23
ENDBRANCH  21  22
ENDBRANCH   4  21
TORSDOF 10
ENDMDL
MODEL 2
REMARK VINA RESULT:      -8.7      3.186      3.925
REMARK  Name = 
REMARK  12 active torsions:
REMARK  status: ('A' for Active; 'I' for Inactive)
REMARK    1  A    between atoms: C_1  and  C_2
REMARK    2  A    between atoms: C_2  and  C_3
REMARK    3  A    between atoms: C_2  and  C_25
REMARK    4  A    between atoms: C_2  and  S_29
REMARK    5  A    between atoms: C_3  and  C_4
REMARK    6  A    between atoms: C_4  and  C_5
REMARK    7  A    between atoms: C_8  and  O_9
REMARK    8  A    between atoms: O_9  and  C_10
REMARK    9  A    between atoms: C_10  and  C_11
REMARK   10  A    between atoms: C_13  and  C_14
REMARK   11  A    between atoms: N_27  and  O_28
REMARK   12  A    between atoms: S_29  and  C_30
REMARK                            x       y       z     vdW  Elec       q    Type
REMARK                         _______ _______ _______ _____ _____    ______ ____
ROOT
ATOM      1  C   UNL     1       2.607   7.287  18.261  0.00  0.00    +0.000 A 
ATOM      2  C   UNL     1       2.180   8.435  17.585  0.00  0.00    +0.000 A 
ATOM      3  C   UNL     1       1.485   9.433  18.266  0.00  0.00    +0.000 A 
ATOM      4  C   UNL     1       1.186   9.289  19.620  0.00  0.00    +0.000 A 
ATOM      5  C   UNL     1       1.591   8.141  20.298  0.00  0.00    +0.000 A 
ATOM      6  C   UNL     1       2.299   7.145  19.620  0.00  0.00    +0.000 A 
ENDROOT
BRANCH   1   7
ATOM      7  C   UNL     1       3.380   6.214  17.539  0.00  0.00    +0.000 C 
BRANCH   7   8
ATOM      8  C   UNL     1       4.899   6.452  17.583  0.00  0.00    +0.000 C 
BRANCH   8  10
ATOM      9  C   UNL     1       4.879   3.922  17.320  0.00  0.00    +0.000 C 
ATOM     10  C   UNL     1       5.735   5.148  17.685  0.00  0.00    +0.000 C 
BRANCH  10  11
ATOM     11  C   UNL     1       6.317   4.998  19.088  0.00  0.00    +0.000 C 
ATOM     12  O   UNL     1       5.709   4.437  20.003  0.00  0.00    +0.000 OA
ATOM     13  N   UNL     1       7.546   5.573  19.315  0.00  0.00    +0.000 N 
ATOM     14  H   UNL     1       8.237   5.698  18.571  0.00  0.00    +0.000 HD
BRANCH  13  15
ATOM     15  O   UNL     1       8.065   5.396  20.619  0.00  0.00    +0.000 OA
ATOM     16  H   UNL     1       8.905   5.905  20.594  0.00  0.00    +0.000 HD
ENDBRANCH  13  15
ENDBRANCH  10  11
BRANCH  10  17
ATOM     17  S   UNL     1       7.133   5.263  16.533  0.00  0.00    +0.000 S 
ATOM     18  C   UNL     1       6.496   4.870  14.916  0.00  0.00    +0.000 C 
ATOM     19  O   UNL     1       7.576   6.644  16.496  0.00  0.00    +0.000 OA
ATOM     20  O   UNL     1       8.076   4.210  16.890  0.00  0.00    +0.000 OA
ENDBRANCH  10  17
ENDBRANCH   8  10
ENDBRANCH   7   8
ENDBRANCH   1   7
BRANCH   4  21
ATOM     21  O   UNL     1       0.552  10.358  20.182  0.00  0.00    +0.000 OA
BRANCH  21  22
ATOM     22  C   UNL     1       0.373  10.307  21.595  0.00  0.00    +0.000 C 
BRANCH  22  23
ATOM     23  C   UNL     1      -0.053  11.661  22.016  0.00  0.00    +0.000 A 
ATOM     24  N   UNL     1      -1.059  12.018  22.781  0.00  0.00    +0.000 NA
ATOM     25  C   UNL     1      -0.940  13.389  22.811  0.00  0.00    +0.000 A 
ATOM     26  N   UNL     1       0.083  13.864  22.082  0.00  0.00    +0.000 NA
ATOM     27  O   UNL     1       0.674  12.717  21.553  0.00  0.00    +0.000 OA
BRANCH  25  28
ATOM     28  C   UNL     1      -1.874  14.219  23.560  0.00  0.00    +0.000 A 
ATOM     29  C   UNL     1      -1.474  14.905  24.718  0.00  0.00    +0.000 A 
ATOM     30  C   UNL     1      -2.380  15.706  25.420  0.00  0.00    +0.000 A 
ATOM     31  C   UNL     1      -3.694  15.826  24.970  0.00  0.00    +0.000 A 
ATOM     32  C   UNL     1      -4.090  15.146  23.824  0.00  0.00    +0.000 A 
ATOM     33  F   UNL     1      -5.351  15.264  23.390  0.00  0.00    +0.000 F 
ATOM     34  C   UNL     1      -3.197  14.348  23.118  0.00  0.00    +0.000 A 
ENDBRANCH  25  28
ENDBRANCH  22  23
ENDBRANCH  21  22
ENDBRANCH   4  21
TORSDOF 10
ENDMDL
MODEL 3
REMARK VINA RESULT:      -8.6      3.027      3.841
REMARK  Name = 
REMARK  12 active torsions:
REMARK  status: ('A' for Active; 'I' for Inactive)
REMARK    1  A    between atoms: C_1  and  C_2
REMARK    2  A    between atoms: C_2  and  C_3
REMARK    3  A    between atoms: C_2  and  C_25
REMARK    4  A    between atoms: C_2  and  S_29
REMARK    5  A    between atoms: C_3  and  C_4
REMARK    6  A    between atoms: C_4  and  C_5
REMARK    7  A    between atoms: C_8  and  O_9
REMARK    8  A    between atoms: O_9  and  C_10
REMARK    9  A    between atoms: C_10  and  C_11
REMARK   10  A    between atoms: C_13  and  C_14
REMARK   11  A    between atoms: N_27  and  O_28
REMARK   12  A    between atoms: S_29  and  C_30
REMARK                            x       y       z     vdW  Elec       q    Type
REMARK                         _______ _______ _______ _____ _____    ______ ____
ROOT
ATOM      1  C   UNL     1       2.483   7.196  18.572  0.00  0.00    +0.000 A 
ATOM      2  C   UNL     1       2.166   7.115  19.932  0.00  0.00    +0.000 A 
ATOM      3  C   UNL     1       1.495   8.163  20.560  0.00  0.00    +0.000 A 
ATOM      4  C   UNL     1       1.154   9.312  19.849  0.00  0.00    +0.000 A 
ATOM      5  C   UNL     1       1.481   9.411  18.498  0.00  0.00    +0.000 A 
ATOM      6  C   UNL     1       2.143   8.356  17.863  0.00  0.00    +0.000 A 
ENDROOT
BRANCH   1   7
ATOM      7  C   UNL     1       3.186   6.059  17.878  0.00  0.00    +0.000 C 
BRANCH   7   8
ATOM      8  C   UNL     1       4.663   6.371  17.584  0.00  0.00    +0.000 C 
BRANCH   8  10
ATOM      9  C   UNL     1       4.816   3.858  17.221  0.00  0.00    +0.000 C 
ATOM     10  C   UNL     1       5.588   5.125  17.629  0.00  0.00    +0.000 C 
BRANCH  10  11
ATOM     11  C   UNL     1       6.193   4.962  19.020  0.00  0.00    +0.000 C 
ATOM     12  O   UNL     1       5.620   4.351  19.925  0.00  0.00    +0.000 OA
ATOM     13  N   UNL     1       7.399   5.582  19.250  0.00  0.00    +0.000 N 
ATOM     14  H   UNL     1       8.076   5.756  18.502  0.00  0.00    +0.000 HD
BRANCH  13  15
ATOM     15  O   UNL     1       7.941   5.391  20.543  0.00  0.00    +0.000 OA
ATOM     16  H   UNL     1       7.884   6.287  20.942  0.00  0.00    +0.000 HD
ENDBRANCH  13  15
ENDBRANCH  10  11
BRANCH  10  17
ATOM     17  S   UNL     1       6.964   5.382  16.472  0.00  0.00    +0.000 S 
ATOM     18  C   UNL     1       6.338   5.017  14.845  0.00  0.00    +0.000 C 
ATOM     19  O   UNL     1       7.314   6.790  16.492  0.00  0.00    +0.000 OA
ATOM     20  O   UNL     1       7.978   4.380  16.777  0.00  0.00    +0.000 OA
ENDBRANCH  10  17
ENDBRANCH   8  10
ENDBRANCH   7   8
ENDBRANCH   1   7
BRANCH   4  21
ATOM     21  O   UNL     1       0.453  10.239  20.563  0.00  0.00    +0.000 OA
BRANCH  21  22
ATOM     22  C   UNL     1       0.237  11.492  19.920  0.00  0.00    +0.000 C 
BRANCH  22  23
ATOM     23  C   UNL     1       0.019  12.487  20.994  0.00  0.00    +0.000 A 
ATOM     24  N   UNL     1      -1.094  12.828  21.600  0.00  0.00    +0.000 NA
ATOM     25  C   UNL     1      -0.667  13.783  22.495  0.00  0.00    +0.000 A 
ATOM     26  N   UNL     1       0.651  14.036  22.435  0.00  0.00    +0.000 NA
ATOM     27  O   UNL     1       1.108  13.176  21.439  0.00  0.00    +0.000 OA
BRANCH  25  28
ATOM     28  C   UNL     1      -1.595  14.454  23.396  0.00  0.00    +0.000 A 
ATOM     29  C   UNL     1      -1.159  15.453  24.281  0.00  0.00    +0.000 A 
ATOM     30  C   UNL     1      -2.064  16.094  25.133  0.00  0.00    +0.000 A 
ATOM     31  C   UNL     1      -3.412  15.738  25.108  0.00  0.00    +0.000 A 
ATOM     32  C   UNL     1      -3.843  14.748  24.233  0.00  0.00    +0.000 A 
ATOM     33  F   UNL     1      -5.138  14.408  24.206  0.00  0.00    +0.000 F 
ATOM     34  C   UNL     1      -2.951  14.105  23.381  0.00  0.00    +0.000 A 
ENDBRANCH  25  28
ENDBRANCH  22  23
ENDBRANCH  21  22
ENDBRANCH   4  21
TORSDOF 10
ENDMDL
MODEL 4
REMARK VINA RESULT:      -8.4      2.393      3.036
REMARK  Name = 
REMARK  12 active torsions:
REMARK  status: ('A' for Active; 'I' for Inactive)
REMARK    1  A    between atoms: C_1  and  C_2
REMARK    2  A    between atoms: C_2  and  C_3
REMARK    3  A    between atoms: C_2  and  C_25
REMARK    4  A    between atoms: C_2  and  S_29
REMARK    5  A    between atoms: C_3  and  C_4
REMARK    6  A    between atoms: C_4  and  C_5
REMARK    7  A    between atoms: C_8  and  O_9
REMARK    8  A    between atoms: O_9  and  C_10
REMARK    9  A    between atoms: C_10  and  C_11
REMARK   10  A    between atoms: C_13  and  C_14
REMARK   11  A    between atoms: N_27  and  O_28
REMARK   12  A    between atoms: S_29  and  C_30
REMARK                            x       y       z     vdW  Elec       q    Type
REMARK                         _______ _______ _______ _____ _____    ______ ____
ROOT
ATOM      1  C   UNL     1       2.612   6.373  18.641  0.00  0.00    +0.000 A 
ATOM      2  C   UNL     1       2.153   5.782  19.824  0.00  0.00    +0.000 A 
ATOM      3  C   UNL     1       1.543   6.559  20.806  0.00  0.00    +0.000 A 
ATOM      4  C   UNL     1       1.405   7.935  20.635  0.00  0.00    +0.000 A 
ATOM      5  C   UNL     1       1.875   8.537  19.469  0.00  0.00    +0.000 A 
ATOM      6  C   UNL     1       2.475   7.757  18.477  0.00  0.00    +0.000 A 
ENDROOT
BRANCH   1   7
ATOM      7  C   UNL     1       3.250   5.537  17.562  0.00  0.00    +0.000 C 
BRANCH   7   8
ATOM      8  C   UNL     1       4.698   5.961  17.268  0.00  0.00    +0.000 C 
BRANCH   8  10
ATOM      9  C   UNL     1       5.149   3.458  17.237  0.00  0.00    +0.000 C 
ATOM     10  C   UNL     1       5.744   4.846  17.535  0.00  0.00    +0.000 C 
BRANCH  10  11
ATOM     11  C   UNL     1       6.244   4.918  18.975  0.00  0.00    +0.000 C 
ATOM     12  O   UNL     1       5.562   4.547  19.933  0.00  0.00    +0.000 OA
ATOM     13  N   UNL     1       7.485   5.477  19.174  0.00  0.00    +0.000 N 
ATOM     14  H   UNL     1       8.220   5.443  18.463  0.00  0.00    +0.000 HD
BRANCH  13  15
ATOM     15  O   UNL     1       7.926   5.507  20.518  0.00  0.00    +0.000 OA
ATOM     16  H   UNL     1       7.098   5.360  21.026  0.00  0.00    +0.000 HD
ENDBRANCH  13  15
ENDBRANCH  10  11
BRANCH  10  17
ATOM     17  S   UNL     1       7.177   5.123  16.455  0.00  0.00    +0.000 S 
ATOM     18  C   UNL     1       6.657   4.712  14.801  0.00  0.00    +0.000 C 
ATOM     19  O   UNL     1       7.485   6.541  16.468  0.00  0.00    +0.000 OA
ATOM     20  O   UNL     1       8.200   4.156  16.836  0.00  0.00    +0.000 OA
ENDBRANCH  10  17
ENDBRANCH   8  10
ENDBRANCH   7   8
ENDBRANCH   1   7
BRANCH   4  21
ATOM     21  O   UNL     1       0.743   8.573  21.643  0.00  0.00    +0.000 OA
BRANCH  21  22
ATOM     22  C   UNL     1       0.960   9.978  21.744  0.00  0.00    +0.000 C 
BRANCH  22  23
ATOM     23  C   UNL     1       0.205  10.603  20.635  0.00  0.00    +0.000 A 
ATOM     24  N   UNL     1      -0.820  10.138  19.959  0.00  0.00    +0.000 NA
ATOM     25  C   UNL     1      -1.082  11.159  19.074  0.00  0.00    +0.000 A 
ATOM     26  N   UNL     1      -0.246  12.204  19.183  0.00  0.00    +0.000 NA
ATOM     27  O   UNL     1       0.611  11.837  20.219  0.00  0.00    +0.000 OA
BRANCH  25  28
ATOM     28  C   UNL     1      -2.166  11.069  18.104  0.00  0.00    +0.000 A 
ATOM     29  C   UNL     1      -3.406  11.685  18.336  0.00  0.00    +0.000 A 
ATOM     30  C   UNL     1      -4.433  11.597  17.391  0.00  0.00    +0.000 A 
ATOM     31  C   UNL     1      -4.227  10.891  16.207  0.00  0.00    +0.000 A 
ATOM     32  C   UNL     1      -3.000  10.281  15.978  0.00  0.00    +0.000 A 
ATOM     33  F   UNL     1      -2.801   9.605  14.838  0.00  0.00    +0.000 F 
ATOM     34  C   UNL     1      -1.972  10.362  16.910  0.00  0.00    +0.000 A 
ENDBRANCH  25  28
ENDBRANCH  22  23
ENDBRANCH  21  22
ENDBRANCH   4  21
TORSDOF 10
ENDMDL
MODEL 5
REMARK VINA RESULT:      -8.4      2.886      3.751
REMARK  Name = 
REMARK  12 active torsions:
REMARK  status: ('A' for Active; 'I' for Inactive)
REMARK    1  A    between atoms: C_1  and  C_2
REMARK    2  A    between atoms: C_2  and  C_3
REMARK    3  A    between atoms: C_2  and  C_25
REMARK    4  A    between atoms: C_2  and  S_29
REMARK    5  A    between atoms: C_3  and  C_4
REMARK    6  A    between atoms: C_4  and  C_5
REMARK    7  A    between atoms: C_8  and  O_9
REMARK    8  A    between atoms: O_9  and  C_10
REMARK    9  A    between atoms: C_10  and  C_11
REMARK   10  A    between atoms: C_13  and  C_14
REMARK   11  A    between atoms: N_27  and  O_28
REMARK   12  A    between atoms: S_29  and  C_30
REMARK                            x       y       z     vdW  Elec       q    Type
REMARK                         _______ _______ _______ _____ _____    ______ ____
ROOT
ATOM      1  C   UNL     1       2.354   7.512  18.679  0.00  0.00    +0.000 A 
ATOM      2  C   UNL     1       2.165   8.583  17.799  0.00  0.00    +0.000 A 
ATOM      3  C   UNL     1       1.551   9.754  18.240  0.00  0.00    +0.000 A 
ATOM      4  C   UNL     1       1.096   9.863  19.554  0.00  0.00    +0.000 A 
ATOM      5  C   UNL     1       1.264   8.795  20.433  0.00  0.00    +0.000 A 
ATOM      6  C   UNL     1       1.891   7.624  19.996  0.00  0.00    +0.000 A 
ENDROOT
BRANCH   1   7
ATOM      7  C   UNL     1       3.040   6.252  18.217  0.00  0.00    +0.000 C 
BRANCH   7   8
ATOM      8  C   UNL     1       4.510   6.185  18.661  0.00  0.00    +0.000 C 
BRANCH   8  10
ATOM      9  C   UNL     1       5.231   5.451  16.335  0.00  0.00    +0.000 C 
ATOM     10  C   UNL     1       5.366   5.181  17.844  0.00  0.00    +0.000 C 
BRANCH  10  11
ATOM     11  C   UNL     1       4.961   3.747  18.171  0.00  0.00    +0.000 C 
ATOM     12  O   UNL     1       4.265   3.065  17.415  0.00  0.00    +0.000 OA
ATOM     13  N   UNL     1       5.361   3.251  19.390  0.00  0.00    +0.000 N 
ATOM     14  H   UNL     1       6.207   3.579  19.863  0.00  0.00    +0.000 HD
BRANCH  13  15
ATOM     15  O   UNL     1       4.987   1.911  19.651  0.00  0.00    +0.000 OA
ATOM     16  H   UNL     1       4.790   1.558  18.755  0.00  0.00    +0.000 HD
ENDBRANCH  13  15
ENDBRANCH  10  11
BRANCH  10  17
ATOM     17  S   UNL     1       7.105   5.371  18.330  0.00  0.00    +0.000 S 
ATOM     18  C   UNL     1       7.606   7.000  17.807  0.00  0.00    +0.000 C 
ATOM     19  O   UNL     1       7.175   5.345  19.779  0.00  0.00    +0.000 OA
ATOM     20  O   UNL     1       7.880   4.413  17.550  0.00  0.00    +0.000 OA
ENDBRANCH  10  17
ENDBRANCH   8  10
ENDBRANCH   7   8
ENDBRANCH   1   7
BRANCH   4  21
ATOM     21  O   UNL     1       0.564  11.076  19.876  0.00  0.00    +0.000 OA
BRANCH  21  22
ATOM     22  C   UNL     1      -0.844  11.104  20.094  0.00  0.00    +0.000 C 
BRANCH  22  23
ATOM     23  C   UNL     1      -1.073  11.984  21.263  0.00  0.00    +0.000 A 
ATOM     24  N   UNL     1      -2.068  12.806  21.504  0.00  0.00    +0.000 NA
ATOM     25  C   UNL     1      -1.731  13.330  22.731  0.00  0.00    +0.000 A 
ATOM     26  N   UNL     1      -0.570  12.868  23.222  0.00  0.00    +0.000 NA
ATOM     27  O   UNL     1      -0.131  11.973  22.247  0.00  0.00    +0.000 OA
BRANCH  25  28
ATOM     28  C   UNL     1      -2.574  14.314  23.398  0.00  0.00    +0.000 A 
ATOM     29  C   UNL     1      -2.020  15.422  24.059  0.00  0.00    +0.000 A 
ATOM     30  C   UNL     1      -2.843  16.362  24.686  0.00  0.00    +0.000 A 
ATOM     31  C   UNL     1      -4.228  16.201  24.658  0.00  0.00    +0.000 A 
ATOM     32  C   UNL     1      -4.776  15.104  24.004  0.00  0.00    +0.000 A 
ATOM     33  F   UNL     1      -6.106  14.950  23.974  0.00  0.00    +0.000 F 
ATOM     34  C   UNL     1      -3.966  14.163  23.377  0.00  0.00    +0.000 A 
ENDBRANCH  25  28
ENDBRANCH  22  23
ENDBRANCH  21  22
ENDBRANCH   4  21
TORSDOF 10
ENDMDL
MODEL 6
REMARK VINA RESULT:      -8.4      2.138      2.736
REMARK  Name = 
REMARK  12 active torsions:
REMARK  status: ('A' for Active; 'I' for Inactive)
REMARK    1  A    between atoms: C_1  and  C_2
REMARK    2  A    between atoms: C_2  and  C_3
REMARK    3  A    between atoms: C_2  and  C_25
REMARK    4  A    between atoms: C_2  and  S_29
REMARK    5  A    between atoms: C_3  and  C_4
REMARK    6  A    between atoms: C_4  and  C_5
REMARK    7  A    between atoms: C_8  and  O_9
REMARK    8  A    between atoms: O_9  and  C_10
REMARK    9  A    between atoms: C_10  and  C_11
REMARK   10  A    between atoms: C_13  and  C_14
REMARK   11  A    between atoms: N_27  and  O_28
REMARK   12  A    between atoms: S_29  and  C_30
REMARK                            x       y       z     vdW  Elec       q    Type
REMARK                         _______ _______ _______ _____ _____    ______ ____
ROOT
ATOM      1  C   UNL     1       2.167   6.920  19.667  0.00  0.00    +0.000 A 
ATOM      2  C   UNL     1       1.540   7.623  20.702  0.00  0.00    +0.000 A 
ATOM      3  C   UNL     1       1.092   8.927  20.494  0.00  0.00    +0.000 A 
ATOM      4  C   UNL     1       1.286   9.554  19.264  0.00  0.00    +0.000 A 
ATOM      5  C   UNL     1       1.926   8.869  18.233  0.00  0.00    +0.000 A 
ATOM      6  C   UNL     1       2.364   7.557  18.435  0.00  0.00    +0.000 A 
ENDROOT
BRANCH   1   7
ATOM      7  C   UNL     1       2.631   5.502  19.875  0.00  0.00    +0.000 C 
BRANCH   7   8
ATOM      8  C   UNL     1       4.094   5.294  19.450  0.00  0.00    +0.000 C 
BRANCH   8  10
ATOM      9  C   UNL     1       3.090   4.279  17.345  0.00  0.00    +0.000 C 
ATOM     10  C   UNL     1       4.276   4.240  18.324  0.00  0.00    +0.000 C 
BRANCH  10  11
ATOM     11  C   UNL     1       4.434   2.845  18.922  0.00  0.00    +0.000 C 
ATOM     12  O   UNL     1       4.783   2.658  20.090  0.00  0.00    +0.000 OA
ATOM     13  N   UNL     1       4.224   1.780  18.076  0.00  0.00    +0.000 N 
ATOM     14  H   UNL     1       3.594   1.837  17.272  0.00  0.00    +0.000 HD
BRANCH  13  15
ATOM     15  O   UNL     1       4.356   0.502  18.669  0.00  0.00    +0.000 OA
ATOM     16  H   UNL     1       3.917   0.615  19.540  0.00  0.00    +0.000 HD
ENDBRANCH  13  15
ENDBRANCH  10  11
BRANCH  10  17
ATOM     17  S   UNL     1       5.807   4.614  17.422  0.00  0.00    +0.000 S 
ATOM     18  C   UNL     1       5.718   6.332  16.956  0.00  0.00    +0.000 C 
ATOM     19  O   UNL     1       6.919   4.475  18.342  0.00  0.00    +0.000 OA
ATOM     20  O   UNL     1       5.784   3.834  16.190  0.00  0.00    +0.000 OA
ENDBRANCH  10  17
ENDBRANCH   8  10
ENDBRANCH   7   8
ENDBRANCH   1   7
BRANCH   4  21
ATOM     21  O   UNL     1       0.755  10.807  19.172  0.00  0.00    +0.000 OA
BRANCH  21  22
ATOM     22  C   UNL     1       0.824  11.604  20.350  0.00  0.00    +0.000 C 
BRANCH  22  23
ATOM     23  C   UNL     1      -0.559  12.043  20.646  0.00  0.00    +0.000 A 
ATOM     24  N   UNL     1      -1.258  11.909  21.749  0.00  0.00    +0.000 NA
ATOM     25  C   UNL     1      -2.452  12.511  21.422  0.00  0.00    +0.000 A 
ATOM     26  N   UNL     1      -2.499  12.982  20.165  0.00  0.00    +0.000 NA
ATOM     27  O   UNL     1      -1.242  12.672  19.648  0.00  0.00    +0.000 OA
BRANCH  25  28
ATOM     28  C   UNL     1      -3.552  12.592  22.373  0.00  0.00    +0.000 A 
ATOM     29  C   UNL     1      -3.353  12.350  23.742  0.00  0.00    +0.000 A 
ATOM     30  C   UNL     1      -4.418  12.441  24.643  0.00  0.00    +0.000 A 
ATOM     31  C   UNL     1      -5.691  12.773  24.183  0.00  0.00    +0.000 A 
ATOM     32  C   UNL     1      -5.888  13.011  22.828  0.00  0.00    +0.000 A 
ATOM     33  F   UNL     1      -7.110  13.333  22.385  0.00  0.00    +0.000 F 
ATOM     34  C   UNL     1      -4.836  12.924  21.923  0.00  0.00    +0.000 A 
ENDBRANCH  25  28
ENDBRANCH  22  23
ENDBRANCH  21  22
ENDBRANCH   4  21
TORSDOF 10
ENDMDL
MODEL 7
REMARK VINA RESULT:      -8.4      2.134      2.582
REMARK  Name = 
REMARK  12 active torsions:
REMARK  status: ('A' for Active; 'I' for Inactive)
REMARK    1  A    between atoms: C_1  and  C_2
REMARK    2  A    between atoms: C_2  and  C_3
REMARK    3  A    between atoms: C_2  and  C_25
REMARK    4  A    between atoms: C_2  and  S_29
REMARK    5  A    between atoms: C_3  and  C_4
REMARK    6  A    between atoms: C_4  and  C_5
REMARK    7  A    between atoms: C_8  and  O_9
REMARK    8  A    between atoms: O_9  and  C_10
REMARK    9  A    between atoms: C_10  and  C_11
REMARK   10  A    between atoms: C_13  and  C_14
REMARK   11  A    between atoms: N_27  and  O_28
REMARK   12  A    between atoms: S_29  and  C_30
REMARK                            x       y       z     vdW  Elec       q    Type
REMARK                         _______ _______ _______ _____ _____    ______ ____
ROOT
ATOM      1  C   UNL     1       2.477   7.289  18.514  0.00  0.00    +0.000 A 
ATOM      2  C   UNL     1       2.051   7.368  19.845  0.00  0.00    +0.000 A 
ATOM      3  C   UNL     1       1.422   8.520  20.313  0.00  0.00    +0.000 A 
ATOM      4  C   UNL     1       1.233   9.615  19.472  0.00  0.00    +0.000 A 
ATOM      5  C   UNL     1       1.670   9.554  18.150  0.00  0.00    +0.000 A 
ATOM      6  C   UNL     1       2.289   8.395  17.675  0.00  0.00    +0.000 A 
ENDROOT
BRANCH   1   7
ATOM      7  C   UNL     1       3.135   6.039  17.992  0.00  0.00    +0.000 C 
BRANCH   7   8
ATOM      8  C   UNL     1       4.576   6.286  17.517  0.00  0.00    +0.000 C 
BRANCH   8  10
ATOM      9  C   UNL     1       4.836   4.040  16.352  0.00  0.00    +0.000 C 
ATOM     10  C   UNL     1       5.429   4.994  17.404  0.00  0.00    +0.000 C 
BRANCH  10  11
ATOM     11  C   UNL     1       5.529   4.302  18.760  0.00  0.00    +0.000 C 
ATOM     12  O   UNL     1       6.005   4.855  19.754  0.00  0.00    +0.000 OA
ATOM     13  N   UNL     1       5.114   2.992  18.821  0.00  0.00    +0.000 N 
ATOM     14  H   UNL     1       4.396   2.616  18.196  0.00  0.00    +0.000 HD
BRANCH  13  15
ATOM     15  O   UNL     1       5.200   2.389  20.098  0.00  0.00    +0.000 OA
ATOM     16  H   UNL     1       4.700   1.551  19.982  0.00  0.00    +0.000 HD
ENDBRANCH  13  15
ENDBRANCH  10  11
BRANCH  10  17
ATOM     17  S   UNL     1       7.115   5.453  16.909  0.00  0.00    +0.000 S 
ATOM     18  C   UNL     1       7.489   6.987  17.735  0.00  0.00    +0.000 C 
ATOM     19  O   UNL     1       8.026   4.452  17.430  0.00  0.00    +0.000 OA
ATOM     20  O   UNL     1       7.086   5.731  15.479  0.00  0.00    +0.000 OA
ENDBRANCH  10  17
ENDBRANCH   8  10
ENDBRANCH   7   8
ENDBRANCH   1   7
BRANCH   4  21
ATOM     21  O   UNL     1       0.558  10.658  20.034  0.00  0.00    +0.000 OA
BRANCH  21  22
ATOM     22  C   UNL     1       0.632  10.759  21.454  0.00  0.00    +0.000 C 
BRANCH  22  23
ATOM     23  C   UNL     1      -0.644  11.364  21.902  0.00  0.00    +0.000 A 
ATOM     24  N   UNL     1      -1.495  12.105  21.231  0.00  0.00    +0.000 NA
ATOM     25  C   UNL     1      -2.473  12.356  22.166  0.00  0.00    +0.000 A 
ATOM     26  N   UNL     1      -2.232  11.810  23.369  0.00  0.00    +0.000 NA
ATOM     27  O   UNL     1      -1.016  11.150  23.196  0.00  0.00    +0.000 OA
BRANCH  25  28
ATOM     28  C   UNL     1      -3.643  13.165  21.849  0.00  0.00    +0.000 A 
ATOM     29  C   UNL     1      -3.532  14.342  21.091  0.00  0.00    +0.000 A 
ATOM     30  C   UNL     1      -4.666  15.102  20.787  0.00  0.00    +0.000 A 
ATOM     31  C   UNL     1      -5.918  14.692  21.240  0.00  0.00    +0.000 A 
ATOM     32  C   UNL     1      -6.027  13.527  21.991  0.00  0.00    +0.000 A 
ATOM     33  F   UNL     1      -7.231  13.131  22.423  0.00  0.00    +0.000 F 
ATOM     34  C   UNL     1      -4.907  12.764  22.298  0.00  0.00    +0.000 A 
ENDBRANCH  25  28
ENDBRANCH  22  23
ENDBRANCH  21  22
ENDBRANCH   4  21
TORSDOF 10
ENDMDL
MODEL 8
REMARK VINA RESULT:      -8.4      2.845      3.258
REMARK  Name = 
REMARK  12 active torsions:
REMARK  status: ('A' for Active; 'I' for Inactive)
REMARK    1  A    between atoms: C_1  and  C_2
REMARK    2  A    between atoms: C_2  and  C_3
REMARK    3  A    between atoms: C_2  and  C_25
REMARK    4  A    between atoms: C_2  and  S_29
REMARK    5  A    between atoms: C_3  and  C_4
REMARK    6  A    between atoms: C_4  and  C_5
REMARK    7  A    between atoms: C_8  and  O_9
REMARK    8  A    between atoms: O_9  and  C_10
REMARK    9  A    between atoms: C_10  and  C_11
REMARK   10  A    between atoms: C_13  and  C_14
REMARK   11  A    between atoms: N_27  and  O_28
REMARK   12  A    between atoms: S_29  and  C_30
REMARK                            x       y       z     vdW  Elec       q    Type
REMARK                         _______ _______ _______ _____ _____    ______ ____
ROOT
ATOM      1  C   UNL     1       2.390   7.266  19.078  0.00  0.00    +0.000 A 
ATOM      2  C   UNL     1       1.782   7.639  20.282  0.00  0.00    +0.000 A 
ATOM      3  C   UNL     1       1.134   8.868  20.390  0.00  0.00    +0.000 A 
ATOM      4  C   UNL     1       1.105   9.750  19.310  0.00  0.00    +0.000 A 
ATOM      5  C   UNL     1       1.723   9.396  18.113  0.00  0.00    +0.000 A 
ATOM      6  C   UNL     1       2.363   8.158  17.999  0.00  0.00    +0.000 A 
ENDROOT
BRANCH   1   7
ATOM      7  C   UNL     1       3.071   5.929  18.944  0.00  0.00    +0.000 C 
BRANCH   7   8
ATOM      8  C   UNL     1       4.604   6.041  18.997  0.00  0.00    +0.000 C 
BRANCH   8  10
ATOM      9  C   UNL     1       5.006   5.543  16.536  0.00  0.00    +0.000 C 
ATOM     10  C   UNL     1       5.335   5.125  17.980  0.00  0.00    +0.000 C 
BRANCH  10  11
ATOM     11  C   UNL     1       4.960   3.664  18.214  0.00  0.00    +0.000 C 
ATOM     12  O   UNL     1       4.300   3.010  17.404  0.00  0.00    +0.000 OA
ATOM     13  N   UNL     1       5.345   3.109  19.413  0.00  0.00    +0.000 N 
ATOM     14  H   UNL     1       6.172   3.431  19.924  0.00  0.00    +0.000 HD
BRANCH  13  15
ATOM     15  O   UNL     1       5.002   1.748  19.587  0.00  0.00    +0.000 OA
ATOM     16  H   UNL     1       4.493   1.754  20.428  0.00  0.00    +0.000 HD
ENDBRANCH  13  15
ENDBRANCH  10  11
BRANCH  10  17
ATOM     17  S   UNL     1       7.124   5.270  18.249  0.00  0.00    +0.000 S 
ATOM     18  C   UNL     1       7.570   6.943  17.825  0.00  0.00    +0.000 C 
ATOM     19  O   UNL     1       7.383   5.103  19.667  0.00  0.00    +0.000 OA
ATOM     20  O   UNL     1       7.780   4.394  17.285  0.00  0.00    +0.000 OA
ENDBRANCH  10  17
ENDBRANCH   8  10
ENDBRANCH   7   8
ENDBRANCH   1   7
BRANCH   4  21
ATOM     21  O   UNL     1       0.394  10.894  19.526  0.00  0.00    +0.000 OA
BRANCH  21  22
ATOM     22  C   UNL     1       0.934  11.795  20.488  0.00  0.00    +0.000 C 
BRANCH  22  23
ATOM     23  C   UNL     1      -0.132  12.037  21.486  0.00  0.00    +0.000 A 
ATOM     24  N   UNL     1      -1.150  12.865  21.433  0.00  0.00    +0.000 NA
ATOM     25  C   UNL     1      -1.782  12.638  22.635  0.00  0.00    +0.000 A 
ATOM     26  N   UNL     1      -1.173  11.724  23.408  0.00  0.00    +0.000 NA
ATOM     27  O   UNL     1      -0.077  11.323  22.646  0.00  0.00    +0.000 OA
BRANCH  25  28
ATOM     28  C   UNL     1      -2.990  13.362  23.011  0.00  0.00    +0.000 A 
ATOM     29  C   UNL     1      -4.137  12.686  23.454  0.00  0.00    +0.000 A 
ATOM     30  C   UNL     1      -5.285  13.395  23.820  0.00  0.00    +0.000 A 
ATOM     31  C   UNL     1      -5.294  14.787  23.743  0.00  0.00    +0.000 A 
ATOM     32  C   UNL     1      -4.158  15.456  23.303  0.00  0.00    +0.000 A 
ATOM     33  F   UNL     1      -4.166  16.794  23.232  0.00  0.00    +0.000 F 
ATOM     34  C   UNL     1      -3.012  14.760  22.937  0.00  0.00    +0.000 A 
ENDBRANCH  25  28
ENDBRANCH  22  23
ENDBRANCH  21  22
ENDBRANCH   4  21
TORSDOF 10
ENDMDL
MODEL 9
REMARK VINA RESULT:      -8.4      2.313      3.042
REMARK  Name = 
REMARK  12 active torsions:
REMARK  status: ('A' for Active; 'I' for Inactive)
REMARK    1  A    between atoms: C_1  and  C_2
REMARK    2  A    between atoms: C_2  and  C_3
REMARK    3  A    between atoms: C_2  and  C_25
REMARK    4  A    between atoms: C_2  and  S_29
REMARK    5  A    between atoms: C_3  and  C_4
REMARK    6  A    between atoms: C_4  and  C_5
REMARK    7  A    between atoms: C_8  and  O_9
REMARK    8  A    between atoms: O_9  and  C_10
REMARK    9  A    between atoms: C_10  and  C_11
REMARK   10  A    between atoms: C_13  and  C_14
REMARK   11  A    between atoms: N_27  and  O_28
REMARK   12  A    between atoms: S_29  and  C_30
REMARK                            x       y       z     vdW  Elec       q    Type
REMARK                         _______ _______ _______ _____ _____    ______ ____
ROOT
ATOM      1  C   UNL     1       2.579   7.087  18.480  0.00  0.00    +0.000 A 
ATOM      2  C   UNL     1       2.129   8.287  17.918  0.00  0.00    +0.000 A 
ATOM      3  C   UNL     1       1.468   9.227  18.707  0.00  0.00    +0.000 A 
ATOM      4  C   UNL     1       1.227   8.974  20.056  0.00  0.00    +0.000 A 
ATOM      5  C   UNL     1       1.654   7.775  20.621  0.00  0.00    +0.000 A 
ATOM      6  C   UNL     1       2.328   6.836  19.835  0.00  0.00    +0.000 A 
ENDROOT
BRANCH   1   7
ATOM      7  C   UNL     1       3.315   6.075  17.641  0.00  0.00    +0.000 C 
BRANCH   7   8
ATOM      8  C   UNL     1       4.811   6.404  17.500  0.00  0.00    +0.000 C 
BRANCH   8  10
ATOM      9  C   UNL     1       4.972   4.198  18.755  0.00  0.00    +0.000 C 
ATOM     10  C   UNL     1       5.751   5.257  17.955  0.00  0.00    +0.000 C 
BRANCH  10  11
ATOM     11  C   UNL     1       6.906   5.812  18.782  0.00  0.00    +0.000 C 
ATOM     12  O   UNL     1       7.191   5.378  19.901  0.00  0.00    +0.000 OA
ATOM     13  N   UNL     1       7.598   6.875  18.248  0.00  0.00    +0.000 N 
ATOM     14  H   UNL     1       7.679   7.022  17.239  0.00  0.00    +0.000 HD
BRANCH  13  15
ATOM     15  O   UNL     1       8.676   7.350  19.032  0.00  0.00    +0.000 OA
ATOM     16  H   UNL     1       8.351   7.231  19.951  0.00  0.00    +0.000 HD
ENDBRANCH  13  15
ENDBRANCH  10  11
BRANCH  10  17
ATOM     17  S   UNL     1       6.472   4.478  16.482  0.00  0.00    +0.000 S 
ATOM     18  C   UNL     1       6.145   5.573  15.114  0.00  0.00    +0.000 C 
ATOM     19  O   UNL     1       7.911   4.427  16.656  0.00  0.00    +0.000 OA
ATOM     20  O   UNL     1       5.729   3.248  16.234  0.00  0.00    +0.000 OA
ENDBRANCH  10  17
ENDBRANCH   8  10
ENDBRANCH   7   8
ENDBRANCH   1   7
BRANCH   4  21
ATOM     21  O   UNL     1       0.622   9.995  20.729  0.00  0.00    +0.000 OA
BRANCH  21  22
ATOM     22  C   UNL     1       0.622  11.262  20.077  0.00  0.00    +0.000 C 
BRANCH  22  23
ATOM     23  C   UNL     1      -0.599  11.969  20.525  0.00  0.00    +0.000 A 
ATOM     24  N   UNL     1      -1.455  11.639  21.464  0.00  0.00    +0.000 NA
ATOM     25  C   UNL     1      -2.362  12.673  21.418  0.00  0.00    +0.000 A 
ATOM     26  N   UNL     1      -2.092  13.595  20.480  0.00  0.00    +0.000 NA
ATOM     27  O   UNL     1      -0.920  13.129  19.885  0.00  0.00    +0.000 OA
BRANCH  25  28
ATOM     28  C   UNL     1      -3.514  12.718  22.310  0.00  0.00    +0.000 A 
ATOM     29  C   UNL     1      -3.381  12.480  23.687  0.00  0.00    +0.000 A 
ATOM     30  C   UNL     1      -4.495  12.537  24.530  0.00  0.00    +0.000 A 
ATOM     31  C   UNL     1      -5.751  12.830  24.002  0.00  0.00    +0.000 A 
ATOM     32  C   UNL     1      -5.882  13.065  22.639  0.00  0.00    +0.000 A 
ATOM     33  F   UNL     1      -7.089  13.350  22.131  0.00  0.00    +0.000 F 
ATOM     34  C   UNL     1      -4.782  13.012  21.791  0.00  0.00    +0.000 A 
ENDBRANCH  25  28
ENDBRANCH  22  23
ENDBRANCH  21  22
ENDBRANCH   4  21
TORSDOF 10
ENDMDL
