MODEL 1
REMARK VINA RESULT:      -7.6      0.000      0.000
REMARK  Name = 
REMARK  7 active torsions:
REMARK  status: ('A' for Active; 'I' for Inactive)
REMARK    1  A    between atoms: C_1  and  C_2
REMARK    2  A    between atoms: C_2  and  C_3
REMARK    3  A    between atoms: C_2  and  C_4
REMARK    4  A    between atoms: C_2  and  C_5
REMARK    5  A    between atoms: C_9  and  C_10
REMARK    6  A    between atoms: C_16  and  C_17
REMARK    7  A    between atoms: C_21  and  C_22
REMARK                            x       y       z     vdW  Elec       q    Type
REMARK                         _______ _______ _______ _____ _____    ______ ____
ROOT
ATOM      1  C   UNL     1       3.436   6.332  18.001  0.00  0.00    +0.000 C 
ATOM      2  CA  UNL     1       2.703   7.201  18.713  0.00  0.00    +0.000 A 
ATOM      3  N   UNL     1       2.303   6.979  20.007  0.00  0.00    +0.000 N 
ATOM      4  C   UNL     1       1.541   7.833  20.757  0.00  0.00    +0.000 A 
ATOM      5  O   UNL     1       1.194   7.564  21.902  0.00  0.00    +0.000 OA
ATOM      6  CA  UNL     1       1.150   9.118  20.063  0.00  0.00    +0.000 A 
ATOM      7  C   UNL     1       0.377   9.989  20.732  0.00  0.00    +0.000 C 
ATOM      8  N   UNL     1       1.597   9.356  18.786  0.00  0.00    +0.000 N 
ATOM      9  C   UNL     1       2.355   8.497  18.043  0.00  0.00    +0.000 A 
ATOM     10  O   UNL     1       2.738   8.800  16.916  0.00  0.00    +0.000 OA
ATOM     11  H   UNL     1       2.584   6.096  20.435  0.00  0.00    +0.000 HD
ATOM     12  H   UNL     1       1.381  10.236  18.335  0.00  0.00    +0.000 HD
ENDROOT
BRANCH   1  17
ATOM     13  C   UNL     1       5.369   4.777  18.467  0.00  0.00    +0.000 A 
ATOM     14  N   UNL     1       5.370   3.575  19.160  0.00  0.00    +0.000 N 
ATOM     15  C   UNL     1       4.094   3.282  19.536  0.00  0.00    +0.000 A 
ATOM     16  N   UNL     1       3.254   4.186  19.100  0.00  0.00    +0.000 NA
ATOM     17  C   UNL     1       4.027   5.122  18.451  0.00  0.00    +0.000 A 
ATOM     18  H   UNL     1       6.186   3.035  19.414  0.00  0.00    +0.000 HD
BRANCH  13  20
ATOM     19  C   UNL     1       7.467   4.503  17.105  0.00  0.00    +0.000 C 
ATOM     20  C   UNL     1       6.684   5.431  18.065  0.00  0.00    +0.000 C 
ATOM     21  C   UNL     1       7.460   5.717  19.370  0.00  0.00    +0.000 C 
ATOM     22  C   UNL     1       6.562   6.781  17.334  0.00  0.00    +0.000 C 
ENDBRANCH  13  20
ENDBRANCH   1  17
BRANCH   7  23
ATOM     23  C   UNL     1      -0.113  11.263  20.195  0.00  0.00    +0.000 A 
ATOM     24  C   UNL     1      -1.443  11.391  19.782  0.00  0.00    +0.000 A 
ATOM     25  C   UNL     1      -1.903  12.601  19.256  0.00  0.00    +0.000 A 
ATOM     26  C   UNL     1      -1.035  13.689  19.144  0.00  0.00    +0.000 A 
ATOM     27  C   UNL     1       0.295  13.572  19.563  0.00  0.00    +0.000 A 
ATOM     28  C   UNL     1       0.753  12.359  20.091  0.00  0.00    +0.000 A 
BRANCH  27  29
ATOM     29  C   UNL     1       1.184  14.687  19.452  0.00  0.00    +0.000 C 
ATOM     30  N   UNL     1       1.909  15.593  19.359  0.00  0.00    +0.000 NA
ENDBRANCH  27  29
ENDBRANCH   7  23
TORSDOF 4
ENDMDL
MODEL 2
REMARK VINA RESULT:      -7.5      1.387      2.038
REMARK  Name = 
REMARK  7 active torsions:
REMARK  status: ('A' for Active; 'I' for Inactive)
REMARK    1  A    between atoms: C_1  and  C_2
REMARK    2  A    between atoms: C_2  and  C_3
REMARK    3  A    between atoms: C_2  and  C_4
REMARK    4  A    between atoms: C_2  and  C_5
REMARK    5  A    between atoms: C_9  and  C_10
REMARK    6  A    between atoms: C_16  and  C_17
REMARK    7  A    between atoms: C_21  and  C_22
REMARK                            x       y       z     vdW  Elec       q    Type
REMARK                         _______ _______ _______ _____ _____    ______ ____
ROOT
ATOM      1  C   UNL     1       3.547   6.212  17.954  0.00  0.00    +0.000 C 
ATOM      2  CA  UNL     1       2.754   7.031  18.662  0.00  0.00    +0.000 A 
ATOM      3  N   UNL     1       2.389   6.799  19.965  0.00  0.00    +0.000 N 
ATOM      4  C   UNL     1       1.568   7.600  20.711  0.00  0.00    +0.000 A 
ATOM      5  O   UNL     1       1.258   7.323  21.865  0.00  0.00    +0.000 OA
ATOM      6  CA  UNL     1       1.066   8.837  20.003  0.00  0.00    +0.000 A 
ATOM      7  C   UNL     1       0.232   9.654  20.668  0.00  0.00    +0.000 C 
ATOM      8  N   UNL     1       1.477   9.090  18.717  0.00  0.00    +0.000 N 
ATOM      9  C   UNL     1       2.294   8.283  17.977  0.00  0.00    +0.000 A 
ATOM     10  O   UNL     1       2.637   8.598  16.841  0.00  0.00    +0.000 OA
ATOM     11  H   UNL     1       2.745   5.948  20.403  0.00  0.00    +0.000 HD
ATOM     12  H   UNL     1       1.185   9.941  18.255  0.00  0.00    +0.000 HD
ENDROOT
BRANCH   1  17
ATOM     13  C   UNL     1       5.602   4.807  18.374  0.00  0.00    +0.000 A 
ATOM     14  N   UNL     1       5.718   3.635  19.108  0.00  0.00    +0.000 N 
ATOM     15  C   UNL     1       4.484   3.273  19.558  0.00  0.00    +0.000 A 
ATOM     16  N   UNL     1       3.565   4.103  19.135  0.00  0.00    +0.000 NA
ATOM     17  C   UNL     1       4.240   5.063  18.415  0.00  0.00    +0.000 A 
ATOM     18  H   UNL     1       6.580   3.160  19.339  0.00  0.00    +0.000 HD
BRANCH  13  20
ATOM     19  C   UNL     1       7.541   4.701  16.775  0.00  0.00    +0.000 C 
ATOM     20  C   UNL     1       6.848   5.531  17.883  0.00  0.00    +0.000 C 
ATOM     21  C   UNL     1       7.756   5.745  19.114  0.00  0.00    +0.000 C 
ATOM     22  C   UNL     1       6.614   6.926  17.276  0.00  0.00    +0.000 C 
ENDBRANCH  13  20
ENDBRANCH   1  17
BRANCH   7  23
ATOM     23  C   UNL     1      -0.366  10.875  20.117  0.00  0.00    +0.000 A 
ATOM     24  C   UNL     1       0.202  12.123  20.389  0.00  0.00    +0.000 A 
ATOM     25  C   UNL     1      -0.378  13.286  19.877  0.00  0.00    +0.000 A 
ATOM     26  C   UNL     1      -1.528  13.204  19.088  0.00  0.00    +0.000 A 
ATOM     27  C   UNL     1      -2.097  11.958  18.805  0.00  0.00    +0.000 A 
ATOM     28  C   UNL     1      -1.513  10.794  19.318  0.00  0.00    +0.000 A 
BRANCH  27  29
ATOM     29  C   UNL     1      -3.273  11.873  17.994  0.00  0.00    +0.000 C 
ATOM     30  N   UNL     1      -4.229  11.802  17.333  0.00  0.00    +0.000 NA
ENDBRANCH  27  29
ENDBRANCH   7  23
TORSDOF 4
ENDMDL
MODEL 3
REMARK VINA RESULT:      -7.4      0.507      1.051
REMARK  Name = 
REMARK  7 active torsions:
REMARK  status: ('A' for Active; 'I' for Inactive)
REMARK    1  A    between atoms: C_1  and  C_2
REMARK    2  A    between atoms: C_2  and  C_3
REMARK    3  A    between atoms: C_2  and  C_4
REMARK    4  A    between atoms: C_2  and  C_5
REMARK    5  A    between atoms: C_9  and  C_10
REMARK    6  A    between atoms: C_16  and  C_17
REMARK    7  A    between atoms: C_21  and  C_22
REMARK                            x       y       z     vdW  Elec       q    Type
REMARK                         _______ _______ _______ _____ _____    ______ ____
ROOT
ATOM      1  C   UNL     1       3.311   6.348  17.985  0.00  0.00    +0.000 C 
ATOM      2  CA  UNL     1       2.614   7.222  18.726  0.00  0.00    +0.000 A 
ATOM      3  N   UNL     1       2.255   6.999  20.032  0.00  0.00    +0.000 N 
ATOM      4  C   UNL     1       1.529   7.858  20.811  0.00  0.00    +0.000 A 
ATOM      5  O   UNL     1       1.218   7.587  21.966  0.00  0.00    +0.000 OA
ATOM      6  CA  UNL     1       1.131   9.151  20.137  0.00  0.00    +0.000 A 
ATOM      7  C   UNL     1       0.392  10.028  20.835  0.00  0.00    +0.000 C 
ATOM      8  N   UNL     1       1.538   9.390  18.847  0.00  0.00    +0.000 N 
ATOM      9  C   UNL     1       2.259   8.525  18.074  0.00  0.00    +0.000 A 
ATOM     10  O   UNL     1       2.607   8.830  16.936  0.00  0.00    +0.000 OA
ATOM     11  H   UNL     1       2.539   6.110  20.446  0.00  0.00    +0.000 HD
ATOM     12  H   UNL     1       1.317  10.274  18.407  0.00  0.00    +0.000 HD
ENDROOT
BRANCH   1  17
ATOM     13  C   UNL     1       5.162   4.635  18.107  0.00  0.00    +0.000 A 
ATOM     14  N   UNL     1       5.257   3.515  18.922  0.00  0.00    +0.000 N 
ATOM     15  C   UNL     1       4.118   3.409  19.660  0.00  0.00    +0.000 A 
ATOM     16  N   UNL     1       3.268   4.357  19.356  0.00  0.00    +0.000 NA
ATOM     17  C   UNL     1       3.903   5.129  18.409  0.00  0.00    +0.000 A 
ATOM     18  H   UNL     1       6.064   2.913  19.013  0.00  0.00    +0.000 HD
BRANCH  13  20
ATOM     19  C   UNL     1       6.504   6.630  17.367  0.00  0.00    +0.000 C 
ATOM     20  C   UNL     1       6.361   5.090  17.287  0.00  0.00    +0.000 C 
ATOM     21  C   UNL     1       6.130   4.595  15.842  0.00  0.00    +0.000 C 
ATOM     22  C   UNL     1       7.723   4.520  17.723  0.00  0.00    +0.000 C 
ENDBRANCH  13  20
ENDBRANCH   1  17
BRANCH   7  23
ATOM     23  C   UNL     1      -0.100  11.311  20.321  0.00  0.00    +0.000 A 
ATOM     24  C   UNL     1      -1.383  11.407  19.773  0.00  0.00    +0.000 A 
ATOM     25  C   UNL     1      -1.843  12.625  19.270  0.00  0.00    +0.000 A 
ATOM     26  C   UNL     1      -1.023  13.755  19.315  0.00  0.00    +0.000 A 
ATOM     27  C   UNL     1       0.258  13.669  19.870  0.00  0.00    +0.000 A 
ATOM     28  C   UNL     1       0.717  12.447  20.375  0.00  0.00    +0.000 A 
BRANCH  27  29
ATOM     29  C   UNL     1       1.099  14.826  19.920  0.00  0.00    +0.000 C 
ATOM     30  N   UNL     1       1.782  15.767  19.963  0.00  0.00    +0.000 NA
ENDBRANCH  27  29
ENDBRANCH   7  23
TORSDOF 4
ENDMDL
MODEL 4
REMARK VINA RESULT:      -7.3      1.814      3.331
REMARK  Name = 
REMARK  7 active torsions:
REMARK  status: ('A' for Active; 'I' for Inactive)
REMARK    1  A    between atoms: C_1  and  C_2
REMARK    2  A    between atoms: C_2  and  C_3
REMARK    3  A    between atoms: C_2  and  C_4
REMARK    4  A    between atoms: C_2  and  C_5
REMARK    5  A    between atoms: C_9  and  C_10
REMARK    6  A    between atoms: C_16  and  C_17
REMARK    7  A    between atoms: C_21  and  C_22
REMARK                            x       y       z     vdW  Elec       q    Type
REMARK                         _______ _______ _______ _____ _____    ______ ____
ROOT
ATOM      1  C   UNL     1       2.849   6.033  20.273  0.00  0.00    +0.000 C 
ATOM      2  CA  UNL     1       2.318   7.179  19.822  0.00  0.00    +0.000 A 
ATOM      3  N   UNL     1       2.633   7.741  18.610  0.00  0.00    +0.000 N 
ATOM      4  C   UNL     1       2.126   8.917  18.127  0.00  0.00    +0.000 A 
ATOM      5  O   UNL     1       2.469   9.380  17.044  0.00  0.00    +0.000 OA
ATOM      6  CA  UNL     1       1.128   9.602  19.031  0.00  0.00    +0.000 A 
ATOM      7  C   UNL     1       0.612  10.776  18.631  0.00  0.00    +0.000 C 
ATOM      8  N   UNL     1       0.778   9.008  20.219  0.00  0.00    +0.000 N 
ATOM      9  C   UNL     1       1.292   7.836  20.696  0.00  0.00    +0.000 A 
ATOM     10  O   UNL     1       0.902   7.358  21.758  0.00  0.00    +0.000 OA
ATOM     11  H   UNL     1       3.316   7.248  18.033  0.00  0.00    +0.000 HD
ATOM     12  H   UNL     1       0.073   9.436  20.806  0.00  0.00    +0.000 HD
ENDROOT
BRANCH   1  17
ATOM     13  C   UNL     1       3.364   4.021  18.837  0.00  0.00    +0.000 A 
ATOM     14  N   UNL     1       4.569   3.654  18.255  0.00  0.00    +0.000 N 
ATOM     15  C   UNL     1       5.529   4.543  18.631  0.00  0.00    +0.000 A 
ATOM     16  N   UNL     1       5.045   5.443  19.450  0.00  0.00    +0.000 NA
ATOM     17  C   UNL     1       3.707   5.142  19.576  0.00  0.00    +0.000 A 
ATOM     18  H   UNL     1       4.707   2.895  17.601  0.00  0.00    +0.000 HD
BRANCH  13  20
ATOM     19  C   UNL     1       2.412   1.948  17.775  0.00  0.00    +0.000 C 
ATOM     20  C   UNL     1       2.079   3.295  18.462  0.00  0.00    +0.000 C 
ATOM     21  C   UNL     1       1.280   4.244  17.542  0.00  0.00    +0.000 C 
ATOM     22  C   UNL     1       1.143   2.946  19.635  0.00  0.00    +0.000 C 
ENDBRANCH  13  20
ENDBRANCH   1  17
BRANCH   7  23
ATOM     23  C   UNL     1      -0.343  11.581  19.401  0.00  0.00    +0.000 A 
ATOM     24  C   UNL     1      -1.713  11.491  19.141  0.00  0.00    +0.000 A 
ATOM     25  C   UNL     1      -2.619  12.270  19.863  0.00  0.00    +0.000 A 
ATOM     26  C   UNL     1      -2.158  13.141  20.853  0.00  0.00    +0.000 A 
ATOM     27  C   UNL     1      -0.789  13.230  21.126  0.00  0.00    +0.000 A 
ATOM     28  C   UNL     1       0.117  12.447  20.401  0.00  0.00    +0.000 A 
BRANCH  27  29
ATOM     29  C   UNL     1      -0.314  14.120  22.141  0.00  0.00    +0.000 C 
ATOM     30  N   UNL     1       0.073  14.845  22.965  0.00  0.00    +0.000 NA
ENDBRANCH  27  29
ENDBRANCH   7  23
TORSDOF 4
ENDMDL
MODEL 5
REMARK VINA RESULT:      -7.3      1.853      3.501
REMARK  Name = 
REMARK  7 active torsions:
REMARK  status: ('A' for Active; 'I' for Inactive)
REMARK    1  A    between atoms: C_1  and  C_2
REMARK    2  A    between atoms: C_2  and  C_3
REMARK    3  A    between atoms: C_2  and  C_4
REMARK    4  A    between atoms: C_2  and  C_5
REMARK    5  A    between atoms: C_9  and  C_10
REMARK    6  A    between atoms: C_16  and  C_17
REMARK    7  A    between atoms: C_21  and  C_22
REMARK                            x       y       z     vdW  Elec       q    Type
REMARK                         _______ _______ _______ _____ _____    ______ ____
ROOT
ATOM      1  C   UNL     1       2.546   6.286  20.367  0.00  0.00    +0.000 C 
ATOM      2  CA  UNL     1       2.047   7.453  19.931  0.00  0.00    +0.000 A 
ATOM      3  N   UNL     1       2.339   7.996  18.705  0.00  0.00    +0.000 N 
ATOM      4  C   UNL     1       1.864   9.191  18.235  0.00  0.00    +0.000 A 
ATOM      5  O   UNL     1       2.184   9.634  17.138  0.00  0.00    +0.000 OA
ATOM      6  CA  UNL     1       0.932   9.922  19.174  0.00  0.00    +0.000 A 
ATOM      7  C   UNL     1       0.452  11.115  18.789  0.00  0.00    +0.000 C 
ATOM      8  N   UNL     1       0.604   9.348  20.379  0.00  0.00    +0.000 N 
ATOM      9  C   UNL     1       1.085   8.157  20.842  0.00  0.00    +0.000 A 
ATOM     10  O   UNL     1       0.717   7.700  21.921  0.00  0.00    +0.000 OA
ATOM     11  H   UNL     1       2.977   7.472  18.105  0.00  0.00    +0.000 HD
ATOM     12  H   UNL     1      -0.058   9.808  20.990  0.00  0.00    +0.000 HD
ENDROOT
BRANCH   1  17
ATOM     13  C   UNL     1       3.148   3.990  19.508  0.00  0.00    +0.000 A 
ATOM     14  N   UNL     1       4.106   3.638  18.567  0.00  0.00    +0.000 N 
ATOM     15  C   UNL     1       4.775   4.759  18.178  0.00  0.00    +0.000 A 
ATOM     16  N   UNL     1       4.350   5.812  18.829  0.00  0.00    +0.000 NA
ATOM     17  C   UNL     1       3.337   5.357  19.643  0.00  0.00    +0.000 A 
ATOM     18  H   UNL     1       4.243   2.717  18.174  0.00  0.00    +0.000 HD
BRANCH  13  20
ATOM     19  C   UNL     1       2.475   2.545  21.454  0.00  0.00    +0.000 C 
ATOM     20  C   UNL     1       2.142   2.959  20.000  0.00  0.00    +0.000 C 
ATOM     21  C   UNL     1       2.204   1.768  19.019  0.00  0.00    +0.000 C 
ATOM     22  C   UNL     1       0.672   3.420  20.022  0.00  0.00    +0.000 C 
ENDBRANCH  13  20
ENDBRANCH   1  17
BRANCH   7  23
ATOM     23  C   UNL     1      -0.437  11.963  19.590  0.00  0.00    +0.000 A 
ATOM     24  C   UNL     1      -1.820  11.926  19.389  0.00  0.00    +0.000 A 
ATOM     25  C   UNL     1      -2.663  12.746  20.142  0.00  0.00    +0.000 A 
ATOM     26  C   UNL     1      -2.125  13.606  21.103  0.00  0.00    +0.000 A 
ATOM     27  C   UNL     1      -0.743  13.643  21.316  0.00  0.00    +0.000 A 
ATOM     28  C   UNL     1       0.099  12.819  20.561  0.00  0.00    +0.000 A 
BRANCH  27  29
ATOM     29  C   UNL     1      -0.191  14.521  22.302  0.00  0.00    +0.000 C 
ATOM     30  N   UNL     1       0.256  15.235  23.105  0.00  0.00    +0.000 NA
ENDBRANCH  27  29
ENDBRANCH   7  23
TORSDOF 4
ENDMDL
MODEL 6
REMARK VINA RESULT:      -7.3      2.263      3.830
REMARK  Name = 
REMARK  7 active torsions:
REMARK  status: ('A' for Active; 'I' for Inactive)
REMARK    1  A    between atoms: C_1  and  C_2
REMARK    2  A    between atoms: C_2  and  C_3
REMARK    3  A    between atoms: C_2  and  C_4
REMARK    4  A    between atoms: C_2  and  C_5
REMARK    5  A    between atoms: C_9  and  C_10
REMARK    6  A    between atoms: C_16  and  C_17
REMARK    7  A    between atoms: C_21  and  C_22
REMARK                            x       y       z     vdW  Elec       q    Type
REMARK                         _______ _______ _______ _____ _____    ______ ____
ROOT
ATOM      1  C   UNL     1       2.745   6.300  19.688  0.00  0.00    +0.000 C 
ATOM      2  CA  UNL     1       2.190   7.510  19.520  0.00  0.00    +0.000 A 
ATOM      3  N   UNL     1       2.386   8.290  18.407  0.00  0.00    +0.000 N 
ATOM      4  C   UNL     1       1.853   9.535  18.210  0.00  0.00    +0.000 A 
ATOM      5  O   UNL     1       2.088  10.194  17.202  0.00  0.00    +0.000 OA
ATOM      6  CA  UNL     1       0.970  10.037  19.329  0.00  0.00    +0.000 A 
ATOM      7  C   UNL     1       0.437  11.265  19.214  0.00  0.00    +0.000 C 
ATOM      8  N   UNL     1       0.737   9.230  20.416  0.00  0.00    +0.000 N 
ATOM      9  C   UNL     1       1.276   7.990  20.607  0.00  0.00    +0.000 A 
ATOM     10  O   UNL     1       0.992   7.321  21.597  0.00  0.00    +0.000 OA
ATOM     11  H   UNL     1       2.994   7.915  17.678  0.00  0.00    +0.000 HD
ATOM     12  H   UNL     1       0.107   9.540  21.145  0.00  0.00    +0.000 HD
ENDROOT
BRANCH   1  17
ATOM     13  C   UNL     1       3.452   4.198  18.483  0.00  0.00    +0.000 A 
ATOM     14  N   UNL     1       4.277   4.068  17.374  0.00  0.00    +0.000 N 
ATOM     15  C   UNL     1       4.745   5.298  17.026  0.00  0.00    +0.000 A 
ATOM     16  N   UNL     1       4.316   6.218  17.853  0.00  0.00    +0.000 NA
ATOM     17  C   UNL     1       3.507   5.557  18.749  0.00  0.00    +0.000 A 
ATOM     18  H   UNL     1       4.451   3.216  16.859  0.00  0.00    +0.000 HD
BRANCH  13  20
ATOM     19  C   UNL     1       2.852   2.855  20.523  0.00  0.00    +0.000 C 
ATOM     20  C   UNL     1       2.661   3.002  18.994  0.00  0.00    +0.000 C 
ATOM     21  C   UNL     1       3.164   1.766  18.216  0.00  0.00    +0.000 C 
ATOM     22  C   UNL     1       1.139   3.062  18.766  0.00  0.00    +0.000 C 
ENDBRANCH  13  20
ENDBRANCH   1  17
BRANCH   7  23
ATOM     23  C   UNL     1      -0.415  11.910  20.218  0.00  0.00    +0.000 A 
ATOM     24  C   UNL     1       0.142  12.413  21.398  0.00  0.00    +0.000 A 
ATOM     25  C   UNL     1      -0.673  13.013  22.361  0.00  0.00    +0.000 A 
ATOM     26  C   UNL     1      -2.049  13.115  22.146  0.00  0.00    +0.000 A 
ATOM     27  C   UNL     1      -2.613  12.622  20.964  0.00  0.00    +0.000 A 
ATOM     28  C   UNL     1      -1.794  12.022  20.000  0.00  0.00    +0.000 A 
BRANCH  27  29
ATOM     29  C   UNL     1      -4.022  12.727  20.741  0.00  0.00    +0.000 C 
ATOM     30  N   UNL     1      -5.169  12.812  20.562  0.00  0.00    +0.000 NA
ENDBRANCH  27  29
ENDBRANCH   7  23
TORSDOF 4
ENDMDL
MODEL 7
REMARK VINA RESULT:      -7.3      2.097      9.184
REMARK  Name = 
REMARK  7 active torsions:
REMARK  status: ('A' for Active; 'I' for Inactive)
REMARK    1  A    between atoms: C_1  and  C_2
REMARK    2  A    between atoms: C_2  and  C_3
REMARK    3  A    between atoms: C_2  and  C_4
REMARK    4  A    between atoms: C_2  and  C_5
REMARK    5  A    between atoms: C_9  and  C_10
REMARK    6  A    between atoms: C_16  and  C_17
REMARK    7  A    between atoms: C_21  and  C_22
REMARK                            x       y       z     vdW  Elec       q    Type
REMARK                         _______ _______ _______ _____ _____    ______ ____
ROOT
ATOM      1  C   UNL     1       0.150  10.872  21.125  0.00  0.00    +0.000 C 
ATOM      2  CA  UNL     1       0.802   9.938  20.416  0.00  0.00    +0.000 A 
ATOM      3  N   UNL     1       1.090  10.059  19.079  0.00  0.00    +0.000 N 
ATOM      4  C   UNL     1       1.735   9.120  18.321  0.00  0.00    +0.000 A 
ATOM      5  O   UNL     1       1.939   9.278  17.122  0.00  0.00    +0.000 OA
ATOM      6  CA  UNL     1       2.160   7.877  19.068  0.00  0.00    +0.000 A 
ATOM      7  C   UNL     1       2.773   6.902  18.378  0.00  0.00    +0.000 C 
ATOM      8  N   UNL     1       1.915   7.786  20.416  0.00  0.00    +0.000 N 
ATOM      9  C   UNL     1       1.266   8.726  21.165  0.00  0.00    +0.000 A 
ATOM     10  O   UNL     1       1.114   8.578  22.375  0.00  0.00    +0.000 OA
ATOM     11  H   UNL     1       0.779  10.912  18.612  0.00  0.00    +0.000 HD
ATOM     12  H   UNL     1       2.241   6.978  20.932  0.00  0.00    +0.000 HD
ENDROOT
BRANCH   1  17
ATOM     13  C   UNL     1      -1.252  12.970  21.211  0.00  0.00    +0.000 A 
ATOM     14  N   UNL     1      -1.071  14.165  20.528  0.00  0.00    +0.000 N 
ATOM     15  C   UNL     1      -0.001  14.039  19.695  0.00  0.00    +0.000 A 
ATOM     16  N   UNL     1       0.505  12.833  19.756  0.00  0.00    +0.000 NA
ATOM     17  C   UNL     1      -0.247  12.166  20.697  0.00  0.00    +0.000 A 
ATOM     18  H   UNL     1      -1.596  15.017  20.670  0.00  0.00    +0.000 HD
BRANCH  13  20
ATOM     19  C   UNL     1      -3.708  12.813  21.734  0.00  0.00    +0.000 C 
ATOM     20  C   UNL     1      -2.280  12.875  22.330  0.00  0.00    +0.000 C 
ATOM     21  C   UNL     1      -2.073  14.109  23.236  0.00  0.00    +0.000 C 
ATOM     22  C   UNL     1      -2.156  11.644  23.247  0.00  0.00    +0.000 C 
ENDBRANCH  13  20
ENDBRANCH   1  17
BRANCH   7  23
ATOM     23  C   UNL     1       3.222   5.625  18.944  0.00  0.00    +0.000 A 
ATOM     24  C   UNL     1       4.436   5.061  18.540  0.00  0.00    +0.000 A 
ATOM     25  C   UNL     1       4.853   3.837  19.068  0.00  0.00    +0.000 A 
ATOM     26  C   UNL     1       4.060   3.174  20.006  0.00  0.00    +0.000 A 
ATOM     27  C   UNL     1       2.848   3.736  20.422  0.00  0.00    +0.000 A 
ATOM     28  C   UNL     1       2.432   4.963  19.892  0.00  0.00    +0.000 A 
BRANCH  27  29
ATOM     29  C   UNL     1       2.035   3.059  21.385  0.00  0.00    +0.000 C 
ATOM     30  N   UNL     1       1.375   2.506  22.169  0.00  0.00    +0.000 NA
ENDBRANCH  27  29
ENDBRANCH   7  23
TORSDOF 4
ENDMDL
MODEL 8
REMARK VINA RESULT:      -7.2      1.725      3.119
REMARK  Name = 
REMARK  7 active torsions:
REMARK  status: ('A' for Active; 'I' for Inactive)
REMARK    1  A    between atoms: C_1  and  C_2
REMARK    2  A    between atoms: C_2  and  C_3
REMARK    3  A    between atoms: C_2  and  C_4
REMARK    4  A    between atoms: C_2  and  C_5
REMARK    5  A    between atoms: C_9  and  C_10
REMARK    6  A    between atoms: C_16  and  C_17
REMARK    7  A    between atoms: C_21  and  C_22
REMARK                            x       y       z     vdW  Elec       q    Type
REMARK                         _______ _______ _______ _____ _____    ______ ____
ROOT
ATOM      1  C   UNL     1       3.645   6.626  18.024  0.00  0.00    +0.000 C 
ATOM      2  CA  UNL     1       2.773   7.350  18.743  0.00  0.00    +0.000 A 
ATOM      3  N   UNL     1       2.417   7.052  20.035  0.00  0.00    +0.000 N 
ATOM      4  C   UNL     1       1.519   7.756  20.790  0.00  0.00    +0.000 A 
ATOM      5  O   UNL     1       1.223   7.422  21.932  0.00  0.00    +0.000 OA
ATOM      6  CA  UNL     1       0.913   8.960  20.106  0.00  0.00    +0.000 A 
ATOM      7  C   UNL     1       0.001   9.680  20.780  0.00  0.00    +0.000 C 
ATOM      8  N   UNL     1       1.313   9.282  18.831  0.00  0.00    +0.000 N 
ATOM      9  C   UNL     1       2.207   8.572  18.083  0.00  0.00    +0.000 A 
ATOM     10  O   UNL     1       2.532   8.946  16.959  0.00  0.00    +0.000 OA
ATOM     11  H   UNL     1       2.845   6.227  20.456  0.00  0.00    +0.000 HD
ATOM     12  H   UNL     1       0.949  10.115  18.387  0.00  0.00    +0.000 HD
ENDROOT
BRANCH   1  17
ATOM     13  C   UNL     1       4.034   4.230  18.718  0.00  0.00    +0.000 A 
ATOM     14  N   UNL     1       5.237   3.576  18.948  0.00  0.00    +0.000 N 
ATOM     15  C   UNL     1       6.257   4.466  18.803  0.00  0.00    +0.000 A 
ATOM     16  N   UNL     1       5.804   5.665  18.535  0.00  0.00    +0.000 NA
ATOM     17  C   UNL     1       4.435   5.532  18.466  0.00  0.00    +0.000 A 
ATOM     18  H   UNL     1       5.352   2.587  19.123  0.00  0.00    +0.000 HD
BRANCH  13  20
ATOM     19  C   UNL     1       2.041   3.448  20.040  0.00  0.00    +0.000 C 
ATOM     20  C   UNL     1       2.733   3.441  18.655  0.00  0.00    +0.000 C 
ATOM     21  C   UNL     1       3.095   2.016  18.184  0.00  0.00    +0.000 C 
ATOM     22  C   UNL     1       1.682   3.968  17.661  0.00  0.00    +0.000 C 
ENDBRANCH  13  20
ENDBRANCH   1  17
BRANCH   7  23
ATOM     23  C   UNL     1      -0.700  10.855  20.252  0.00  0.00    +0.000 A 
ATOM     24  C   UNL     1      -0.407  12.131  20.742  0.00  0.00    +0.000 A 
ATOM     25  C   UNL     1      -1.087  13.247  20.250  0.00  0.00    +0.000 A 
ATOM     26  C   UNL     1      -2.062  13.091  19.262  0.00  0.00    +0.000 A 
ATOM     27  C   UNL     1      -2.355  11.819  18.761  0.00  0.00    +0.000 A 
ATOM     28  C   UNL     1      -1.671  10.702  19.255  0.00  0.00    +0.000 A 
BRANCH  27  29
ATOM     29  C   UNL     1      -3.353  11.658  17.747  0.00  0.00    +0.000 C 
ATOM     30  N   UNL     1      -4.165  11.529  16.923  0.00  0.00    +0.000 NA
ENDBRANCH  27  29
ENDBRANCH   7  23
TORSDOF 4
ENDMDL
MODEL 9
REMARK VINA RESULT:      -7.2      1.376      2.615
REMARK  Name = 
REMARK  7 active torsions:
REMARK  status: ('A' for Active; 'I' for Inactive)
REMARK    1  A    between atoms: C_1  and  C_2
REMARK    2  A    between atoms: C_2  and  C_3
REMARK    3  A    between atoms: C_2  and  C_4
REMARK    4  A    between atoms: C_2  and  C_5
REMARK    5  A    between atoms: C_9  and  C_10
REMARK    6  A    between atoms: C_16  and  C_17
REMARK    7  A    between atoms: C_21  and  C_22
REMARK                            x       y       z     vdW  Elec       q    Type
REMARK                         _______ _______ _______ _____ _____    ______ ____
ROOT
ATOM      1  C   UNL     1       3.035   6.767  18.296  0.00  0.00    +0.000 C 
ATOM      2  CA  UNL     1       2.376   7.672  19.034  0.00  0.00    +0.000 A 
ATOM      3  N   UNL     1       2.139   7.533  20.379  0.00  0.00    +0.000 N 
ATOM      4  C   UNL     1       1.455   8.426  21.159  0.00  0.00    +0.000 A 
ATOM      5  O   UNL     1       1.254   8.229  22.353  0.00  0.00    +0.000 OA
ATOM      6  CA  UNL     1       0.959   9.657  20.436  0.00  0.00    +0.000 A 
ATOM      7  C   UNL     1       0.254  10.561  21.135  0.00  0.00    +0.000 C 
ATOM      8  N   UNL     1       1.244   9.814  19.101  0.00  0.00    +0.000 N 
ATOM      9  C   UNL     1       1.924   8.916  18.329  0.00  0.00    +0.000 A 
ATOM     10  O   UNL     1       2.163   9.149  17.147  0.00  0.00    +0.000 OA
ATOM     11  H   UNL     1       2.486   6.683  20.826  0.00  0.00    +0.000 HD
ATOM     12  H   UNL     1       0.958  10.659  18.624  0.00  0.00    +0.000 HD
ENDROOT
BRANCH   1  17
ATOM     13  C   UNL     1       3.163   4.342  18.987  0.00  0.00    +0.000 A 
ATOM     14  N   UNL     1       4.287   3.568  19.238  0.00  0.00    +0.000 N 
ATOM     15  C   UNL     1       5.396   4.349  19.118  0.00  0.00    +0.000 A 
ATOM     16  N   UNL     1       5.073   5.588  18.846  0.00  0.00    +0.000 NA
ATOM     17  C   UNL     1       3.700   5.597  18.749  0.00  0.00    +0.000 A 
ATOM     18  H   UNL     1       4.297   2.572  19.411  0.00  0.00    +0.000 HD
BRANCH  13  20
ATOM     19  C   UNL     1       1.105   4.084  17.563  0.00  0.00    +0.000 C 
ATOM     20  C   UNL     1       1.789   3.691  18.895  0.00  0.00    +0.000 C 
ATOM     21  C   UNL     1       0.987   4.159  20.129  0.00  0.00    +0.000 C 
ATOM     22  C   UNL     1       1.776   2.152  18.933  0.00  0.00    +0.000 C 
ENDBRANCH  13  20
ENDBRANCH   1  17
BRANCH   7  23
ATOM     23  C   UNL     1      -0.322  11.791  20.580  0.00  0.00    +0.000 A 
ATOM     24  C   UNL     1      -1.709  11.940  20.485  0.00  0.00    +0.000 A 
ATOM     25  C   UNL     1      -2.255  13.105  19.941  0.00  0.00    +0.000 A 
ATOM     26  C   UNL     1      -1.415  14.128  19.494  0.00  0.00    +0.000 A 
ATOM     27  C   UNL     1      -0.027  13.990  19.595  0.00  0.00    +0.000 A 
ATOM     28  C   UNL     1       0.518  12.821  20.141  0.00  0.00    +0.000 A 
BRANCH  27  29
ATOM     29  C   UNL     1       0.835  15.037  19.139  0.00  0.00    +0.000 C 
ATOM     30  N   UNL     1       1.536  15.891  18.771  0.00  0.00    +0.000 NA
ENDBRANCH  27  29
ENDBRANCH   7  23
TORSDOF 4
ENDMDL
