MODEL 1
REMARK VINA RESULT:      -7.3      0.000      0.000
REMARK  Name = 
REMARK  7 active torsions:
REMARK  status: ('A' for Active; 'I' for Inactive)
REMARK    1  A    between atoms: C_1  and  C_2
REMARK    2  A    between atoms: C_2  and  S_3
REMARK    3  A    between atoms: S_3  and  C_4
REMARK    4  A    between atoms: C_4  and  C_5
REMARK    5  A    between atoms: C_7  and  N_8
REMARK    6  A    between atoms: C_18  and  O_19
REMARK    7  A    between atoms: C_20  and  O_21
REMARK                            x       y       z     vdW  Elec       q    Type
REMARK                         _______ _______ _______ _____ _____    ______ ____
ROOT
ATOM      1  C   UNL     1       2.203   2.953  17.802  0.00  0.00    +0.000 C 
ATOM      2  O   UNL     1       3.176   3.576  16.929  0.00  0.00    +0.000 OA
ATOM      3  C   UNL     1       4.457   3.602  17.578  0.00  0.00    +0.000 C 
ATOM      4  C   UNL     1       4.253   3.199  19.037  0.00  0.00    +0.000 C 
ATOM      5  C   UNL     1       3.004   2.333  18.950  0.00  0.00    +0.000 C 
ENDROOT
BRANCH   3   6
ATOM      6  N   UNL     1       5.079   4.894  17.389  0.00  0.00    +0.000 N 
ATOM      7  C   UNL     1       4.720   5.804  16.428  0.00  0.00    +0.000 A 
ATOM      8  N   UNL     1       5.524   6.846  16.405  0.00  0.00    +0.000 NA
ATOM      9  C   UNL     1       6.444   6.596  17.403  0.00  0.00    +0.000 A 
ATOM     10  C   UNL     1       7.572   7.308  17.848  0.00  0.00    +0.000 A 
ATOM     11  N   UNL     1       8.012   8.485  17.261  0.00  0.00    +0.000 N 
ATOM     12  N   UNL     1       8.272   6.820  18.897  0.00  0.00    +0.000 NA
ATOM     13  C   UNL     1       7.879   5.648  19.436  0.00  0.00    +0.000 A 
ATOM     14  N   UNL     1       6.852   4.855  19.066  0.00  0.00    +0.000 NA
ATOM     15  C   UNL     1       6.167   5.403  18.048  0.00  0.00    +0.000 A 
ATOM     16  H   UNL     1       7.298   8.962  16.716  0.00  0.00    +0.000 HD
ATOM     17  H   UNL     1       8.592   9.037  17.874  0.00  0.00    +0.000 HD
ENDBRANCH   3   6
BRANCH   4  18
ATOM     18  O   UNL     1       5.364   2.461  19.558  0.00  0.00    +0.000 OA
ATOM     19  H   UNL     1       5.749   3.019  20.267  0.00  0.00    +0.000 HD
ENDBRANCH   4  18
BRANCH   5  20
ATOM     20  O   UNL     1       3.433   0.993  18.629  0.00  0.00    +0.000 OA
ATOM     21  H   UNL     1       2.917   0.669  17.867  0.00  0.00    +0.000 HD
ENDBRANCH   5  20
BRANCH   1  22
ATOM     22  C   UNL     1       1.148   3.972  18.263  0.00  0.00    +0.000 C 
BRANCH  22  23
ATOM     23  S   UNL     1       0.926   3.830  20.076  0.00  0.00    +0.000 S 
BRANCH  23  25
ATOM     24  C   UNL     1       2.183   6.147  19.396  0.00  0.00    +0.000 C 
ATOM     25  C   UNL     1       1.802   5.326  20.618  0.00  0.00    +0.000 C 
ENDBRANCH  23  25
ENDBRANCH  22  23
ENDBRANCH   1  22
TORSDOF 6
ENDMDL
MODEL 2
REMARK VINA RESULT:      -7.3      3.793      6.032
REMARK  Name = 
REMARK  7 active torsions:
REMARK  status: ('A' for Active; 'I' for Inactive)
REMARK    1  A    between atoms: C_1  and  C_2
REMARK    2  A    between atoms: C_2  and  S_3
REMARK    3  A    between atoms: S_3  and  C_4
REMARK    4  A    between atoms: C_4  and  C_5
REMARK    5  A    between atoms: C_7  and  N_8
REMARK    6  A    between atoms: C_18  and  O_19
REMARK    7  A    between atoms: C_20  and  O_21
REMARK                            x       y       z     vdW  Elec       q    Type
REMARK                         _______ _______ _______ _____ _____    ______ ____
ROOT
ATOM      1  C   UNL     1       5.733   5.253  15.193  0.00  0.00    +0.000 C 
ATOM      2  O   UNL     1       4.758   5.480  16.239  0.00  0.00    +0.000 OA
ATOM      3  C   UNL     1       5.331   5.142  17.512  0.00  0.00    +0.000 C 
ATOM      4  C   UNL     1       6.657   4.429  17.256  0.00  0.00    +0.000 C 
ATOM      5  C   UNL     1       7.064   5.004  15.907  0.00  0.00    +0.000 C 
ENDROOT
BRANCH   3   6
ATOM      6  N   UNL     1       4.378   4.385  18.295  0.00  0.00    +0.000 N 
ATOM      7  C   UNL     1       4.243   3.020  18.260  0.00  0.00    +0.000 A 
ATOM      8  N   UNL     1       3.226   2.603  18.983  0.00  0.00    +0.000 NA
ATOM      9  C   UNL     1       2.680   3.755  19.512  0.00  0.00    +0.000 A 
ATOM     10  C   UNL     1       1.561   3.981  20.333  0.00  0.00    +0.000 A 
ATOM     11  N   UNL     1       0.707   2.971  20.753  0.00  0.00    +0.000 N 
ATOM     12  N   UNL     1       1.294   5.245  20.730  0.00  0.00    +0.000 NA
ATOM     13  C   UNL     1       2.092   6.237  20.279  0.00  0.00    +0.000 A 
ATOM     14  N   UNL     1       3.156   6.150  19.455  0.00  0.00    +0.000 NA
ATOM     15  C   UNL     1       3.402   4.871  19.122  0.00  0.00    +0.000 A 
ATOM     16  H   UNL     1       1.118   2.042  20.704  0.00  0.00    +0.000 HD
ATOM     17  H   UNL     1       0.182   3.218  21.577  0.00  0.00    +0.000 HD
ENDBRANCH   3   6
BRANCH   4  18
ATOM     18  O   UNL     1       7.633   4.719  18.263  0.00  0.00    +0.000 OA
ATOM     19  H   UNL     1       7.898   5.652  18.121  0.00  0.00    +0.000 HD
ENDBRANCH   4  18
BRANCH   5  20
ATOM     20  O   UNL     1       7.765   6.239  16.161  0.00  0.00    +0.000 OA
ATOM     21  H   UNL     1       7.118   6.967  16.207  0.00  0.00    +0.000 HD
ENDBRANCH   5  20
BRANCH   1  22
ATOM     22  C   UNL     1       5.297   4.099  14.277  0.00  0.00    +0.000 C 
BRANCH  22  23
ATOM     23  S   UNL     1       6.503   3.925  12.910  0.00  0.00    +0.000 S 
BRANCH  23  25
ATOM     24  C   UNL     1       4.306   3.275  11.441  0.00  0.00    +0.000 C 
ATOM     25  C   UNL     1       5.642   2.699  11.884  0.00  0.00    +0.000 C 
ENDBRANCH  23  25
ENDBRANCH  22  23
ENDBRANCH   1  22
TORSDOF 6
ENDMDL
MODEL 3
REMARK VINA RESULT:      -7.2      3.515      6.070
REMARK  Name = 
REMARK  7 active torsions:
REMARK  status: ('A' for Active; 'I' for Inactive)
REMARK    1  A    between atoms: C_1  and  C_2
REMARK    2  A    between atoms: C_2  and  S_3
REMARK    3  A    between atoms: S_3  and  C_4
REMARK    4  A    between atoms: C_4  and  C_5
REMARK    5  A    between atoms: C_7  and  N_8
REMARK    6  A    between atoms: C_18  and  O_19
REMARK    7  A    between atoms: C_20  and  O_21
REMARK                            x       y       z     vdW  Elec       q    Type
REMARK                         _______ _______ _______ _____ _____    ______ ____
ROOT
ATOM      1  C   UNL     1       6.791   5.803  16.313  0.00  0.00    +0.000 C 
ATOM      2  O   UNL     1       5.395   5.780  16.696  0.00  0.00    +0.000 OA
ATOM      3  C   UNL     1       5.286   5.459  18.093  0.00  0.00    +0.000 C 
ATOM      4  C   UNL     1       6.663   5.013  18.581  0.00  0.00    +0.000 C 
ATOM      5  C   UNL     1       7.587   5.744  17.618  0.00  0.00    +0.000 C 
ENDROOT
BRANCH   3   6
ATOM      6  N   UNL     1       4.230   4.493  18.296  0.00  0.00    +0.000 N 
ATOM      7  C   UNL     1       4.074   3.338  17.571  0.00  0.00    +0.000 A 
ATOM      8  N   UNL     1       2.966   2.700  17.886  0.00  0.00    +0.000 NA
ATOM      9  C   UNL     1       2.382   3.480  18.863  0.00  0.00    +0.000 A 
ATOM     10  C   UNL     1       1.173   3.360  19.572  0.00  0.00    +0.000 A 
ATOM     11  N   UNL     1       0.255   2.345  19.345  0.00  0.00    +0.000 N 
ATOM     12  N   UNL     1       0.884   4.281  20.518  0.00  0.00    +0.000 NA
ATOM     13  C   UNL     1       1.750   5.299  20.703  0.00  0.00    +0.000 A 
ATOM     14  N   UNL     1       2.907   5.546  20.054  0.00  0.00    +0.000 NA
ATOM     15  C   UNL     1       3.167   4.583  19.154  0.00  0.00    +0.000 A 
ATOM     16  H   UNL     1       0.650   1.532  18.880  0.00  0.00    +0.000 HD
ATOM     17  H   UNL     1      -0.364   2.194  20.127  0.00  0.00    +0.000 HD
ENDBRANCH   3   6
BRANCH   4  18
ATOM     18  O   UNL     1       6.911   5.399  19.937  0.00  0.00    +0.000 OA
ATOM     19  H   UNL     1       7.705   4.898  20.219  0.00  0.00    +0.000 HD
ENDBRANCH   4  18
BRANCH   5  20
ATOM     20  O   UNL     1       7.813   7.062  18.158  0.00  0.00    +0.000 OA
ATOM     21  H   UNL     1       7.429   7.108  19.053  0.00  0.00    +0.000 HD
ENDBRANCH   5  20
BRANCH   1  22
ATOM     22  C   UNL     1       7.111   4.657  15.339  0.00  0.00    +0.000 C 
BRANCH  22  23
ATOM     23  S   UNL     1       5.625   4.289  14.333  0.00  0.00    +0.000 S 
BRANCH  23  25
ATOM     24  C   UNL     1       5.380   3.057  11.918  0.00  0.00    +0.000 C 
ATOM     25  C   UNL     1       6.416   3.750  12.789  0.00  0.00    +0.000 C 
ENDBRANCH  23  25
ENDBRANCH  22  23
ENDBRANCH   1  22
TORSDOF 6
ENDMDL
MODEL 4
REMARK VINA RESULT:      -7.0      3.707      6.067
REMARK  Name = 
REMARK  7 active torsions:
REMARK  status: ('A' for Active; 'I' for Inactive)
REMARK    1  A    between atoms: C_1  and  C_2
REMARK    2  A    between atoms: C_2  and  S_3
REMARK    3  A    between atoms: S_3  and  C_4
REMARK    4  A    between atoms: C_4  and  C_5
REMARK    5  A    between atoms: C_7  and  N_8
REMARK    6  A    between atoms: C_18  and  O_19
REMARK    7  A    between atoms: C_20  and  O_21
REMARK                            x       y       z     vdW  Elec       q    Type
REMARK                         _______ _______ _______ _____ _____    ______ ____
ROOT
ATOM      1  C   UNL     1       5.731   5.565  15.549  0.00  0.00    +0.000 C 
ATOM      2  O   UNL     1       4.688   6.119  16.386  0.00  0.00    +0.000 OA
ATOM      3  C   UNL     1       5.019   5.909  17.769  0.00  0.00    +0.000 C 
ATOM      4  C   UNL     1       6.212   4.958  17.826  0.00  0.00    +0.000 C 
ATOM      5  C   UNL     1       6.890   5.226  16.490  0.00  0.00    +0.000 C 
ENDROOT
BRANCH   3   6
ATOM      6  N   UNL     1       3.850   5.458  18.492  0.00  0.00    +0.000 N 
ATOM      7  C   UNL     1       3.148   6.213  19.397  0.00  0.00    +0.000 A 
ATOM      8  N   UNL     1       2.201   5.519  19.992  0.00  0.00    +0.000 NA
ATOM      9  C   UNL     1       2.294   4.258  19.441  0.00  0.00    +0.000 A 
ATOM     10  C   UNL     1       1.589   3.065  19.683  0.00  0.00    +0.000 A 
ATOM     11  N   UNL     1       0.606   2.945  20.654  0.00  0.00    +0.000 N 
ATOM     12  N   UNL     1       1.887   1.976  18.940  0.00  0.00    +0.000 NA
ATOM     13  C   UNL     1       2.880   2.075  18.031  0.00  0.00    +0.000 A 
ATOM     14  N   UNL     1       3.654   3.142  17.747  0.00  0.00    +0.000 NA
ATOM     15  C   UNL     1       3.293   4.207  18.483  0.00  0.00    +0.000 A 
ATOM     16  H   UNL     1       0.208   3.834  20.946  0.00  0.00    +0.000 HD
ATOM     17  H   UNL     1      -0.022   2.174  20.484  0.00  0.00    +0.000 HD
ENDBRANCH   3   6
BRANCH   4  18
ATOM     18  O   UNL     1       7.087   5.249  18.923  0.00  0.00    +0.000 OA
ATOM     19  H   UNL     1       7.895   5.638  18.526  0.00  0.00    +0.000 HD
ENDBRANCH   4  18
BRANCH   5  20
ATOM     20  O   UNL     1       7.768   6.355  16.673  0.00  0.00    +0.000 OA
ATOM     21  H   UNL     1       8.579   6.214  16.150  0.00  0.00    +0.000 HD
ENDBRANCH   5  20
BRANCH   1  22
ATOM     22  C   UNL     1       5.211   4.360  14.748  0.00  0.00    +0.000 C 
BRANCH  22  23
ATOM     23  S   UNL     1       6.396   3.970  13.408  0.00  0.00    +0.000 S 
BRANCH  23  25
ATOM     24  C   UNL     1       5.891   2.084  11.511  0.00  0.00    +0.000 C 
ATOM     25  C   UNL     1       5.255   3.302  12.163  0.00  0.00    +0.000 C 
ENDBRANCH  23  25
ENDBRANCH  22  23
ENDBRANCH   1  22
TORSDOF 6
ENDMDL
MODEL 5
REMARK VINA RESULT:      -6.7      2.698      3.463
REMARK  Name = 
REMARK  7 active torsions:
REMARK  status: ('A' for Active; 'I' for Inactive)
REMARK    1  A    between atoms: C_1  and  C_2
REMARK    2  A    between atoms: C_2  and  S_3
REMARK    3  A    between atoms: S_3  and  C_4
REMARK    4  A    between atoms: C_4  and  C_5
REMARK    5  A    between atoms: C_7  and  N_8
REMARK    6  A    between atoms: C_18  and  O_19
REMARK    7  A    between atoms: C_20  and  O_21
REMARK                            x       y       z     vdW  Elec       q    Type
REMARK                         _______ _______ _______ _____ _____    ______ ____
ROOT
ATOM      1  C   UNL     1       2.639   4.673  17.864  0.00  0.00    +0.000 C 
ATOM      2  O   UNL     1       3.468   4.332  16.727  0.00  0.00    +0.000 OA
ATOM      3  C   UNL     1       4.702   3.757  17.186  0.00  0.00    +0.000 C 
ATOM      4  C   UNL     1       4.780   3.959  18.698  0.00  0.00    +0.000 C 
ATOM      5  C   UNL     1       3.309   4.028  19.080  0.00  0.00    +0.000 C 
ENDROOT
BRANCH   3   6
ATOM      6  N   UNL     1       5.811   4.313  16.443  0.00  0.00    +0.000 N 
ATOM      7  C   UNL     1       6.748   5.172  16.959  0.00  0.00    +0.000 A 
ATOM      8  N   UNL     1       7.578   5.613  16.037  0.00  0.00    +0.000 NA
ATOM      9  C   UNL     1       7.157   5.006  14.871  0.00  0.00    +0.000 A 
ATOM     10  C   UNL     1       7.606   5.097  13.542  0.00  0.00    +0.000 A 
ATOM     11  N   UNL     1       8.633   5.939  13.140  0.00  0.00    +0.000 N 
ATOM     12  N   UNL     1       7.005   4.333  12.602  0.00  0.00    +0.000 NA
ATOM     13  C   UNL     1       5.971   3.553  12.980  0.00  0.00    +0.000 A 
ATOM     14  N   UNL     1       5.422   3.421  14.206  0.00  0.00    +0.000 NA
ATOM     15  C   UNL     1       6.079   4.169  15.109  0.00  0.00    +0.000 A 
ATOM     16  H   UNL     1       9.242   6.232  13.900  0.00  0.00    +0.000 HD
ATOM     17  H   UNL     1       9.057   5.654  12.271  0.00  0.00    +0.000 HD
ENDBRANCH   3   6
BRANCH   4  18
ATOM     18  O   UNL     1       5.441   2.874  19.358  0.00  0.00    +0.000 OA
ATOM     19  H   UNL     1       4.773   2.474  19.953  0.00  0.00    +0.000 HD
ENDBRANCH   4  18
BRANCH   5  20
ATOM     20  O   UNL     1       2.852   2.673  19.275  0.00  0.00    +0.000 OA
ATOM     21  H   UNL     1       2.879   2.464  20.227  0.00  0.00    +0.000 HD
ENDBRANCH   5  20
BRANCH   1  22
ATOM     22  C   UNL     1       2.473   6.197  17.985  0.00  0.00    +0.000 C 
BRANCH  22  23
ATOM     23  S   UNL     1       2.366   6.652  19.756  0.00  0.00    +0.000 S 
BRANCH  23  25
ATOM     24  C   UNL     1       1.942   8.837  18.189  0.00  0.00    +0.000 C 
ATOM     25  C   UNL     1       1.713   8.340  19.608  0.00  0.00    +0.000 C 
ENDBRANCH  23  25
ENDBRANCH  22  23
ENDBRANCH   1  22
TORSDOF 6
ENDMDL
MODEL 6
REMARK VINA RESULT:      -6.6      3.627      5.278
REMARK  Name = 
REMARK  7 active torsions:
REMARK  status: ('A' for Active; 'I' for Inactive)
REMARK    1  A    between atoms: C_1  and  C_2
REMARK    2  A    between atoms: C_2  and  S_3
REMARK    3  A    between atoms: S_3  and  C_4
REMARK    4  A    between atoms: C_4  and  C_5
REMARK    5  A    between atoms: C_7  and  N_8
REMARK    6  A    between atoms: C_18  and  O_19
REMARK    7  A    between atoms: C_20  and  O_21
REMARK                            x       y       z     vdW  Elec       q    Type
REMARK                         _______ _______ _______ _____ _____    ______ ____
ROOT
ATOM      1  C   UNL     1       5.058   4.340  19.169  0.00  0.00    +0.000 C 
ATOM      2  O   UNL     1       4.562   5.626  19.612  0.00  0.00    +0.000 OA
ATOM      3  C   UNL     1       3.126   5.630  19.566  0.00  0.00    +0.000 C 
ATOM      4  C   UNL     1       2.677   4.373  18.824  0.00  0.00    +0.000 C 
ATOM      5  C   UNL     1       3.835   3.423  19.092  0.00  0.00    +0.000 C 
ENDROOT
BRANCH   3   6
ATOM      6  N   UNL     1       2.656   6.872  18.992  0.00  0.00    +0.000 N 
ATOM      7  C   UNL     1       2.980   7.330  17.740  0.00  0.00    +0.000 A 
ATOM      8  N   UNL     1       2.509   8.538  17.516  0.00  0.00    +0.000 NA
ATOM      9  C   UNL     1       1.846   8.874  18.679  0.00  0.00    +0.000 A 
ATOM     10  C   UNL     1       1.167  10.039  19.078  0.00  0.00    +0.000 A 
ATOM     11  N   UNL     1       1.085  11.180  18.292  0.00  0.00    +0.000 N 
ATOM     12  N   UNL     1       0.571  10.057  20.291  0.00  0.00    +0.000 NA
ATOM     13  C   UNL     1       0.696   8.969  21.079  0.00  0.00    +0.000 A 
ATOM     14  N   UNL     1       1.358   7.821  20.828  0.00  0.00    +0.000 NA
ATOM     15  C   UNL     1       1.899   7.839  19.597  0.00  0.00    +0.000 A 
ATOM     16  H   UNL     1       1.257  11.010  17.305  0.00  0.00    +0.000 HD
ATOM     17  H   UNL     1       0.312  11.777  18.546  0.00  0.00    +0.000 HD
ENDBRANCH   3   6
BRANCH   4  18
ATOM     18  O   UNL     1       1.445   3.852  19.334  0.00  0.00    +0.000 OA
ATOM     19  H   UNL     1       0.771   4.544  19.170  0.00  0.00    +0.000 HD
ENDBRANCH   4  18
BRANCH   5  20
ATOM     20  O   UNL     1       3.579   2.780  20.358  0.00  0.00    +0.000 OA
ATOM     21  H   UNL     1       3.085   1.954  20.199  0.00  0.00    +0.000 HD
ENDBRANCH   5  20
BRANCH   1  22
ATOM     22  C   UNL     1       5.816   4.474  17.838  0.00  0.00    +0.000 C 
BRANCH  22  23
ATOM     23  S   UNL     1       7.331   5.468  18.106  0.00  0.00    +0.000 S 
BRANCH  23  25
ATOM     24  C   UNL     1       7.848   8.102  17.657  0.00  0.00    +0.000 C 
ATOM     25  C   UNL     1       6.832   7.024  17.314  0.00  0.00    +0.000 C 
ENDBRANCH  23  25
ENDBRANCH  22  23
ENDBRANCH   1  22
TORSDOF 6
ENDMDL
MODEL 7
REMARK VINA RESULT:      -6.6      2.417      3.863
REMARK  Name = 
REMARK  7 active torsions:
REMARK  status: ('A' for Active; 'I' for Inactive)
REMARK    1  A    between atoms: C_1  and  C_2
REMARK    2  A    between atoms: C_2  and  S_3
REMARK    3  A    between atoms: S_3  and  C_4
REMARK    4  A    between atoms: C_4  and  C_5
REMARK    5  A    between atoms: C_7  and  N_8
REMARK    6  A    between atoms: C_18  and  O_19
REMARK    7  A    between atoms: C_20  and  O_21
REMARK                            x       y       z     vdW  Elec       q    Type
REMARK                         _______ _______ _______ _____ _____    ______ ____
ROOT
ATOM      1  C   UNL     1       2.073   5.433  20.888  0.00  0.00    +0.000 C 
ATOM      2  O   UNL     1       3.337   5.182  20.229  0.00  0.00    +0.000 OA
ATOM      3  C   UNL     1       3.527   6.138  19.173  0.00  0.00    +0.000 C 
ATOM      4  C   UNL     1       2.213   6.890  18.979  0.00  0.00    +0.000 C 
ATOM      5  C   UNL     1       1.585   6.785  20.361  0.00  0.00    +0.000 C 
ENDROOT
BRANCH   3   6
ATOM      6  N   UNL     1       4.024   5.472  17.989  0.00  0.00    +0.000 N 
ATOM      7  C   UNL     1       3.398   4.428  17.356  0.00  0.00    +0.000 A 
ATOM      8  N   UNL     1       4.124   3.937  16.373  0.00  0.00    +0.000 NA
ATOM      9  C   UNL     1       5.271   4.704  16.372  0.00  0.00    +0.000 A 
ATOM     10  C   UNL     1       6.441   4.655  15.592  0.00  0.00    +0.000 A 
ATOM     11  N   UNL     1       6.668   3.692  14.619  0.00  0.00    +0.000 N 
ATOM     12  N   UNL     1       7.398   5.586  15.802  0.00  0.00    +0.000 NA
ATOM     13  C   UNL     1       7.203   6.491  16.784  0.00  0.00    +0.000 A 
ATOM     14  N   UNL     1       6.154   6.606  17.624  0.00  0.00    +0.000 NA
ATOM     15  C   UNL     1       5.215   5.684  17.348  0.00  0.00    +0.000 A 
ATOM     16  H   UNL     1       5.821   3.237  14.288  0.00  0.00    +0.000 HD
ATOM     17  H   UNL     1       7.355   3.976  13.938  0.00  0.00    +0.000 HD
ENDBRANCH   3   6
BRANCH   4  18
ATOM     18  O   UNL     1       2.418   8.256  18.601  0.00  0.00    +0.000 OA
ATOM     19  H   UNL     1       2.385   8.272  17.621  0.00  0.00    +0.000 HD
ENDBRANCH   4  18
BRANCH   5  20
ATOM     20  O   UNL     1       2.104   7.875  21.151  0.00  0.00    +0.000 OA
ATOM     21  H   UNL     1       3.042   8.013  20.925  0.00  0.00    +0.000 HD
ENDBRANCH   5  20
BRANCH   1  22
ATOM     22  C   UNL     1       1.087   4.280  20.638  0.00  0.00    +0.000 C 
BRANCH  22  23
ATOM     23  S   UNL     1       1.884   2.696  21.096  0.00  0.00    +0.000 S 
BRANCH  23  25
ATOM     24  C   UNL     1       0.725   2.413  18.650  0.00  0.00    +0.000 C 
ATOM     25  C   UNL     1       1.869   1.858  19.485  0.00  0.00    +0.000 C 
ENDBRANCH  23  25
ENDBRANCH  22  23
ENDBRANCH   1  22
TORSDOF 6
ENDMDL
MODEL 8
REMARK VINA RESULT:      -6.6      2.418      3.477
REMARK  Name = 
REMARK  7 active torsions:
REMARK  status: ('A' for Active; 'I' for Inactive)
REMARK    1  A    between atoms: C_1  and  C_2
REMARK    2  A    between atoms: C_2  and  S_3
REMARK    3  A    between atoms: S_3  and  C_4
REMARK    4  A    between atoms: C_4  and  C_5
REMARK    5  A    between atoms: C_7  and  N_8
REMARK    6  A    between atoms: C_18  and  O_19
REMARK    7  A    between atoms: C_20  and  O_21
REMARK                            x       y       z     vdW  Elec       q    Type
REMARK                         _______ _______ _______ _____ _____    ______ ____
ROOT
ATOM      1  C   UNL     1       2.735   4.876  20.436  0.00  0.00    +0.000 C 
ATOM      2  O   UNL     1       4.026   5.275  19.916  0.00  0.00    +0.000 OA
ATOM      3  C   UNL     1       3.886   6.494  19.167  0.00  0.00    +0.000 C 
ATOM      4  C   UNL     1       2.394   6.765  18.987  0.00  0.00    +0.000 C 
ATOM      5  C   UNL     1       1.801   6.065  20.201  0.00  0.00    +0.000 C 
ENDROOT
BRANCH   3   6
ATOM      6  N   UNL     1       4.637   6.403  17.935  0.00  0.00    +0.000 N 
ATOM      7  C   UNL     1       4.243   6.939  16.735  0.00  0.00    +0.000 A 
ATOM      8  N   UNL     1       5.056   6.611  15.753  0.00  0.00    +0.000 NA
ATOM      9  C   UNL     1       6.024   5.829  16.350  0.00  0.00    +0.000 A 
ATOM     10  C   UNL     1       7.141   5.149  15.835  0.00  0.00    +0.000 A 
ATOM     11  N   UNL     1       7.459   5.119  14.484  0.00  0.00    +0.000 N 
ATOM     12  N   UNL     1       7.945   4.482  16.692  0.00  0.00    +0.000 NA
ATOM     13  C   UNL     1       7.609   4.464  17.999  0.00  0.00    +0.000 A 
ATOM     14  N   UNL     1       6.543   5.032  18.600  0.00  0.00    +0.000 NA
ATOM     15  C   UNL     1       5.799   5.714  17.712  0.00  0.00    +0.000 A 
ATOM     16  H   UNL     1       7.034   5.871  13.948  0.00  0.00    +0.000 HD
ATOM     17  H   UNL     1       8.429   4.900  14.314  0.00  0.00    +0.000 HD
ENDBRANCH   3   6
BRANCH   4  18
ATOM     18  O   UNL     1       2.092   8.165  18.993  0.00  0.00    +0.000 OA
ATOM     19  H   UNL     1       1.500   8.316  18.226  0.00  0.00    +0.000 HD
ENDBRANCH   4  18
BRANCH   5  20
ATOM     20  O   UNL     1       1.848   6.997  21.301  0.00  0.00    +0.000 OA
ATOM     21  H   UNL     1       2.678   6.863  21.795  0.00  0.00    +0.000 HD
ENDBRANCH   5  20
BRANCH   1  22
ATOM     22  C   UNL     1       2.257   3.572  19.775  0.00  0.00    +0.000 C 
BRANCH  22  23
ATOM     23  S   UNL     1       3.698   2.478  19.490  0.00  0.00    +0.000 S 
BRANCH  23  25
ATOM     24  C   UNL     1       2.696   3.434  17.147  0.00  0.00    +0.000 C 
ATOM     25  C   UNL     1       3.687   2.409  17.676  0.00  0.00    +0.000 C 
ENDBRANCH  23  25
ENDBRANCH  22  23
ENDBRANCH   1  22
TORSDOF 6
ENDMDL
MODEL 9
REMARK VINA RESULT:      -6.6      3.318      6.059
REMARK  Name = 
REMARK  7 active torsions:
REMARK  status: ('A' for Active; 'I' for Inactive)
REMARK    1  A    between atoms: C_1  and  C_2
REMARK    2  A    between atoms: C_2  and  S_3
REMARK    3  A    between atoms: S_3  and  C_4
REMARK    4  A    between atoms: C_4  and  C_5
REMARK    5  A    between atoms: C_7  and  N_8
REMARK    6  A    between atoms: C_18  and  O_19
REMARK    7  A    between atoms: C_20  and  O_21
REMARK                            x       y       z     vdW  Elec       q    Type
REMARK                         _______ _______ _______ _____ _____    ______ ____
ROOT
ATOM      1  C   UNL     1       7.554   5.392  17.586  0.00  0.00    +0.000 C 
ATOM      2  O   UNL     1       6.489   4.500  17.994  0.00  0.00    +0.000 OA
ATOM      3  C   UNL     1       5.409   4.577  17.049  0.00  0.00    +0.000 C 
ATOM      4  C   UNL     1       5.683   5.756  16.118  0.00  0.00    +0.000 C 
ATOM      5  C   UNL     1       7.201   5.847  16.167  0.00  0.00    +0.000 C 
ENDROOT
BRANCH   3   6
ATOM      6  N   UNL     1       4.146   4.640  17.749  0.00  0.00    +0.000 N 
ATOM      7  C   UNL     1       3.520   5.798  18.136  0.00  0.00    +0.000 A 
ATOM      8  N   UNL     1       2.443   5.564  18.856  0.00  0.00    +0.000 NA
ATOM      9  C   UNL     1       2.370   4.188  18.935  0.00  0.00    +0.000 A 
ATOM     10  C   UNL     1       1.474   3.325  19.591  0.00  0.00    +0.000 A 
ATOM     11  N   UNL     1       0.431   3.772  20.389  0.00  0.00    +0.000 N 
ATOM     12  N   UNL     1       1.640   1.991  19.448  0.00  0.00    +0.000 NA
ATOM     13  C   UNL     1       2.686   1.553  18.717  0.00  0.00    +0.000 A 
ATOM     14  N   UNL     1       3.633   2.278  18.086  0.00  0.00    +0.000 NA
ATOM     15  C   UNL     1       3.401   3.595  18.227  0.00  0.00    +0.000 A 
ATOM     16  H   UNL     1       0.161   4.736  20.207  0.00  0.00    +0.000 HD
ATOM     17  H   UNL     1      -0.299   3.085  20.502  0.00  0.00    +0.000 HD
ENDBRANCH   3   6
BRANCH   4  18
ATOM     18  O   UNL     1       5.217   5.516  14.785  0.00  0.00    +0.000 OA
ATOM     19  H   UNL     1       4.887   4.593  14.777  0.00  0.00    +0.000 HD
ENDBRANCH   4  18
BRANCH   5  20
ATOM     20  O   UNL     1       7.718   4.933  15.178  0.00  0.00    +0.000 OA
ATOM     21  H   UNL     1       7.802   4.047  15.578  0.00  0.00    +0.000 HD
ENDBRANCH   5  20
BRANCH   1  22
ATOM     22  C   UNL     1       7.712   6.550  18.585  0.00  0.00    +0.000 C 
BRANCH  22  23
ATOM     23  S   UNL     1       7.801   8.132  17.665  0.00  0.00    +0.000 S 
BRANCH  23  25
ATOM     24  C   UNL     1       9.005  10.504  18.242  0.00  0.00    +0.000 C 
ATOM     25  C   UNL     1       8.793   9.115  18.825  0.00  0.00    +0.000 C 
ENDBRANCH  23  25
ENDBRANCH  22  23
ENDBRANCH   1  22
TORSDOF 6
ENDMDL
