MODEL 1
REMARK VINA RESULT:      -7.5      0.000      0.000
REMARK  Name = 
REMARK  4 active torsions:
REMARK  status: ('A' for Active; 'I' for Inactive)
REMARK    1  A    between atoms: C_1  and  C_2
REMARK    2  A    between atoms: C_2  and  O_3
REMARK    3  A    between atoms: O_3  and  C_4
REMARK    4  A    between atoms: C_4  and  C_6
REMARK                            x       y       z     vdW  Elec       q    Type
REMARK                         _______ _______ _______ _____ _____    ______ ____
ROOT
ATOM      1  C   UNL     1       4.904   5.277  16.637  0.00  0.00    +0.000 A 
ATOM      2  C   UNL     1       5.330   4.007  16.530  0.00  0.00    +0.000 A 
ATOM      3  N   UNL     1       4.760   2.931  17.164  0.00  0.00    +0.000 N 
ATOM      4  C   UNL     1       3.675   3.101  18.032  0.00  0.00    +0.000 A 
ATOM      5  C   UNL     1       3.077   2.020  18.686  0.00  0.00    +0.000 A 
ATOM      6  F   UNL     1       3.584   0.788  18.529  0.00  0.00    +0.000 F 
ATOM      7  C   UNL     1       1.963   2.193  19.504  0.00  0.00    +0.000 A 
ATOM      8  C   UNL     1       1.436   3.467  19.667  0.00  0.00    +0.000 A 
ATOM      9  F   UNL     1       0.362   3.641  20.445  0.00  0.00    +0.000 F 
ATOM     10  C   UNL     1       2.004   4.567  19.039  0.00  0.00    +0.000 A 
ATOM     11  C   UNL     1       3.121   4.375  18.217  0.00  0.00    +0.000 A 
ATOM     12  C   UNL     1       3.753   5.538  17.550  0.00  0.00    +0.000 A 
ATOM     13  O   UNL     1       3.338   6.662  17.812  0.00  0.00    +0.000 OA
ATOM     14  H   UNL     1       5.225   2.028  17.139  0.00  0.00    +0.000 HD
ENDROOT
BRANCH   1  15
ATOM     15  C   UNL     1       5.656   6.338  15.940  0.00  0.00    +0.000 C 
ATOM     16  O   UNL     1       5.182   7.048  15.064  0.00  0.00    +0.000 OA
BRANCH  15  17
ATOM     17  O   UNL     1       6.942   6.352  16.358  0.00  0.00    +0.000 OA
BRANCH  17  19
ATOM     18  C   UNL     1       7.776   6.338  18.601  0.00  0.00    +0.000 C 
ATOM     19  C   UNL     1       7.225   7.200  17.476  0.00  0.00    +0.000 C 
ENDBRANCH  17  19
ENDBRANCH  15  17
ENDBRANCH   1  15
TORSDOF 3
ENDMDL
MODEL 2
REMARK VINA RESULT:      -7.3      1.556      2.121
REMARK  Name = 
REMARK  4 active torsions:
REMARK  status: ('A' for Active; 'I' for Inactive)
REMARK    1  A    between atoms: C_1  and  C_2
REMARK    2  A    between atoms: C_2  and  O_3
REMARK    3  A    between atoms: O_3  and  C_4
REMARK    4  A    between atoms: C_4  and  C_6
REMARK                            x       y       z     vdW  Elec       q    Type
REMARK                         _______ _______ _______ _____ _____    ______ ____
ROOT
ATOM      1  C   UNL     1       5.619   5.423  17.447  0.00  0.00    +0.000 A 
ATOM      2  C   UNL     1       6.237   4.402  18.064  0.00  0.00    +0.000 A 
ATOM      3  N   UNL     1       5.649   3.564  18.979  0.00  0.00    +0.000 N 
ATOM      4  C   UNL     1       4.319   3.754  19.375  0.00  0.00    +0.000 A 
ATOM      5  C   UNL     1       3.699   2.912  20.303  0.00  0.00    +0.000 A 
ATOM      6  F   UNL     1       4.404   1.927  20.878  0.00  0.00    +0.000 F 
ATOM      7  C   UNL     1       2.360   3.076  20.648  0.00  0.00    +0.000 A 
ATOM      8  C   UNL     1       1.628   4.095  20.053  0.00  0.00    +0.000 A 
ATOM      9  F   UNL     1       0.339   4.254  20.373  0.00  0.00    +0.000 F 
ATOM     10  C   UNL     1       2.209   4.954  19.131  0.00  0.00    +0.000 A 
ATOM     11  C   UNL     1       3.556   4.774  18.792  0.00  0.00    +0.000 A 
ATOM     12  C   UNL     1       4.200   5.692  17.822  0.00  0.00    +0.000 A 
ATOM     13  O   UNL     1       3.561   6.652  17.409  0.00  0.00    +0.000 OA
ATOM     14  H   UNL     1       6.222   2.906  19.499  0.00  0.00    +0.000 HD
ENDROOT
BRANCH   1  15
ATOM     15  C   UNL     1       6.401   6.274  16.529  0.00  0.00    +0.000 C 
ATOM     16  O   UNL     1       7.142   7.174  16.898  0.00  0.00    +0.000 OA
BRANCH  15  17
ATOM     17  O   UNL     1       6.118   5.961  15.245  0.00  0.00    +0.000 OA
BRANCH  17  19
ATOM     18  C   UNL     1       6.056   3.940  13.966  0.00  0.00    +0.000 C 
ATOM     19  C   UNL     1       6.951   4.963  14.648  0.00  0.00    +0.000 C 
ENDBRANCH  17  19
ENDBRANCH  15  17
ENDBRANCH   1  15
TORSDOF 3
ENDMDL
MODEL 3
REMARK VINA RESULT:      -7.2      2.195      3.116
REMARK  Name = 
REMARK  4 active torsions:
REMARK  status: ('A' for Active; 'I' for Inactive)
REMARK    1  A    between atoms: C_1  and  C_2
REMARK    2  A    between atoms: C_2  and  O_3
REMARK    3  A    between atoms: O_3  and  C_4
REMARK    4  A    between atoms: C_4  and  C_6
REMARK                            x       y       z     vdW  Elec       q    Type
REMARK                         _______ _______ _______ _____ _____    ______ ____
ROOT
ATOM      1  C   UNL     1       5.645   4.624  17.831  0.00  0.00    +0.000 A 
ATOM      2  C   UNL     1       5.487   5.441  18.886  0.00  0.00    +0.000 A 
ATOM      3  N   UNL     1       4.376   5.478  19.693  0.00  0.00    +0.000 N 
ATOM      4  C   UNL     1       3.271   4.660  19.430  0.00  0.00    +0.000 A 
ATOM      5  C   UNL     1       2.130   4.679  20.238  0.00  0.00    +0.000 A 
ATOM      6  F   UNL     1       2.059   5.541  21.262  0.00  0.00    +0.000 F 
ATOM      7  C   UNL     1       1.059   3.821  20.000  0.00  0.00    +0.000 A 
ATOM      8  C   UNL     1       1.131   2.928  18.940  0.00  0.00    +0.000 A 
ATOM      9  F   UNL     1       0.110   2.095  18.710  0.00  0.00    +0.000 F 
ATOM     10  C   UNL     1       2.244   2.881  18.112  0.00  0.00    +0.000 A 
ATOM     11  C   UNL     1       3.314   3.747  18.367  0.00  0.00    +0.000 A 
ATOM     12  C   UNL     1       4.505   3.726  17.484  0.00  0.00    +0.000 A 
ATOM     13  O   UNL     1       4.485   3.012  16.488  0.00  0.00    +0.000 OA
ATOM     14  H   UNL     1       4.281   6.217  20.383  0.00  0.00    +0.000 HD
ENDROOT
BRANCH   1  15
ATOM     15  C   UNL     1       6.874   4.741  17.022  0.00  0.00    +0.000 C 
ATOM     16  O   UNL     1       7.972   4.350  17.391  0.00  0.00    +0.000 OA
BRANCH  15  17
ATOM     17  O   UNL     1       6.616   5.399  15.871  0.00  0.00    +0.000 OA
BRANCH  17  19
ATOM     18  C   UNL     1       6.136   4.123  13.904  0.00  0.00    +0.000 C 
ATOM     19  C   UNL     1       7.213   4.852  14.691  0.00  0.00    +0.000 C 
ENDBRANCH  17  19
ENDBRANCH  15  17
ENDBRANCH   1  15
TORSDOF 3
ENDMDL
MODEL 4
REMARK VINA RESULT:      -7.2      1.198      1.198
REMARK  Name = 
REMARK  4 active torsions:
REMARK  status: ('A' for Active; 'I' for Inactive)
REMARK    1  A    between atoms: C_1  and  C_2
REMARK    2  A    between atoms: C_2  and  O_3
REMARK    3  A    between atoms: O_3  and  C_4
REMARK    4  A    between atoms: C_4  and  C_6
REMARK                            x       y       z     vdW  Elec       q    Type
REMARK                         _______ _______ _______ _____ _____    ______ ____
ROOT
ATOM      1  C   UNL     1       5.259   5.457  17.276  0.00  0.00    +0.000 A 
ATOM      2  C   UNL     1       6.032   4.447  17.709  0.00  0.00    +0.000 A 
ATOM      3  N   UNL     1       5.659   3.519  18.649  0.00  0.00    +0.000 N 
ATOM      4  C   UNL     1       4.408   3.593  19.275  0.00  0.00    +0.000 A 
ATOM      5  C   UNL     1       4.006   2.658  20.233  0.00  0.00    +0.000 A 
ATOM      6  F   UNL     1       4.855   1.692  20.613  0.00  0.00    +0.000 F 
ATOM      7  C   UNL     1       2.739   2.709  20.808  0.00  0.00    +0.000 A 
ATOM      8  C   UNL     1       1.858   3.708  20.416  0.00  0.00    +0.000 A 
ATOM      9  F   UNL     1       0.636   3.759  20.957  0.00  0.00    +0.000 F 
ATOM     10  C   UNL     1       2.222   4.657  19.471  0.00  0.00    +0.000 A 
ATOM     11  C   UNL     1       3.498   4.590  18.900  0.00  0.00    +0.000 A 
ATOM     12  C   UNL     1       3.913   5.605  17.902  0.00  0.00    +0.000 A 
ATOM     13  O   UNL     1       3.157   6.542  17.668  0.00  0.00    +0.000 OA
ATOM     14  H   UNL     1       6.350   2.872  19.019  0.00  0.00    +0.000 HD
ENDROOT
BRANCH   1  15
ATOM     15  C   UNL     1       5.821   6.413  16.302  0.00  0.00    +0.000 C 
ATOM     16  O   UNL     1       5.198   6.862  15.350  0.00  0.00    +0.000 OA
BRANCH  15  17
ATOM     17  O   UNL     1       7.123   6.649  16.576  0.00  0.00    +0.000 OA
BRANCH  17  19
ATOM     18  C   UNL     1       8.219   7.406  18.564  0.00  0.00    +0.000 C 
ATOM     19  C   UNL     1       7.395   7.818  17.354  0.00  0.00    +0.000 C 
ENDBRANCH  17  19
ENDBRANCH  15  17
ENDBRANCH   1  15
TORSDOF 3
ENDMDL
MODEL 5
REMARK VINA RESULT:      -7.2      2.613      3.742
REMARK  Name = 
REMARK  4 active torsions:
REMARK  status: ('A' for Active; 'I' for Inactive)
REMARK    1  A    between atoms: C_1  and  C_2
REMARK    2  A    between atoms: C_2  and  O_3
REMARK    3  A    between atoms: O_3  and  C_4
REMARK    4  A    between atoms: C_4  and  C_6
REMARK                            x       y       z     vdW  Elec       q    Type
REMARK                         _______ _______ _______ _____ _____    ______ ____
ROOT
ATOM      1  C   UNL     1       5.854   4.753  15.693  0.00  0.00    +0.000 A 
ATOM      2  C   UNL     1       5.792   3.764  16.600  0.00  0.00    +0.000 A 
ATOM      3  N   UNL     1       5.056   3.806  17.759  0.00  0.00    +0.000 N 
ATOM      4  C   UNL     1       4.323   4.948  18.103  0.00  0.00    +0.000 A 
ATOM      5  C   UNL     1       3.565   5.012  19.276  0.00  0.00    +0.000 A 
ATOM      6  F   UNL     1       3.578   3.978  20.130  0.00  0.00    +0.000 F 
ATOM      7  C   UNL     1       2.796   6.132  19.581  0.00  0.00    +0.000 A 
ATOM      8  C   UNL     1       2.781   7.203  18.699  0.00  0.00    +0.000 A 
ATOM      9  F   UNL     1       2.038   8.279  18.981  0.00  0.00    +0.000 F 
ATOM     10  C   UNL     1       3.524   7.180  17.526  0.00  0.00    +0.000 A 
ATOM     11  C   UNL     1       4.289   6.045  17.232  0.00  0.00    +0.000 A 
ATOM     12  C   UNL     1       5.103   6.007  15.994  0.00  0.00    +0.000 A 
ATOM     13  O   UNL     1       5.163   7.015  15.299  0.00  0.00    +0.000 OA
ATOM     14  H   UNL     1       5.171   3.074  18.454  0.00  0.00    +0.000 HD
ENDROOT
BRANCH   1  15
ATOM     15  C   UNL     1       6.737   4.586  14.522  0.00  0.00    +0.000 C 
ATOM     16  O   UNL     1       7.621   5.374  14.217  0.00  0.00    +0.000 OA
BRANCH  15  17
ATOM     17  O   UNL     1       6.375   3.493  13.815  0.00  0.00    +0.000 OA
BRANCH  17  19
ATOM     18  C   UNL     1       4.992   3.287  11.872  0.00  0.00    +0.000 C 
ATOM     19  C   UNL     1       6.377   3.641  12.391  0.00  0.00    +0.000 C 
ENDBRANCH  17  19
ENDBRANCH  15  17
ENDBRANCH   1  15
TORSDOF 3
ENDMDL
MODEL 6
REMARK VINA RESULT:      -7.1      2.650      3.953
REMARK  Name = 
REMARK  4 active torsions:
REMARK  status: ('A' for Active; 'I' for Inactive)
REMARK    1  A    between atoms: C_1  and  C_2
REMARK    2  A    between atoms: C_2  and  O_3
REMARK    3  A    between atoms: O_3  and  C_4
REMARK    4  A    between atoms: C_4  and  C_6
REMARK                            x       y       z     vdW  Elec       q    Type
REMARK                         _______ _______ _______ _____ _____    ______ ____
ROOT
ATOM      1  C   UNL     1       5.612   4.816  16.923  0.00  0.00    +0.000 A 
ATOM      2  C   UNL     1       5.270   4.108  18.011  0.00  0.00    +0.000 A 
ATOM      3  N   UNL     1       4.329   4.492  18.935  0.00  0.00    +0.000 N 
ATOM      4  C   UNL     1       3.668   5.720  18.818  0.00  0.00    +0.000 A 
ATOM      5  C   UNL     1       2.705   6.131  19.745  0.00  0.00    +0.000 A 
ATOM      6  F   UNL     1       2.441   5.361  20.811  0.00  0.00    +0.000 F 
ATOM      7  C   UNL     1       2.013   7.330  19.589  0.00  0.00    +0.000 A 
ATOM      8  C   UNL     1       2.285   8.128  18.487  0.00  0.00    +0.000 A 
ATOM      9  F   UNL     1       1.619   9.277  18.325  0.00  0.00    +0.000 F 
ATOM     10  C   UNL     1       3.237   7.757  17.546  0.00  0.00    +0.000 A 
ATOM     11  C   UNL     1       3.921   6.548  17.716  0.00  0.00    +0.000 A 
ATOM     12  C   UNL     1       4.953   6.141  16.733  0.00  0.00    +0.000 A 
ATOM     13  O   UNL     1       5.254   6.925  15.839  0.00  0.00    +0.000 OA
ATOM     14  H   UNL     1       4.228   3.966  19.798  0.00  0.00    +0.000 HD
ENDROOT
BRANCH   1  15
ATOM     15  C   UNL     1       6.685   4.301  16.050  0.00  0.00    +0.000 C 
ATOM     16  O   UNL     1       7.877   4.462  16.267  0.00  0.00    +0.000 OA
BRANCH  15  17
ATOM     17  O   UNL     1       6.154   3.703  14.960  0.00  0.00    +0.000 OA
BRANCH  17  19
ATOM     18  C   UNL     1       5.925   3.401  12.597  0.00  0.00    +0.000 C 
ATOM     19  C   UNL     1       6.542   4.251  13.696  0.00  0.00    +0.000 C 
ENDBRANCH  17  19
ENDBRANCH  15  17
ENDBRANCH   1  15
TORSDOF 3
ENDMDL
MODEL 7
REMARK VINA RESULT:      -7.0      3.830      5.930
REMARK  Name = 
REMARK  4 active torsions:
REMARK  status: ('A' for Active; 'I' for Inactive)
REMARK    1  A    between atoms: C_1  and  C_2
REMARK    2  A    between atoms: C_2  and  O_3
REMARK    3  A    between atoms: O_3  and  C_4
REMARK    4  A    between atoms: C_4  and  C_6
REMARK                            x       y       z     vdW  Elec       q    Type
REMARK                         _______ _______ _______ _____ _____    ______ ____
ROOT
ATOM      1  C   UNL     1       5.949   5.180  17.133  0.00  0.00    +0.000 A 
ATOM      2  C   UNL     1       7.041   5.867  16.758  0.00  0.00    +0.000 A 
ATOM      3  N   UNL     1       7.594   5.839  15.501  0.00  0.00    +0.000 N 
ATOM      4  C   UNL     1       7.055   5.023  14.498  0.00  0.00    +0.000 A 
ATOM      5  C   UNL     1       7.601   4.980  13.211  0.00  0.00    +0.000 A 
ATOM      6  F   UNL     1       8.703   5.691  12.935  0.00  0.00    +0.000 F 
ATOM      7  C   UNL     1       7.024   4.208  12.206  0.00  0.00    +0.000 A 
ATOM      8  C   UNL     1       5.882   3.471  12.490  0.00  0.00    +0.000 A 
ATOM      9  F   UNL     1       5.317   2.734  11.527  0.00  0.00    +0.000 F 
ATOM     10  C   UNL     1       5.314   3.485  13.756  0.00  0.00    +0.000 A 
ATOM     11  C   UNL     1       5.903   4.269  14.755  0.00  0.00    +0.000 A 
ATOM     12  C   UNL     1       5.322   4.283  16.119  0.00  0.00    +0.000 A 
ATOM     13  O   UNL     1       4.388   3.529  16.367  0.00  0.00    +0.000 OA
ATOM     14  H   UNL     1       8.495   6.278  15.339  0.00  0.00    +0.000 HD
ENDROOT
BRANCH   1  15
ATOM     15  C   UNL     1       5.505   5.266  18.538  0.00  0.00    +0.000 C 
ATOM     16  O   UNL     1       6.039   4.666  19.460  0.00  0.00    +0.000 OA
BRANCH  15  17
ATOM     17  O   UNL     1       4.397   6.035  18.633  0.00  0.00    +0.000 OA
BRANCH  17  19
ATOM     18  C   UNL     1       2.225   5.032  18.692  0.00  0.00    +0.000 C 
ATOM     19  C   UNL     1       3.383   5.561  19.524  0.00  0.00    +0.000 C 
ENDBRANCH  17  19
ENDBRANCH  15  17
ENDBRANCH   1  15
TORSDOF 3
ENDMDL
MODEL 8
REMARK VINA RESULT:      -7.0      2.025      2.403
REMARK  Name = 
REMARK  4 active torsions:
REMARK  status: ('A' for Active; 'I' for Inactive)
REMARK    1  A    between atoms: C_1  and  C_2
REMARK    2  A    between atoms: C_2  and  O_3
REMARK    3  A    between atoms: O_3  and  C_4
REMARK    4  A    between atoms: C_4  and  C_6
REMARK                            x       y       z     vdW  Elec       q    Type
REMARK                         _______ _______ _______ _____ _____    ______ ____
ROOT
ATOM      1  C   UNL     1       5.797   4.989  17.504  0.00  0.00    +0.000 A 
ATOM      2  C   UNL     1       4.826   4.926  16.577  0.00  0.00    +0.000 A 
ATOM      3  N   UNL     1       3.509   4.638  16.837  0.00  0.00    +0.000 N 
ATOM      4  C   UNL     1       3.082   4.338  18.136  0.00  0.00    +0.000 A 
ATOM      5  C   UNL     1       1.746   4.044  18.424  0.00  0.00    +0.000 A 
ATOM      6  F   UNL     1       0.850   3.989  17.428  0.00  0.00    +0.000 F 
ATOM      7  C   UNL     1       1.323   3.801  19.729  0.00  0.00    +0.000 A 
ATOM      8  C   UNL     1       2.249   3.857  20.761  0.00  0.00    +0.000 A 
ATOM      9  F   UNL     1       1.848   3.634  22.018  0.00  0.00    +0.000 F 
ATOM     10  C   UNL     1       3.585   4.142  20.515  0.00  0.00    +0.000 A 
ATOM     11  C   UNL     1       3.994   4.387  19.199  0.00  0.00    +0.000 A 
ATOM     12  C   UNL     1       5.420   4.675  18.912  0.00  0.00    +0.000 A 
ATOM     13  O   UNL     1       6.230   4.598  19.829  0.00  0.00    +0.000 OA
ATOM     14  H   UNL     1       2.868   4.476  16.065  0.00  0.00    +0.000 HD
ENDROOT
BRANCH   1  15
ATOM     15  C   UNL     1       7.181   5.253  17.064  0.00  0.00    +0.000 C 
ATOM     16  O   UNL     1       8.033   4.386  16.937  0.00  0.00    +0.000 OA
BRANCH  15  17
ATOM     17  O   UNL     1       7.375   6.580  16.901  0.00  0.00    +0.000 OA
BRANCH  17  19
ATOM     18  C   UNL     1       7.959   8.762  17.693  0.00  0.00    +0.000 C 
ATOM     19  C   UNL     1       7.851   7.287  18.050  0.00  0.00    +0.000 C 
ENDBRANCH  17  19
ENDBRANCH  15  17
ENDBRANCH   1  15
TORSDOF 3
ENDMDL
MODEL 9
REMARK VINA RESULT:      -7.0      2.986      5.329
REMARK  Name = 
REMARK  4 active torsions:
REMARK  status: ('A' for Active; 'I' for Inactive)
REMARK    1  A    between atoms: C_1  and  C_2
REMARK    2  A    between atoms: C_2  and  O_3
REMARK    3  A    between atoms: O_3  and  C_4
REMARK    4  A    between atoms: C_4  and  C_6
REMARK                            x       y       z     vdW  Elec       q    Type
REMARK                         _______ _______ _______ _____ _____    ______ ____
ROOT
ATOM      1  C   UNL     1       3.111   4.217  18.075  0.00  0.00    +0.000 A 
ATOM      2  C   UNL     1       4.067   3.274  18.113  0.00  0.00    +0.000 A 
ATOM      3  N   UNL     1       5.414   3.517  18.009  0.00  0.00    +0.000 N 
ATOM      4  C   UNL     1       5.896   4.815  17.805  0.00  0.00    +0.000 A 
ATOM      5  C   UNL     1       7.264   5.086  17.698  0.00  0.00    +0.000 A 
ATOM      6  F   UNL     1       8.144   4.075  17.733  0.00  0.00    +0.000 F 
ATOM      7  C   UNL     1       7.735   6.389  17.552  0.00  0.00    +0.000 A 
ATOM      8  C   UNL     1       6.826   7.436  17.515  0.00  0.00    +0.000 A 
ATOM      9  F   UNL     1       7.271   8.691  17.383  0.00  0.00    +0.000 F 
ATOM     10  C   UNL     1       5.460   7.208  17.614  0.00  0.00    +0.000 A 
ATOM     11  C   UNL     1       5.003   5.894  17.764  0.00  0.00    +0.000 A 
ATOM     12  C   UNL     1       3.547   5.626  17.854  0.00  0.00    +0.000 A 
ATOM     13  O   UNL     1       2.768   6.560  17.698  0.00  0.00    +0.000 OA
ATOM     14  H   UNL     1       6.059   2.738  17.910  0.00  0.00    +0.000 HD
ENDROOT
BRANCH   1  15
ATOM     15  C   UNL     1       1.697   3.796  18.141  0.00  0.00    +0.000 C 
ATOM     16  O   UNL     1       0.851   4.117  17.320  0.00  0.00    +0.000 OA
BRANCH  15  17
ATOM     17  O   UNL     1       1.475   3.080  19.266  0.00  0.00    +0.000 OA
BRANCH  17  19
ATOM     18  C   UNL     1       2.017   3.484  21.562  0.00  0.00    +0.000 C 
ATOM     19  C   UNL     1       1.079   3.833  20.417  0.00  0.00    +0.000 C 
ENDBRANCH  17  19
ENDBRANCH  15  17
ENDBRANCH   1  15
TORSDOF 3
ENDMDL
