MODEL 1
REMARK VINA RESULT:      -8.0      0.000      0.000
REMARK  Name = 
REMARK  12 active torsions:
REMARK  status: ('A' for Active; 'I' for Inactive)
REMARK    1  A    between atoms: C_1  and  O_2
REMARK    2  A    between atoms: O_2  and  C_3
REMARK    3  A    between atoms: C_6  and  C_7
REMARK    4  A    between atoms: C_7  and  C_8
REMARK    5  A    between atoms: C_8  and  O_9
REMARK    6  A    between atoms: C_8  and  C_11
REMARK    7  A    between atoms: O_9  and  C_10
REMARK    8  A    between atoms: C_11  and  O_13
REMARK    9  A    between atoms: C_15  and  C_16
REMARK   10  A    between atoms: N_18  and  C_19
REMARK   11  A    between atoms: C_19  and  C_20
REMARK   12  A    between atoms: C_23  and  C_24
REMARK                            x       y       z     vdW  Elec       q    Type
REMARK                         _______ _______ _______ _____ _____    ______ ____
ROOT
ATOM      1  C   UNL     1       2.352   5.457  19.467  0.00  0.00    +0.000 A 
ATOM      2  C   UNL     1       3.153   4.465  18.886  0.00  0.00    +0.000 A 
ATOM      3  C   UNL     1       4.075   4.766  17.883  0.00  0.00    +0.000 A 
ATOM      4  C   UNL     1       4.217   6.073  17.421  0.00  0.00    +0.000 A 
ATOM      5  C   UNL     1       3.395   7.063  17.972  0.00  0.00    +0.000 A 
ATOM      6  C   UNL     1       2.497   6.788  19.023  0.00  0.00    +0.000 A 
ENDROOT
BRANCH   6   7
ATOM      7  C   UNL     1       1.842   7.956  19.714  0.00  0.00    +0.000 C 
ATOM      8  O   UNL     1       1.632   7.945  20.920  0.00  0.00    +0.000 OA
ATOM      9  N   UNL     1       1.558   9.066  18.928  0.00  0.00    +0.000 N 
ATOM     10  H   UNL     1       1.690   9.041  17.931  0.00  0.00    +0.000 HD
BRANCH   9  11
ATOM     11  C   UNL     1       0.949  10.266  19.468  0.00  0.00    +0.000 C 
BRANCH  11  12
ATOM     12  C   UNL     1      -0.387  10.512  18.812  0.00  0.00    +0.000 A 
ATOM     13  C   UNL     1      -1.271  11.448  19.365  0.00  0.00    +0.000 A 
ATOM     14  C   UNL     1      -2.539  11.643  18.809  0.00  0.00    +0.000 A 
ATOM     15  C   UNL     1      -2.951  10.897  17.697  0.00  0.00    +0.000 A 
ATOM     16  C   UNL     1      -2.062   9.966  17.140  0.00  0.00    +0.000 A 
ATOM     17  C   UNL     1      -0.791   9.776  17.692  0.00  0.00    +0.000 A 
BRANCH  15  18
ATOM     18  C   UNL     1      -4.330  11.075  17.110  0.00  0.00    +0.000 C 
ATOM     19  F   UNL     1      -4.714  12.378  16.993  0.00  0.00    +0.000 F 
ATOM     20  F   UNL     1      -4.441  10.541  15.862  0.00  0.00    +0.000 F 
ATOM     21  F   UNL     1      -5.296  10.470  17.858  0.00  0.00    +0.000 F 
ENDBRANCH  15  18
ENDBRANCH  11  12
ENDBRANCH   9  11
ENDBRANCH   6   7
BRANCH   1  23
ATOM     22  C   UNL     1       1.662   3.927  21.122  0.00  0.00    +0.000 C 
ATOM     23  O   UNL     1       1.461   5.177  20.465  0.00  0.00    +0.000 OA
ENDBRANCH   1  23
BRANCH   4  24
ATOM     24  C   UNL     1       5.332   6.354  16.437  0.00  0.00    +0.000 C 
BRANCH  24  25
ATOM     25  C   UNL     1       6.615   5.509  16.555  0.00  0.00    +0.000 C 
BRANCH  25  26
ATOM     26  O   UNL     1       7.489   5.530  15.415  0.00  0.00    +0.000 OA
ATOM     27  C   UNL     1       6.985   4.857  14.260  0.00  0.00    +0.000 C 
ENDBRANCH  25  26
BRANCH  25  28
ATOM     28  C   UNL     1       7.416   5.866  17.802  0.00  0.00    +0.000 C 
ATOM     29  O   UNL     1       7.829   6.983  18.087  0.00  0.00    +0.000 OA
BRANCH  28  30
ATOM     30  O   UNL     1       7.660   4.772  18.566  0.00  0.00    +0.000 OA
ATOM     31  H   UNL     1       7.557   4.993  19.518  0.00  0.00    +0.000 HD
ENDBRANCH  28  30
ENDBRANCH  25  28
ENDBRANCH  24  25
ENDBRANCH   4  24
TORSDOF 10
ENDMDL
MODEL 2
REMARK VINA RESULT:      -7.9      2.054      2.716
REMARK  Name = 
REMARK  12 active torsions:
REMARK  status: ('A' for Active; 'I' for Inactive)
REMARK    1  A    between atoms: C_1  and  O_2
REMARK    2  A    between atoms: O_2  and  C_3
REMARK    3  A    between atoms: C_6  and  C_7
REMARK    4  A    between atoms: C_7  and  C_8
REMARK    5  A    between atoms: C_8  and  O_9
REMARK    6  A    between atoms: C_8  and  C_11
REMARK    7  A    between atoms: O_9  and  C_10
REMARK    8  A    between atoms: C_11  and  O_13
REMARK    9  A    between atoms: C_15  and  C_16
REMARK   10  A    between atoms: N_18  and  C_19
REMARK   11  A    between atoms: C_19  and  C_20
REMARK   12  A    between atoms: C_23  and  C_24
REMARK                            x       y       z     vdW  Elec       q    Type
REMARK                         _______ _______ _______ _____ _____    ______ ____
ROOT
ATOM      1  C   UNL     1       2.690   3.681  18.680  0.00  0.00    +0.000 A 
ATOM      2  C   UNL     1       3.465   3.113  17.660  0.00  0.00    +0.000 A 
ATOM      3  C   UNL     1       4.287   3.895  16.849  0.00  0.00    +0.000 A 
ATOM      4  C   UNL     1       4.352   5.276  17.026  0.00  0.00    +0.000 A 
ATOM      5  C   UNL     1       3.552   5.853  18.019  0.00  0.00    +0.000 A 
ATOM      6  C   UNL     1       2.757   5.075  18.884  0.00  0.00    +0.000 A 
ENDROOT
BRANCH   6   7
ATOM      7  C   UNL     1       2.132   5.758  20.072  0.00  0.00    +0.000 C 
ATOM      8  O   UNL     1       1.750   5.119  21.045  0.00  0.00    +0.000 OA
ATOM      9  N   UNL     1       2.077   7.146  20.035  0.00  0.00    +0.000 N 
ATOM     10  H   UNL     1       2.347   7.652  19.210  0.00  0.00    +0.000 HD
BRANCH   9  11
ATOM     11  C   UNL     1       1.521   7.931  21.120  0.00  0.00    +0.000 C 
BRANCH  11  12
ATOM     12  C   UNL     1       0.787   9.130  20.573  0.00  0.00    +0.000 A 
ATOM     13  C   UNL     1       1.026   9.551  19.259  0.00  0.00    +0.000 A 
ATOM     14  C   UNL     1       0.404  10.698  18.756  0.00  0.00    +0.000 A 
ATOM     15  C   UNL     1      -0.458  11.452  19.562  0.00  0.00    +0.000 A 
ATOM     16  C   UNL     1      -0.701  11.025  20.875  0.00  0.00    +0.000 A 
ATOM     17  C   UNL     1      -0.086   9.874  21.377  0.00  0.00    +0.000 A 
BRANCH  15  18
ATOM     18  C   UNL     1      -1.107  12.711  19.040  0.00  0.00    +0.000 C 
ATOM     19  F   UNL     1      -0.404  13.847  19.314  0.00  0.00    +0.000 F 
ATOM     20  F   UNL     1      -1.272  12.693  17.688  0.00  0.00    +0.000 F 
ATOM     21  F   UNL     1      -2.350  12.911  19.563  0.00  0.00    +0.000 F 
ENDBRANCH  15  18
ENDBRANCH  11  12
ENDBRANCH   9  11
ENDBRANCH   6   7
BRANCH   1  23
ATOM     22  C   UNL     1       0.710   2.417  18.885  0.00  0.00    +0.000 C 
ATOM     23  O   UNL     1       1.897   2.922  19.495  0.00  0.00    +0.000 OA
ENDBRANCH   1  23
BRANCH   4  24
ATOM     24  C   UNL     1       5.369   6.044  16.209  0.00  0.00    +0.000 C 
BRANCH  24  25
ATOM     25  C   UNL     1       6.857   5.706  16.425  0.00  0.00    +0.000 C 
BRANCH  25  26
ATOM     26  O   UNL     1       7.675   5.684  15.245  0.00  0.00    +0.000 OA
ATOM     27  C   UNL     1       7.144   4.917  14.162  0.00  0.00    +0.000 C 
ENDBRANCH  25  26
BRANCH  25  28
ATOM     28  C   UNL     1       7.501   6.621  17.460  0.00  0.00    +0.000 C 
ATOM     29  O   UNL     1       7.853   6.288  18.584  0.00  0.00    +0.000 OA
BRANCH  28  30
ATOM     30  O   UNL     1       7.613   7.891  16.999  0.00  0.00    +0.000 OA
ATOM     31  H   UNL     1       7.298   7.945  16.069  0.00  0.00    +0.000 HD
ENDBRANCH  28  30
ENDBRANCH  25  28
ENDBRANCH  24  25
ENDBRANCH   4  24
TORSDOF 10
ENDMDL
MODEL 3
REMARK VINA RESULT:      -7.9      1.890      2.714
REMARK  Name = 
REMARK  12 active torsions:
REMARK  status: ('A' for Active; 'I' for Inactive)
REMARK    1  A    between atoms: C_1  and  O_2
REMARK    2  A    between atoms: O_2  and  C_3
REMARK    3  A    between atoms: C_6  and  C_7
REMARK    4  A    between atoms: C_7  and  C_8
REMARK    5  A    between atoms: C_8  and  O_9
REMARK    6  A    between atoms: C_8  and  C_11
REMARK    7  A    between atoms: O_9  and  C_10
REMARK    8  A    between atoms: C_11  and  O_13
REMARK    9  A    between atoms: C_15  and  C_16
REMARK   10  A    between atoms: N_18  and  C_19
REMARK   11  A    between atoms: C_19  and  C_20
REMARK   12  A    between atoms: C_23  and  C_24
REMARK                            x       y       z     vdW  Elec       q    Type
REMARK                         _______ _______ _______ _____ _____    ______ ____
ROOT
ATOM      1  C   UNL     1       2.847   3.638  18.617  0.00  0.00    +0.000 A 
ATOM      2  C   UNL     1       3.639   3.047  17.625  0.00  0.00    +0.000 A 
ATOM      3  C   UNL     1       4.505   3.805  16.836  0.00  0.00    +0.000 A 
ATOM      4  C   UNL     1       4.597   5.185  17.008  0.00  0.00    +0.000 A 
ATOM      5  C   UNL     1       3.781   5.786  17.974  0.00  0.00    +0.000 A 
ATOM      6  C   UNL     1       2.941   5.031  18.817  0.00  0.00    +0.000 A 
ENDROOT
BRANCH   6   7
ATOM      7  C   UNL     1       2.295   5.736  19.981  0.00  0.00    +0.000 C 
ATOM      8  O   UNL     1       1.882   5.113  20.952  0.00  0.00    +0.000 OA
ATOM      9  N   UNL     1       2.258   7.124  19.928  0.00  0.00    +0.000 N 
ATOM     10  H   UNL     1       2.554   7.617  19.103  0.00  0.00    +0.000 HD
BRANCH   9  11
ATOM     11  C   UNL     1       1.685   7.928  20.990  0.00  0.00    +0.000 C 
BRANCH  11  12
ATOM     12  C   UNL     1       0.908   9.083  20.408  0.00  0.00    +0.000 A 
ATOM     13  C   UNL     1       0.105   9.871  21.242  0.00  0.00    +0.000 A 
ATOM     14  C   UNL     1      -0.672  10.905  20.711  0.00  0.00    +0.000 A 
ATOM     15  C   UNL     1      -0.670  11.161  19.334  0.00  0.00    +0.000 A 
ATOM     16  C   UNL     1       0.141  10.376  18.501  0.00  0.00    +0.000 A 
ATOM     17  C   UNL     1       0.924   9.347  19.033  0.00  0.00    +0.000 A 
BRANCH  15  18
ATOM     18  C   UNL     1      -1.531  12.252  18.745  0.00  0.00    +0.000 C 
ATOM     19  F   UNL     1      -2.842  12.175  19.111  0.00  0.00    +0.000 F 
ATOM     20  F   UNL     1      -1.117  13.499  19.106  0.00  0.00    +0.000 F 
ATOM     21  F   UNL     1      -1.526  12.241  17.382  0.00  0.00    +0.000 F 
ENDBRANCH  15  18
ENDBRANCH  11  12
ENDBRANCH   9  11
ENDBRANCH   6   7
BRANCH   1  23
ATOM     22  C   UNL     1       0.808   2.466  18.780  0.00  0.00    +0.000 C 
ATOM     23  O   UNL     1       2.011   2.903  19.411  0.00  0.00    +0.000 OA
ENDBRANCH   1  23
BRANCH   4  24
ATOM     24  C   UNL     1       5.657   5.924  16.221  0.00  0.00    +0.000 C 
BRANCH  24  25
ATOM     25  C   UNL     1       6.962   6.292  16.954  0.00  0.00    +0.000 C 
BRANCH  25  26
ATOM     26  O   UNL     1       6.891   7.426  17.833  0.00  0.00    +0.000 OA
ATOM     27  C   UNL     1       7.936   8.385  17.660  0.00  0.00    +0.000 C 
ENDBRANCH  25  26
BRANCH  25  28
ATOM     28  C   UNL     1       7.535   5.106  17.720  0.00  0.00    +0.000 C 
ATOM     29  O   UNL     1       8.139   4.163  17.224  0.00  0.00    +0.000 OA
BRANCH  28  30
ATOM     30  O   UNL     1       7.264   5.191  19.046  0.00  0.00    +0.000 OA
ATOM     31  H   UNL     1       7.931   4.687  19.562  0.00  0.00    +0.000 HD
ENDBRANCH  28  30
ENDBRANCH  25  28
ENDBRANCH  24  25
ENDBRANCH   4  24
TORSDOF 10
ENDMDL
MODEL 4
REMARK VINA RESULT:      -7.9      1.755      2.347
REMARK  Name = 
REMARK  12 active torsions:
REMARK  status: ('A' for Active; 'I' for Inactive)
REMARK    1  A    between atoms: C_1  and  O_2
REMARK    2  A    between atoms: O_2  and  C_3
REMARK    3  A    between atoms: C_6  and  C_7
REMARK    4  A    between atoms: C_7  and  C_8
REMARK    5  A    between atoms: C_8  and  O_9
REMARK    6  A    between atoms: C_8  and  C_11
REMARK    7  A    between atoms: O_9  and  C_10
REMARK    8  A    between atoms: C_11  and  O_13
REMARK    9  A    between atoms: C_15  and  C_16
REMARK   10  A    between atoms: N_18  and  C_19
REMARK   11  A    between atoms: C_19  and  C_20
REMARK   12  A    between atoms: C_23  and  C_24
REMARK                            x       y       z     vdW  Elec       q    Type
REMARK                         _______ _______ _______ _____ _____    ______ ____
ROOT
ATOM      1  C   UNL     1       2.924   3.668  19.002  0.00  0.00    +0.000 A 
ATOM      2  C   UNL     1       3.826   3.072  18.112  0.00  0.00    +0.000 A 
ATOM      3  C   UNL     1       4.555   3.831  17.196  0.00  0.00    +0.000 A 
ATOM      4  C   UNL     1       4.394   5.214  17.134  0.00  0.00    +0.000 A 
ATOM      5  C   UNL     1       3.466   5.811  17.997  0.00  0.00    +0.000 A 
ATOM      6  C   UNL     1       2.762   5.069  18.965  0.00  0.00    +0.000 A 
ENDROOT
BRANCH   6   7
ATOM      7  C   UNL     1       1.980   5.829  20.005  0.00  0.00    +0.000 C 
ATOM      8  O   UNL     1       1.132   5.276  20.694  0.00  0.00    +0.000 OA
ATOM      9  N   UNL     1       2.321   7.163  20.188  0.00  0.00    +0.000 N 
ATOM     10  H   UNL     1       2.983   7.616  19.581  0.00  0.00    +0.000 HD
BRANCH   9  11
ATOM     11  C   UNL     1       1.665   8.006  21.169  0.00  0.00    +0.000 C 
BRANCH  11  12
ATOM     12  C   UNL     1       0.902   9.110  20.480  0.00  0.00    +0.000 A 
ATOM     13  C   UNL     1      -0.078   9.823  21.185  0.00  0.00    +0.000 A 
ATOM     14  C   UNL     1      -0.839  10.806  20.545  0.00  0.00    +0.000 A 
ATOM     15  C   UNL     1      -0.644  11.086  19.187  0.00  0.00    +0.000 A 
ATOM     16  C   UNL     1       0.343  10.377  18.485  0.00  0.00    +0.000 A 
ATOM     17  C   UNL     1       1.109   9.399  19.126  0.00  0.00    +0.000 A 
BRANCH  15  18
ATOM     18  C   UNL     1      -1.484  12.121  18.478  0.00  0.00    +0.000 C 
ATOM     19  F   UNL     1      -2.551  12.556  19.207  0.00  0.00    +0.000 F 
ATOM     20  F   UNL     1      -0.775  13.237  18.153  0.00  0.00    +0.000 F 
ATOM     21  F   UNL     1      -2.001  11.657  17.305  0.00  0.00    +0.000 F 
ENDBRANCH  15  18
ENDBRANCH  11  12
ENDBRANCH   9  11
ENDBRANCH   6   7
BRANCH   1  23
ATOM     22  C   UNL     1       1.302   1.996  19.366  0.00  0.00    +0.000 C 
ATOM     23  O   UNL     1       2.221   2.937  19.919  0.00  0.00    +0.000 OA
ENDBRANCH   1  23
BRANCH   4  24
ATOM     24  C   UNL     1       5.316   5.991  16.219  0.00  0.00    +0.000 C 
BRANCH  24  25
ATOM     25  C   UNL     1       6.833   5.797  16.408  0.00  0.00    +0.000 C 
BRANCH  25  26
ATOM     26  O   UNL     1       7.617   5.766  15.205  0.00  0.00    +0.000 OA
ATOM     27  C   UNL     1       7.205   4.791  14.244  0.00  0.00    +0.000 C 
ENDBRANCH  25  26
BRANCH  25  28
ATOM     28  C   UNL     1       7.423   6.832  17.359  0.00  0.00    +0.000 C 
ATOM     29  O   UNL     1       7.663   8.000  17.080  0.00  0.00    +0.000 OA
BRANCH  28  30
ATOM     30  O   UNL     1       7.694   6.293  18.573  0.00  0.00    +0.000 OA
ATOM     31  H   UNL     1       8.666   6.254  18.718  0.00  0.00    +0.000 HD
ENDBRANCH  28  30
ENDBRANCH  25  28
ENDBRANCH  24  25
ENDBRANCH   4  24
TORSDOF 10
ENDMDL
MODEL 5
REMARK VINA RESULT:      -7.8      1.913      2.597
REMARK  Name = 
REMARK  12 active torsions:
REMARK  status: ('A' for Active; 'I' for Inactive)
REMARK    1  A    between atoms: C_1  and  O_2
REMARK    2  A    between atoms: O_2  and  C_3
REMARK    3  A    between atoms: C_6  and  C_7
REMARK    4  A    between atoms: C_7  and  C_8
REMARK    5  A    between atoms: C_8  and  O_9
REMARK    6  A    between atoms: C_8  and  C_11
REMARK    7  A    between atoms: O_9  and  C_10
REMARK    8  A    between atoms: C_11  and  O_13
REMARK    9  A    between atoms: C_15  and  C_16
REMARK   10  A    between atoms: N_18  and  C_19
REMARK   11  A    between atoms: C_19  and  C_20
REMARK   12  A    between atoms: C_23  and  C_24
REMARK                            x       y       z     vdW  Elec       q    Type
REMARK                         _______ _______ _______ _____ _____    ______ ____
ROOT
ATOM      1  C   UNL     1       2.351   4.032  18.180  0.00  0.00    +0.000 A 
ATOM      2  C   UNL     1       3.160   3.282  17.317  0.00  0.00    +0.000 A 
ATOM      3  C   UNL     1       4.535   3.503  17.231  0.00  0.00    +0.000 A 
ATOM      4  C   UNL     1       5.143   4.494  17.999  0.00  0.00    +0.000 A 
ATOM      5  C   UNL     1       4.334   5.272  18.836  0.00  0.00    +0.000 A 
ATOM      6  C   UNL     1       2.953   5.027  18.978  0.00  0.00    +0.000 A 
ENDROOT
BRANCH   6   7
ATOM      7  C   UNL     1       2.220   5.747  20.079  0.00  0.00    +0.000 C 
ATOM      8  O   UNL     1       1.616   5.131  20.949  0.00  0.00    +0.000 OA
ATOM      9  N   UNL     1       2.325   7.132  20.097  0.00  0.00    +0.000 N 
ATOM     10  H   UNL     1       2.782   7.626  19.349  0.00  0.00    +0.000 HD
BRANCH   9  11
ATOM     11  C   UNL     1       1.688   7.947  21.113  0.00  0.00    +0.000 C 
BRANCH  11  12
ATOM     12  C   UNL     1       0.964   9.106  20.473  0.00  0.00    +0.000 A 
ATOM     13  C   UNL     1      -0.028   9.787  21.190  0.00  0.00    +0.000 A 
ATOM     14  C   UNL     1      -0.754  10.821  20.591  0.00  0.00    +0.000 A 
ATOM     15  C   UNL     1      -0.510  11.184  19.261  0.00  0.00    +0.000 A 
ATOM     16  C   UNL     1       0.489  10.507  18.547  0.00  0.00    +0.000 A 
ATOM     17  C   UNL     1       1.221   9.477  19.148  0.00  0.00    +0.000 A 
BRANCH  15  18
ATOM     18  C   UNL     1      -1.312  12.276  18.593  0.00  0.00    +0.000 C 
ATOM     19  F   UNL     1      -0.592  13.026  17.712  0.00  0.00    +0.000 F 
ATOM     20  F   UNL     1      -2.372  11.790  17.889  0.00  0.00    +0.000 F 
ATOM     21  F   UNL     1      -1.836  13.159  19.490  0.00  0.00    +0.000 F 
ENDBRANCH  15  18
ENDBRANCH  11  12
ENDBRANCH   9  11
ENDBRANCH   6   7
BRANCH   1  23
ATOM     22  C   UNL     1       0.644   2.511  18.753  0.00  0.00    +0.000 C 
ATOM     23  O   UNL     1       1.006   3.810  18.289  0.00  0.00    +0.000 OA
ENDBRANCH   1  23
BRANCH   4  24
ATOM     24  C   UNL     1       6.654   4.585  17.964  0.00  0.00    +0.000 C 
BRANCH  24  25
ATOM     25  C   UNL     1       7.282   5.601  16.991  0.00  0.00    +0.000 C 
BRANCH  25  26
ATOM     26  O   UNL     1       6.582   5.803  15.753  0.00  0.00    +0.000 OA
ATOM     27  C   UNL     1       6.888   4.854  14.729  0.00  0.00    +0.000 C 
ENDBRANCH  25  26
BRANCH  25  28
ATOM     28  C   UNL     1       7.516   6.952  17.656  0.00  0.00    +0.000 C 
ATOM     29  O   UNL     1       8.217   7.150  18.640  0.00  0.00    +0.000 OA
BRANCH  28  30
ATOM     30  O   UNL     1       6.812   7.937  17.043  0.00  0.00    +0.000 OA
ATOM     31  H   UNL     1       7.379   8.730  16.915  0.00  0.00    +0.000 HD
ENDBRANCH  28  30
ENDBRANCH  25  28
ENDBRANCH  24  25
ENDBRANCH   4  24
TORSDOF 10
ENDMDL
MODEL 6
REMARK VINA RESULT:      -7.8      1.897      2.789
REMARK  Name = 
REMARK  12 active torsions:
REMARK  status: ('A' for Active; 'I' for Inactive)
REMARK    1  A    between atoms: C_1  and  O_2
REMARK    2  A    between atoms: O_2  and  C_3
REMARK    3  A    between atoms: C_6  and  C_7
REMARK    4  A    between atoms: C_7  and  C_8
REMARK    5  A    between atoms: C_8  and  O_9
REMARK    6  A    between atoms: C_8  and  C_11
REMARK    7  A    between atoms: O_9  and  C_10
REMARK    8  A    between atoms: C_11  and  O_13
REMARK    9  A    between atoms: C_15  and  C_16
REMARK   10  A    between atoms: N_18  and  C_19
REMARK   11  A    between atoms: C_19  and  C_20
REMARK   12  A    between atoms: C_23  and  C_24
REMARK                            x       y       z     vdW  Elec       q    Type
REMARK                         _______ _______ _______ _____ _____    ______ ____
ROOT
ATOM      1  C   UNL     1       2.508   3.995  18.197  0.00  0.00    +0.000 A 
ATOM      2  C   UNL     1       3.171   3.375  17.130  0.00  0.00    +0.000 A 
ATOM      3  C   UNL     1       4.214   4.006  16.453  0.00  0.00    +0.000 A 
ATOM      4  C   UNL     1       4.623   5.288  16.819  0.00  0.00    +0.000 A 
ATOM      5  C   UNL     1       3.941   5.927  17.861  0.00  0.00    +0.000 A 
ATOM      6  C   UNL     1       2.921   5.285  18.591  0.00  0.00    +0.000 A 
ENDROOT
BRANCH   6   7
ATOM      7  C   UNL     1       2.423   5.955  19.844  0.00  0.00    +0.000 C 
ATOM      8  O   UNL     1       2.355   5.349  20.907  0.00  0.00    +0.000 OA
ATOM      9  N   UNL     1       2.114   7.307  19.748  0.00  0.00    +0.000 N 
ATOM     10  H   UNL     1       2.126   7.778  18.860  0.00  0.00    +0.000 HD
BRANCH   9  11
ATOM     11  C   UNL     1       1.645   8.080  20.882  0.00  0.00    +0.000 C 
BRANCH  11  12
ATOM     12  C   UNL     1       0.770   9.215  20.412  0.00  0.00    +0.000 A 
ATOM     13  C   UNL     1       0.800   9.606  19.067  0.00  0.00    +0.000 A 
ATOM     14  C   UNL     1       0.044  10.696  18.627  0.00  0.00    +0.000 A 
ATOM     15  C   UNL     1      -0.746  11.425  19.526  0.00  0.00    +0.000 A 
ATOM     16  C   UNL     1      -0.781  11.027  20.870  0.00  0.00    +0.000 A 
ATOM     17  C   UNL     1      -0.031   9.932  21.310  0.00  0.00    +0.000 A 
BRANCH  15  18
ATOM     18  C   UNL     1      -1.539  12.625  19.068  0.00  0.00    +0.000 C 
ATOM     19  F   UNL     1      -0.927  13.346  18.086  0.00  0.00    +0.000 F 
ATOM     20  F   UNL     1      -2.762  12.287  18.574  0.00  0.00    +0.000 F 
ATOM     21  F   UNL     1      -1.779  13.507  20.079  0.00  0.00    +0.000 F 
ENDBRANCH  15  18
ENDBRANCH  11  12
ENDBRANCH   9  11
ENDBRANCH   6   7
BRANCH   1  23
ATOM     22  C   UNL     1       1.858   2.147  19.507  0.00  0.00    +0.000 C 
ATOM     23  O   UNL     1       1.499   3.377  18.881  0.00  0.00    +0.000 OA
ENDBRANCH   1  23
BRANCH   4  24
ATOM     24  C   UNL     1       5.851   5.856  16.140  0.00  0.00    +0.000 C 
BRANCH  24  25
ATOM     25  C   UNL     1       7.048   6.231  17.035  0.00  0.00    +0.000 C 
BRANCH  25  26
ATOM     26  O   UNL     1       6.897   7.424  17.820  0.00  0.00    +0.000 OA
ATOM     27  C   UNL     1       8.030   8.296  17.811  0.00  0.00    +0.000 C 
ENDBRANCH  25  26
BRANCH  25  28
ATOM     28  C   UNL     1       7.453   5.082  17.951  0.00  0.00    +0.000 C 
ATOM     29  O   UNL     1       7.271   5.038  19.161  0.00  0.00    +0.000 OA
BRANCH  28  30
ATOM     30  O   UNL     1       8.087   4.099  17.265  0.00  0.00    +0.000 OA
ATOM     31  H   UNL     1       7.608   3.904  16.430  0.00  0.00    +0.000 HD
ENDBRANCH  28  30
ENDBRANCH  25  28
ENDBRANCH  24  25
ENDBRANCH   4  24
TORSDOF 10
ENDMDL
MODEL 7
REMARK VINA RESULT:      -7.8      0.603      1.299
REMARK  Name = 
REMARK  12 active torsions:
REMARK  status: ('A' for Active; 'I' for Inactive)
REMARK    1  A    between atoms: C_1  and  O_2
REMARK    2  A    between atoms: O_2  and  C_3
REMARK    3  A    between atoms: C_6  and  C_7
REMARK    4  A    between atoms: C_7  and  C_8
REMARK    5  A    between atoms: C_8  and  O_9
REMARK    6  A    between atoms: C_8  and  C_11
REMARK    7  A    between atoms: O_9  and  C_10
REMARK    8  A    between atoms: C_11  and  O_13
REMARK    9  A    between atoms: C_15  and  C_16
REMARK   10  A    between atoms: N_18  and  C_19
REMARK   11  A    between atoms: C_19  and  C_20
REMARK   12  A    between atoms: C_23  and  C_24
REMARK                            x       y       z     vdW  Elec       q    Type
REMARK                         _______ _______ _______ _____ _____    ______ ____
ROOT
ATOM      1  C   UNL     1       2.211   5.074  19.209  0.00  0.00    +0.000 A 
ATOM      2  C   UNL     1       2.918   4.034  18.592  0.00  0.00    +0.000 A 
ATOM      3  C   UNL     1       3.873   4.286  17.607  0.00  0.00    +0.000 A 
ATOM      4  C   UNL     1       4.144   5.591  17.199  0.00  0.00    +0.000 A 
ATOM      5  C   UNL     1       3.414   6.632  17.786  0.00  0.00    +0.000 A 
ATOM      6  C   UNL     1       2.485   6.402  18.820  0.00  0.00    +0.000 A 
ENDROOT
BRANCH   6   7
ATOM      7  C   UNL     1       1.939   7.598  19.555  0.00  0.00    +0.000 C 
ATOM      8  O   UNL     1       1.723   7.560  20.760  0.00  0.00    +0.000 OA
ATOM      9  N   UNL     1       1.761   8.758  18.812  0.00  0.00    +0.000 N 
ATOM     10  H   UNL     1       1.895   8.760  17.815  0.00  0.00    +0.000 HD
BRANCH   9  11
ATOM     11  C   UNL     1       1.264   9.988  19.397  0.00  0.00    +0.000 C 
BRANCH  11  12
ATOM     12  C   UNL     1      -0.129  10.278  18.896  0.00  0.00    +0.000 A 
ATOM     13  C   UNL     1      -0.563   9.718  17.687  0.00  0.00    +0.000 A 
ATOM     14  C   UNL     1      -1.827  10.026  17.175  0.00  0.00    +0.000 A 
ATOM     15  C   UNL     1      -2.675  10.910  17.855  0.00  0.00    +0.000 A 
ATOM     16  C   UNL     1      -2.241  11.463  19.068  0.00  0.00    +0.000 A 
ATOM     17  C   UNL     1      -0.981  11.150  19.585  0.00  0.00    +0.000 A 
BRANCH  15  18
ATOM     18  C   UNL     1      -4.027  11.277  17.293  0.00  0.00    +0.000 C 
ATOM     19  F   UNL     1      -4.005  11.589  15.966  0.00  0.00    +0.000 F 
ATOM     20  F   UNL     1      -4.938  10.273  17.424  0.00  0.00    +0.000 F 
ATOM     21  F   UNL     1      -4.575  12.358  17.918  0.00  0.00    +0.000 F 
ENDBRANCH  15  18
ENDBRANCH  11  12
ENDBRANCH   9  11
ENDBRANCH   6   7
BRANCH   1  23
ATOM     22  C   UNL     1       1.619   3.785  21.091  0.00  0.00    +0.000 C 
ATOM     23  O   UNL     1       1.289   4.840  20.191  0.00  0.00    +0.000 OA
ENDBRANCH   1  23
BRANCH   4  24
ATOM     24  C   UNL     1       5.289   5.804  16.232  0.00  0.00    +0.000 C 
BRANCH  24  25
ATOM     25  C   UNL     1       6.699   5.392  16.697  0.00  0.00    +0.000 C 
BRANCH  25  26
ATOM     26  O   UNL     1       7.599   4.957  15.666  0.00  0.00    +0.000 OA
ATOM     27  C   UNL     1       6.998   4.774  14.382  0.00  0.00    +0.000 C 
ENDBRANCH  25  26
BRANCH  25  28
ATOM     28  C   UNL     1       7.370   6.490  17.513  0.00  0.00    +0.000 C 
ATOM     29  O   UNL     1       7.785   6.373  18.659  0.00  0.00    +0.000 OA
BRANCH  28  30
ATOM     30  O   UNL     1       7.426   7.657  16.825  0.00  0.00    +0.000 OA
ATOM     31  H   UNL     1       8.189   7.650  16.205  0.00  0.00    +0.000 HD
ENDBRANCH  28  30
ENDBRANCH  25  28
ENDBRANCH  24  25
ENDBRANCH   4  24
TORSDOF 10
ENDMDL
MODEL 8
REMARK VINA RESULT:      -7.6      0.852      1.142
REMARK  Name = 
REMARK  12 active torsions:
REMARK  status: ('A' for Active; 'I' for Inactive)
REMARK    1  A    between atoms: C_1  and  O_2
REMARK    2  A    between atoms: O_2  and  C_3
REMARK    3  A    between atoms: C_6  and  C_7
REMARK    4  A    between atoms: C_7  and  C_8
REMARK    5  A    between atoms: C_8  and  O_9
REMARK    6  A    between atoms: C_8  and  C_11
REMARK    7  A    between atoms: O_9  and  C_10
REMARK    8  A    between atoms: C_11  and  O_13
REMARK    9  A    between atoms: C_15  and  C_16
REMARK   10  A    between atoms: N_18  and  C_19
REMARK   11  A    between atoms: C_19  and  C_20
REMARK   12  A    between atoms: C_23  and  C_24
REMARK                            x       y       z     vdW  Elec       q    Type
REMARK                         _______ _______ _______ _____ _____    ______ ____
ROOT
ATOM      1  C   UNL     1       2.221   4.884  19.621  0.00  0.00    +0.000 A 
ATOM      2  C   UNL     1       2.867   3.791  19.028  0.00  0.00    +0.000 A 
ATOM      3  C   UNL     1       3.725   3.954  17.940  0.00  0.00    +0.000 A 
ATOM      4  C   UNL     1       3.957   5.219  17.403  0.00  0.00    +0.000 A 
ATOM      5  C   UNL     1       3.286   6.310  17.968  0.00  0.00    +0.000 A 
ATOM      6  C   UNL     1       2.458   6.174  19.100  0.00  0.00    +0.000 A 
ENDROOT
BRANCH   6   7
ATOM      7  C   UNL     1       1.984   7.430  19.781  0.00  0.00    +0.000 C 
ATOM      8  O   UNL     1       1.769   7.458  20.987  0.00  0.00    +0.000 OA
ATOM      9  N   UNL     1       1.874   8.566  18.989  0.00  0.00    +0.000 N 
ATOM     10  H   UNL     1       2.005   8.516  17.993  0.00  0.00    +0.000 HD
BRANCH   9  11
ATOM     11  C   UNL     1       1.450   9.847  19.519  0.00  0.00    +0.000 C 
BRANCH  11  12
ATOM     12  C   UNL     1       0.093  10.215  18.972  0.00  0.00    +0.000 A 
ATOM     13  C   UNL     1      -0.705  11.141  19.655  0.00  0.00    +0.000 A 
ATOM     14  C   UNL     1      -1.991  11.446  19.198  0.00  0.00    +0.000 A 
ATOM     15  C   UNL     1      -2.508  10.820  18.057  0.00  0.00    +0.000 A 
ATOM     16  C   UNL     1      -1.704   9.898  17.370  0.00  0.00    +0.000 A 
ATOM     17  C   UNL     1      -0.416   9.598  17.822  0.00  0.00    +0.000 A 
BRANCH  15  18
ATOM     18  C   UNL     1      -3.907  11.115  17.575  0.00  0.00    +0.000 C 
ATOM     19  F   UNL     1      -4.811  10.142  17.881  0.00  0.00    +0.000 F 
ATOM     20  F   UNL     1      -4.409  12.267  18.099  0.00  0.00    +0.000 F 
ATOM     21  F   UNL     1      -3.970  11.266  16.221  0.00  0.00    +0.000 F 
ENDBRANCH  15  18
ENDBRANCH  11  12
ENDBRANCH   9  11
ENDBRANCH   6   7
BRANCH   1  23
ATOM     22  C   UNL     1       1.179   3.394  21.121  0.00  0.00    +0.000 C 
ATOM     23  O   UNL     1       1.395   4.740  20.700  0.00  0.00    +0.000 OA
ENDBRANCH   1  23
BRANCH   4  24
ATOM     24  C   UNL     1       5.006   5.342  16.319  0.00  0.00    +0.000 C 
BRANCH  24  25
ATOM     25  C   UNL     1       6.202   4.372  16.373  0.00  0.00    +0.000 C 
BRANCH  25  26
ATOM     26  O   UNL     1       6.635   3.836  15.113  0.00  0.00    +0.000 OA
ATOM     27  C   UNL     1       7.009   4.815  14.141  0.00  0.00    +0.000 C 
ENDBRANCH  25  26
BRANCH  25  28
ATOM     28  C   UNL     1       7.399   4.988  17.088  0.00  0.00    +0.000 C 
ATOM     29  O   UNL     1       7.633   6.186  17.183  0.00  0.00    +0.000 OA
BRANCH  28  30
ATOM     30  O   UNL     1       8.221   4.035  17.593  0.00  0.00    +0.000 OA
ATOM     31  H   UNL     1       7.903   3.141  17.337  0.00  0.00    +0.000 HD
ENDBRANCH  28  30
ENDBRANCH  25  28
ENDBRANCH  24  25
ENDBRANCH   4  24
TORSDOF 10
ENDMDL
MODEL 9
REMARK VINA RESULT:      -7.6      2.093      3.167
REMARK  Name = 
REMARK  12 active torsions:
REMARK  status: ('A' for Active; 'I' for Inactive)
REMARK    1  A    between atoms: C_1  and  O_2
REMARK    2  A    between atoms: O_2  and  C_3
REMARK    3  A    between atoms: C_6  and  C_7
REMARK    4  A    between atoms: C_7  and  C_8
REMARK    5  A    between atoms: C_8  and  O_9
REMARK    6  A    between atoms: C_8  and  C_11
REMARK    7  A    between atoms: O_9  and  C_10
REMARK    8  A    between atoms: C_11  and  O_13
REMARK    9  A    between atoms: C_15  and  C_16
REMARK   10  A    between atoms: N_18  and  C_19
REMARK   11  A    between atoms: C_19  and  C_20
REMARK   12  A    between atoms: C_23  and  C_24
REMARK                            x       y       z     vdW  Elec       q    Type
REMARK                         _______ _______ _______ _____ _____    ______ ____
ROOT
ATOM      1  C   UNL     1       2.735   3.679  18.640  0.00  0.00    +0.000 A 
ATOM      2  C   UNL     1       3.446   3.104  17.579  0.00  0.00    +0.000 A 
ATOM      3  C   UNL     1       4.248   3.874  16.736  0.00  0.00    +0.000 A 
ATOM      4  C   UNL     1       4.354   5.251  16.923  0.00  0.00    +0.000 A 
ATOM      5  C   UNL     1       3.617   5.837  17.959  0.00  0.00    +0.000 A 
ATOM      6  C   UNL     1       2.845   5.069  18.854  0.00  0.00    +0.000 A 
ENDROOT
BRANCH   6   7
ATOM      7  C   UNL     1       2.294   5.754  20.076  0.00  0.00    +0.000 C 
ATOM      8  O   UNL     1       2.090   5.136  21.114  0.00  0.00    +0.000 OA
ATOM      9  N   UNL     1       2.098   7.127  19.987  0.00  0.00    +0.000 N 
ATOM     10  H   UNL     1       2.222   7.611  19.114  0.00  0.00    +0.000 HD
BRANCH   9  11
ATOM     11  C   UNL     1       1.594   7.914  21.095  0.00  0.00    +0.000 C 
BRANCH  11  12
ATOM     12  C   UNL     1       0.804   9.092  20.580  0.00  0.00    +0.000 A 
ATOM     13  C   UNL     1       0.961   9.508  19.252  0.00  0.00    +0.000 A 
ATOM     14  C   UNL     1       0.286  10.636  18.776  0.00  0.00    +0.000 A 
ATOM     15  C   UNL     1      -0.549  11.376  19.622  0.00  0.00    +0.000 A 
ATOM     16  C   UNL     1      -0.712  10.953  20.950  0.00  0.00    +0.000 A 
ATOM     17  C   UNL     1      -0.043   9.821  21.425  0.00  0.00    +0.000 A 
BRANCH  15  18
ATOM     18  C   UNL     1      -1.256  12.615  19.129  0.00  0.00    +0.000 C 
ATOM     19  F   UNL     1      -2.590  12.634  19.405  0.00  0.00    +0.000 F 
ATOM     20  F   UNL     1      -0.747  13.757  19.669  0.00  0.00    +0.000 F 
ATOM     21  F   UNL     1      -1.156  12.768  17.778  0.00  0.00    +0.000 F 
ENDBRANCH  15  18
ENDBRANCH  11  12
ENDBRANCH   9  11
ENDBRANCH   6   7
BRANCH   1  23
ATOM     22  C   UNL     1       0.697   2.539  18.960  0.00  0.00    +0.000 C 
ATOM     23  O   UNL     1       1.964   2.931  19.485  0.00  0.00    +0.000 OA
ENDBRANCH   1  23
BRANCH   4  24
ATOM     24  C   UNL     1       5.349   6.004  16.066  0.00  0.00    +0.000 C 
BRANCH  24  25
ATOM     25  C   UNL     1       6.772   5.422  15.951  0.00  0.00    +0.000 C 
BRANCH  25  26
ATOM     26  O   UNL     1       7.138   4.454  16.947  0.00  0.00    +0.000 OA
ATOM     27  C   UNL     1       7.627   5.008  18.170  0.00  0.00    +0.000 C 
ENDBRANCH  25  26
BRANCH  25  28
ATOM     28  C   UNL     1       7.035   4.837  14.569  0.00  0.00    +0.000 C 
ATOM     29  O   UNL     1       6.491   3.845  14.100  0.00  0.00    +0.000 OA
BRANCH  28  30
ATOM     30  O   UNL     1       7.992   5.534  13.907  0.00  0.00    +0.000 OA
ATOM     31  H   UNL     1       8.839   5.036  13.912  0.00  0.00    +0.000 HD
ENDBRANCH  28  30
ENDBRANCH  25  28
ENDBRANCH  24  25
ENDBRANCH   4  24
TORSDOF 10
ENDMDL
