MODEL 1
REMARK VINA RESULT:      -8.0      0.000      0.000
REMARK  Name = 
REMARK  16 active torsions:
REMARK  status: ('A' for Active; 'I' for Inactive)
REMARK    1  A    between atoms: C_1  and  O_2
REMARK    2  A    between atoms: O_2  and  C_3
REMARK    3  A    between atoms: C_3  and  C_5
REMARK    4  A    between atoms: C_5  and  C_6
REMARK    5  A    between atoms: C_6  and  C_7
REMARK    6  A    between atoms: C_7  and  C_8
REMARK    7  A    between atoms: C_9  and  C_10
REMARK    8  A    between atoms: C_10  and  C_11
REMARK    9  A    between atoms: C_12  and  O_13
REMARK   10  A    between atoms: C_15  and  O_16
REMARK   11  A    between atoms: C_17  and  C_18
REMARK   12  A    between atoms: C_19  and  C_20
REMARK   13  A    between atoms: C_20  and  O_21
REMARK   14  A    between atoms: C_20  and  C_22
REMARK   15  A    between atoms: C_22  and  C_23
REMARK   16  A    between atoms: C_23  and  C_25
REMARK                            x       y       z     vdW  Elec       q    Type
REMARK                         _______ _______ _______ _____ _____    ______ ____
ROOT
ATOM      1  C   UNL     1       1.644   3.847  18.053  0.00  0.00    +0.000 C 
ATOM      2  C   UNL     1       0.985   2.742  18.913  0.00  0.00    +0.000 C 
ATOM      3  C   UNL     1       1.158   3.115  20.380  0.00  0.00    +0.000 C 
ATOM      4  C   UNL     1       1.566   4.572  20.393  0.00  0.00    +0.000 C 
ATOM      5  C   UNL     1       2.289   4.828  19.059  0.00  0.00    +0.000 C 
ENDROOT
BRANCH   2   6
ATOM      6  O   UNL     1       1.506   1.442  18.681  0.00  0.00    +0.000 OA
ATOM      7  H   UNL     1       2.255   1.504  18.065  0.00  0.00    +0.000 HD
ENDBRANCH   2   6
BRANCH   4   8
ATOM      8  O   UNL     1       2.422   4.823  21.505  0.00  0.00    +0.000 OA
ATOM      9  H   UNL     1       3.144   5.407  21.214  0.00  0.00    +0.000 HD
ENDBRANCH   4   8
BRANCH   5  10
ATOM     10  C   UNL     1       2.193   6.265  18.586  0.00  0.00    +0.000 C 
ATOM     11  C   UNL     1       2.159   7.336  19.392  0.00  0.00    +0.000 C 
BRANCH  11  12
ATOM     12  C   UNL     1       2.068   8.753  18.917  0.00  0.00    +0.000 C 
BRANCH  12  13
ATOM     13  O   UNL     1       1.871   8.756  17.508  0.00  0.00    +0.000 OA
ATOM     14  H   UNL     1       1.122   9.363  17.339  0.00  0.00    +0.000 HD
ENDBRANCH  12  13
BRANCH  12  15
ATOM     15  C   UNL     1       0.963   9.544  19.614  0.00  0.00    +0.000 C 
BRANCH  15  16
ATOM     16  C   UNL     1       0.513  10.765  18.831  0.00  0.00    +0.000 C 
ATOM     17  O   UNL     1       1.274  11.686  18.541  0.00  0.00    +0.000 OA
BRANCH  16  18
ATOM     18  C   UNL     1      -0.922  10.882  18.453  0.00  0.00    +0.000 A 
ATOM     19  C   UNL     1      -1.822  11.659  19.193  0.00  0.00    +0.000 A 
ATOM     20  C   UNL     1      -3.139  11.800  18.759  0.00  0.00    +0.000 A 
ATOM     21  C   UNL     1      -3.568  11.158  17.598  0.00  0.00    +0.000 A 
ATOM     22  C   UNL     1      -2.672  10.366  16.872  0.00  0.00    +0.000 A 
ATOM     23 CL   UNL     1      -3.203   9.577  15.438  0.00  0.00    +0.000 Cl
ATOM     24  C   UNL     1      -1.357  10.220  17.298  0.00  0.00    +0.000 A 
ENDBRANCH  16  18
ENDBRANCH  15  16
ENDBRANCH  12  15
ENDBRANCH  11  12
ENDBRANCH   5  10
BRANCH   1  25
ATOM     25  C   UNL     1       2.639   3.322  16.991  0.00  0.00    +0.000 C 
BRANCH  25  27
ATOM     26  C   UNL     1       5.123   3.846  16.790  0.00  0.00    +0.000 C 
ATOM     27  C   UNL     1       4.082   3.296  17.434  0.00  0.00    +0.000 C 
BRANCH  26  28
ATOM     28  C   UNL     1       5.054   4.533  15.459  0.00  0.00    +0.000 C 
BRANCH  28  29
ATOM     29  C   UNL     1       5.534   5.979  15.523  0.00  0.00    +0.000 C 
BRANCH  29  30
ATOM     30  C   UNL     1       5.619   6.503  16.953  0.00  0.00    +0.000 C 
BRANCH  30  31
ATOM     31  C   UNL     1       7.019   6.952  17.278  0.00  0.00    +0.000 C 
ATOM     32  O   UNL     1       7.432   8.108  17.195  0.00  0.00    +0.000 OA
BRANCH  31  34
ATOM     33  C   UNL     1       7.847   5.769  19.100  0.00  0.00    +0.000 C 
ATOM     34  O   UNL     1       7.759   5.886  17.680  0.00  0.00    +0.000 OA
ENDBRANCH  31  34
ENDBRANCH  30  31
ENDBRANCH  29  30
ENDBRANCH  28  29
ENDBRANCH  26  28
ENDBRANCH  25  27
ENDBRANCH   1  25
TORSDOF 15
ENDMDL
MODEL 2
REMARK VINA RESULT:      -7.4      2.967      3.996
REMARK  Name = 
REMARK  16 active torsions:
REMARK  status: ('A' for Active; 'I' for Inactive)
REMARK    1  A    between atoms: C_1  and  O_2
REMARK    2  A    between atoms: O_2  and  C_3
REMARK    3  A    between atoms: C_3  and  C_5
REMARK    4  A    between atoms: C_5  and  C_6
REMARK    5  A    between atoms: C_6  and  C_7
REMARK    6  A    between atoms: C_7  and  C_8
REMARK    7  A    between atoms: C_9  and  C_10
REMARK    8  A    between atoms: C_10  and  C_11
REMARK    9  A    between atoms: C_12  and  O_13
REMARK   10  A    between atoms: C_15  and  O_16
REMARK   11  A    between atoms: C_17  and  C_18
REMARK   12  A    between atoms: C_19  and  C_20
REMARK   13  A    between atoms: C_20  and  O_21
REMARK   14  A    between atoms: C_20  and  C_22
REMARK   15  A    between atoms: C_22  and  C_23
REMARK   16  A    between atoms: C_23  and  C_25
REMARK                            x       y       z     vdW  Elec       q    Type
REMARK                         _______ _______ _______ _____ _____    ______ ____
ROOT
ATOM      1  C   UNL     1       2.061   4.180  17.860  0.00  0.00    +0.000 C 
ATOM      2  C   UNL     1       1.292   3.191  18.768  0.00  0.00    +0.000 C 
ATOM      3  C   UNL     1       1.284   3.753  20.184  0.00  0.00    +0.000 C 
ATOM      4  C   UNL     1       1.698   5.203  20.056  0.00  0.00    +0.000 C 
ATOM      5  C   UNL     1       2.583   5.289  18.801  0.00  0.00    +0.000 C 
ENDROOT
BRANCH   2   6
ATOM      6  O   UNL     1       1.828   1.876  18.774  0.00  0.00    +0.000 OA
ATOM      7  H   UNL     1       1.258   1.298  18.239  0.00  0.00    +0.000 HD
ENDBRANCH   2   6
BRANCH   4   8
ATOM      8  O   UNL     1       2.412   5.604  21.224  0.00  0.00    +0.000 OA
ATOM      9  H   UNL     1       1.769   5.869  21.904  0.00  0.00    +0.000 HD
ENDBRANCH   4   8
BRANCH   5  10
ATOM     10  C   UNL     1       2.557   6.652  18.136  0.00  0.00    +0.000 C 
ATOM     11  C   UNL     1       1.789   7.679  18.525  0.00  0.00    +0.000 C 
BRANCH  11  12
ATOM     12  C   UNL     1       1.772   9.024  17.865  0.00  0.00    +0.000 C 
BRANCH  12  13
ATOM     13  O   UNL     1       0.518   9.206  17.221  0.00  0.00    +0.000 OA
ATOM     14  H   UNL     1      -0.010   9.782  17.812  0.00  0.00    +0.000 HD
ENDBRANCH  12  13
BRANCH  12  15
ATOM     15  C   UNL     1       2.046  10.167  18.841  0.00  0.00    +0.000 C 
BRANCH  15  16
ATOM     16  C   UNL     1       0.783  10.861  19.321  0.00  0.00    +0.000 C 
ATOM     17  O   UNL     1       0.194  11.707  18.651  0.00  0.00    +0.000 OA
BRANCH  16  18
ATOM     18  C   UNL     1       0.273  10.552  20.685  0.00  0.00    +0.000 A 
ATOM     19  C   UNL     1       0.775   9.485  21.440  0.00  0.00    +0.000 A 
ATOM     20  C   UNL     1       0.321   9.279  22.742  0.00  0.00    +0.000 A 
ATOM     21  C   UNL     1      -0.645  10.123  23.290  0.00  0.00    +0.000 A 
ATOM     22  C   UNL     1      -1.161  11.176  22.525  0.00  0.00    +0.000 A 
ATOM     23 CL   UNL     1      -2.350  12.217  23.203  0.00  0.00    +0.000 Cl
ATOM     24  C   UNL     1      -0.712  11.387  21.227  0.00  0.00    +0.000 A 
ENDBRANCH  16  18
ENDBRANCH  15  16
ENDBRANCH  12  15
ENDBRANCH  11  12
ENDBRANCH   5  10
BRANCH   1  25
ATOM     25  C   UNL     1       3.176   3.530  17.007  0.00  0.00    +0.000 C 
BRANCH  25  27
ATOM     26  C   UNL     1       5.583   4.355  16.930  0.00  0.00    +0.000 C 
ATOM     27  C   UNL     1       4.575   3.719  17.543  0.00  0.00    +0.000 C 
BRANCH  26  28
ATOM     28  C   UNL     1       5.528   4.941  15.550  0.00  0.00    +0.000 C 
BRANCH  28  29
ATOM     29  C   UNL     1       6.097   4.000  14.493  0.00  0.00    +0.000 C 
BRANCH  29  30
ATOM     30  C   UNL     1       5.273   3.997  13.210  0.00  0.00    +0.000 C 
BRANCH  30  31
ATOM     31  C   UNL     1       5.990   3.257  12.112  0.00  0.00    +0.000 C 
ATOM     32  O   UNL     1       7.179   3.388  11.826  0.00  0.00    +0.000 OA
BRANCH  31  34
ATOM     33  C   UNL     1       3.904   3.053  11.107  0.00  0.00    +0.000 C 
ATOM     34  O   UNL     1       5.124   2.417  11.487  0.00  0.00    +0.000 OA
ENDBRANCH  31  34
ENDBRANCH  30  31
ENDBRANCH  29  30
ENDBRANCH  28  29
ENDBRANCH  26  28
ENDBRANCH  25  27
ENDBRANCH   1  25
TORSDOF 15
ENDMDL
MODEL 3
REMARK VINA RESULT:      -7.3      2.856      3.543
REMARK  Name = 
REMARK  16 active torsions:
REMARK  status: ('A' for Active; 'I' for Inactive)
REMARK    1  A    between atoms: C_1  and  O_2
REMARK    2  A    between atoms: O_2  and  C_3
REMARK    3  A    between atoms: C_3  and  C_5
REMARK    4  A    between atoms: C_5  and  C_6
REMARK    5  A    between atoms: C_6  and  C_7
REMARK    6  A    between atoms: C_7  and  C_8
REMARK    7  A    between atoms: C_9  and  C_10
REMARK    8  A    between atoms: C_10  and  C_11
REMARK    9  A    between atoms: C_12  and  O_13
REMARK   10  A    between atoms: C_15  and  O_16
REMARK   11  A    between atoms: C_17  and  C_18
REMARK   12  A    between atoms: C_19  and  C_20
REMARK   13  A    between atoms: C_20  and  O_21
REMARK   14  A    between atoms: C_20  and  C_22
REMARK   15  A    between atoms: C_22  and  C_23
REMARK   16  A    between atoms: C_23  and  C_25
REMARK                            x       y       z     vdW  Elec       q    Type
REMARK                         _______ _______ _______ _____ _____    ______ ____
ROOT
ATOM      1  C   UNL     1       2.147   4.097  18.782  0.00  0.00    +0.000 C 
ATOM      2  C   UNL     1       1.768   2.599  18.677  0.00  0.00    +0.000 C 
ATOM      3  C   UNL     1       1.471   2.085  20.080  0.00  0.00    +0.000 C 
ATOM      4  C   UNL     1       1.304   3.315  20.946  0.00  0.00    +0.000 C 
ATOM      5  C   UNL     1       2.154   4.419  20.293  0.00  0.00    +0.000 C 
ENDROOT
BRANCH   2   6
ATOM      6  O   UNL     1       2.765   1.792  18.069  0.00  0.00    +0.000 OA
ATOM      7  H   UNL     1       2.706   0.890  18.424  0.00  0.00    +0.000 HD
ENDBRANCH   2   6
BRANCH   4   8
ATOM      8  O   UNL     1       1.747   3.034  22.272  0.00  0.00    +0.000 OA
ATOM      9  H   UNL     1       2.390   3.714  22.534  0.00  0.00    +0.000 HD
ENDBRANCH   4   8
BRANCH   5  10
ATOM     10  C   UNL     1       1.644   5.819  20.574  0.00  0.00    +0.000 C 
ATOM     11  C   UNL     1       2.251   6.949  20.182  0.00  0.00    +0.000 C 
BRANCH  11  12
ATOM     12  C   UNL     1       1.738   8.328  20.460  0.00  0.00    +0.000 C 
BRANCH  12  13
ATOM     13  O   UNL     1       1.456   8.973  19.225  0.00  0.00    +0.000 OA
ATOM     14  H   UNL     1       0.484   8.926  19.109  0.00  0.00    +0.000 HD
ENDBRANCH  12  13
BRANCH  12  15
ATOM     15  C   UNL     1       0.506   8.332  21.362  0.00  0.00    +0.000 C 
BRANCH  15  16
ATOM     16  C   UNL     1       0.435   9.542  22.277  0.00  0.00    +0.000 C 
ATOM     17  O   UNL     1       1.121   9.648  23.293  0.00  0.00    +0.000 OA
BRANCH  16  18
ATOM     18  C   UNL     1      -0.548  10.616  21.968  0.00  0.00    +0.000 A 
ATOM     19  C   UNL     1      -0.793  11.041  20.656  0.00  0.00    +0.000 A 
ATOM     20  C   UNL     1      -1.777  11.996  20.406  0.00  0.00    +0.000 A 
ATOM     21  C   UNL     1      -2.509  12.542  21.461  0.00  0.00    +0.000 A 
ATOM     22  C   UNL     1      -2.248  12.130  22.772  0.00  0.00    +0.000 A 
ATOM     23 CL   UNL     1      -3.154  12.802  24.071  0.00  0.00    +0.000 Cl
ATOM     24  C   UNL     1      -1.268  11.178  23.029  0.00  0.00    +0.000 A 
ENDBRANCH  16  18
ENDBRANCH  15  16
ENDBRANCH  12  15
ENDBRANCH  11  12
ENDBRANCH   5  10
BRANCH   1  25
ATOM     25  C   UNL     1       3.470   4.472  18.073  0.00  0.00    +0.000 C 
BRANCH  25  27
ATOM     26  C   UNL     1       5.684   5.396  18.924  0.00  0.00    +0.000 C 
ATOM     27  C   UNL     1       4.683   4.505  18.971  0.00  0.00    +0.000 C 
BRANCH  26  28
ATOM     28  C   UNL     1       5.822   6.493  17.911  0.00  0.00    +0.000 C 
BRANCH  28  29
ATOM     29  C   UNL     1       6.661   6.076  16.708  0.00  0.00    +0.000 C 
BRANCH  29  30
ATOM     30  C   UNL     1       5.804   5.665  15.515  0.00  0.00    +0.000 C 
BRANCH  30  31
ATOM     31  C   UNL     1       6.587   4.796  14.566  0.00  0.00    +0.000 C 
ATOM     32  O   UNL     1       6.243   3.682  14.175  0.00  0.00    +0.000 OA
BRANCH  31  34
ATOM     33  C   UNL     1       8.019   5.313  12.810  0.00  0.00    +0.000 C 
ATOM     34  O   UNL     1       7.731   5.432  14.202  0.00  0.00    +0.000 OA
ENDBRANCH  31  34
ENDBRANCH  30  31
ENDBRANCH  29  30
ENDBRANCH  28  29
ENDBRANCH  26  28
ENDBRANCH  25  27
ENDBRANCH   1  25
TORSDOF 15
ENDMDL
MODEL 4
REMARK VINA RESULT:      -7.3      2.095      2.767
REMARK  Name = 
REMARK  16 active torsions:
REMARK  status: ('A' for Active; 'I' for Inactive)
REMARK    1  A    between atoms: C_1  and  O_2
REMARK    2  A    between atoms: O_2  and  C_3
REMARK    3  A    between atoms: C_3  and  C_5
REMARK    4  A    between atoms: C_5  and  C_6
REMARK    5  A    between atoms: C_6  and  C_7
REMARK    6  A    between atoms: C_7  and  C_8
REMARK    7  A    between atoms: C_9  and  C_10
REMARK    8  A    between atoms: C_10  and  C_11
REMARK    9  A    between atoms: C_12  and  O_13
REMARK   10  A    between atoms: C_15  and  O_16
REMARK   11  A    between atoms: C_17  and  C_18
REMARK   12  A    between atoms: C_19  and  C_20
REMARK   13  A    between atoms: C_20  and  O_21
REMARK   14  A    between atoms: C_20  and  C_22
REMARK   15  A    between atoms: C_22  and  C_23
REMARK   16  A    between atoms: C_23  and  C_25
REMARK                            x       y       z     vdW  Elec       q    Type
REMARK                         _______ _______ _______ _____ _____    ______ ____
ROOT
ATOM      1  C   UNL     1       1.825   4.031  18.454  0.00  0.00    +0.000 C 
ATOM      2  C   UNL     1       1.140   2.676  18.756  0.00  0.00    +0.000 C 
ATOM      3  C   UNL     1       1.125   2.477  20.266  0.00  0.00    +0.000 C 
ATOM      4  C   UNL     1       1.443   3.829  20.866  0.00  0.00    +0.000 C 
ATOM      5  C   UNL     1       2.295   4.573  19.823  0.00  0.00    +0.000 C 
ENDROOT
BRANCH   2   6
ATOM      6  O   UNL     1       1.758   1.564  18.127  0.00  0.00    +0.000 OA
ATOM      7  H   UNL     1       2.557   1.863  17.662  0.00  0.00    +0.000 HD
ENDBRANCH   2   6
BRANCH   4   8
ATOM      8  O   UNL     1       2.154   3.657  22.090  0.00  0.00    +0.000 OA
ATOM      9  H   UNL     1       2.418   4.533  22.420  0.00  0.00    +0.000 HD
ENDBRANCH   4   8
BRANCH   5  10
ATOM     10  C   UNL     1       2.168   6.082  19.906  0.00  0.00    +0.000 C 
ATOM     11  C   UNL     1       1.483   6.742  20.850  0.00  0.00    +0.000 C 
BRANCH  11  12
ATOM     12  C   UNL     1       1.366   8.234  20.927  0.00  0.00    +0.000 C 
BRANCH  12  13
ATOM     13  O   UNL     1       1.621   8.783  19.640  0.00  0.00    +0.000 OA
ATOM     14  H   UNL     1       1.744   9.745  19.775  0.00  0.00    +0.000 HD
ENDBRANCH  12  13
BRANCH  12  15
ATOM     15  C   UNL     1       0.008   8.697  21.449  0.00  0.00    +0.000 C 
BRANCH  15  16
ATOM     16  C   UNL     1      -0.006  10.156  21.872  0.00  0.00    +0.000 C 
ATOM     17  O   UNL     1       0.006  10.506  23.051  0.00  0.00    +0.000 OA
BRANCH  16  18
ATOM     18  C   UNL     1      -0.103  11.204  20.820  0.00  0.00    +0.000 A 
ATOM     19  C   UNL     1       0.722  12.336  20.823  0.00  0.00    +0.000 A 
ATOM     20  C   UNL     1       0.648  13.253  19.776  0.00  0.00    +0.000 A 
ATOM     21  C   UNL     1      -0.254  13.055  18.731  0.00  0.00    +0.000 A 
ATOM     22  C   UNL     1      -1.091  11.934  18.741  0.00  0.00    +0.000 A 
ATOM     23 CL   UNL     1      -2.201  11.690  17.450  0.00  0.00    +0.000 Cl
ATOM     24  C   UNL     1      -1.023  11.015  19.781  0.00  0.00    +0.000 A 
ENDBRANCH  16  18
ENDBRANCH  15  16
ENDBRANCH  12  15
ENDBRANCH  11  12
ENDBRANCH   5  10
BRANCH   1  25
ATOM     25  C   UNL     1       2.961   3.953  17.407  0.00  0.00    +0.000 C 
BRANCH  25  27
ATOM     26  C   UNL     1       5.315   4.512  18.202  0.00  0.00    +0.000 C 
ATOM     27  C   UNL     1       4.324   3.636  17.975  0.00  0.00    +0.000 C 
BRANCH  26  28
ATOM     28  C   UNL     1       5.277   5.972  17.863  0.00  0.00    +0.000 C 
BRANCH  28  29
ATOM     29  C   UNL     1       6.146   6.315  16.658  0.00  0.00    +0.000 C 
BRANCH  29  30
ATOM     30  C   UNL     1       5.566   5.786  15.350  0.00  0.00    +0.000 C 
BRANCH  30  31
ATOM     31  C   UNL     1       6.505   4.801  14.706  0.00  0.00    +0.000 C 
ATOM     32  O   UNL     1       6.282   3.600  14.557  0.00  0.00    +0.000 OA
BRANCH  31  34
ATOM     33  C   UNL     1       7.903   5.290  12.915  0.00  0.00    +0.000 C 
ATOM     34  O   UNL     1       7.635   5.441  14.309  0.00  0.00    +0.000 OA
ENDBRANCH  31  34
ENDBRANCH  30  31
ENDBRANCH  29  30
ENDBRANCH  28  29
ENDBRANCH  26  28
ENDBRANCH  25  27
ENDBRANCH   1  25
TORSDOF 15
ENDMDL
MODEL 5
REMARK VINA RESULT:      -7.2      3.808      9.781
REMARK  Name = 
REMARK  16 active torsions:
REMARK  status: ('A' for Active; 'I' for Inactive)
REMARK    1  A    between atoms: C_1  and  O_2
REMARK    2  A    between atoms: O_2  and  C_3
REMARK    3  A    between atoms: C_3  and  C_5
REMARK    4  A    between atoms: C_5  and  C_6
REMARK    5  A    between atoms: C_6  and  C_7
REMARK    6  A    between atoms: C_7  and  C_8
REMARK    7  A    between atoms: C_9  and  C_10
REMARK    8  A    between atoms: C_10  and  C_11
REMARK    9  A    between atoms: C_12  and  O_13
REMARK   10  A    between atoms: C_15  and  O_16
REMARK   11  A    between atoms: C_17  and  C_18
REMARK   12  A    between atoms: C_19  and  C_20
REMARK   13  A    between atoms: C_20  and  O_21
REMARK   14  A    between atoms: C_20  and  C_22
REMARK   15  A    between atoms: C_22  and  C_23
REMARK   16  A    between atoms: C_23  and  C_25
REMARK                            x       y       z     vdW  Elec       q    Type
REMARK                         _______ _______ _______ _____ _____    ______ ____
ROOT
ATOM      1  C   UNL     1       0.879   8.807  20.511  0.00  0.00    +0.000 C 
ATOM      2  C   UNL     1       0.853   9.851  19.368  0.00  0.00    +0.000 C 
ATOM      3  C   UNL     1       1.763   9.356  18.252  0.00  0.00    +0.000 C 
ATOM      4  C   UNL     1       2.025   7.895  18.547  0.00  0.00    +0.000 C 
ATOM      5  C   UNL     1       1.903   7.736  20.072  0.00  0.00    +0.000 C 
ENDROOT
BRANCH   2   6
ATOM      6  O   UNL     1       1.244  11.156  19.768  0.00  0.00    +0.000 OA
ATOM      7  H   UNL     1       1.968  11.460  19.196  0.00  0.00    +0.000 HD
ENDBRANCH   2   6
BRANCH   4   8
ATOM      8  O   UNL     1       3.328   7.538  18.090  0.00  0.00    +0.000 OA
ATOM      9  H   UNL     1       3.957   7.664  18.820  0.00  0.00    +0.000 HD
ENDBRANCH   4   8
BRANCH   5  10
ATOM     10  C   UNL     1       1.482   6.344  20.502  0.00  0.00    +0.000 C 
ATOM     11  C   UNL     1       2.321   5.316  20.697  0.00  0.00    +0.000 C 
BRANCH  11  12
ATOM     12  C   UNL     1       1.897   3.945  21.125  0.00  0.00    +0.000 C 
BRANCH  12  13
ATOM     13  O   UNL     1       0.645   3.640  20.523  0.00  0.00    +0.000 OA
ATOM     14  H   UNL     1       0.132   4.474  20.524  0.00  0.00    +0.000 HD
ENDBRANCH  12  13
BRANCH  12  15
ATOM     15  C   UNL     1       2.930   2.872  20.788  0.00  0.00    +0.000 C 
BRANCH  15  16
ATOM     16  C   UNL     1       3.043   2.594  19.298  0.00  0.00    +0.000 C 
ATOM     17  O   UNL     1       2.403   1.706  18.737  0.00  0.00    +0.000 OA
BRANCH  16  18
ATOM     18  C   UNL     1       4.013   3.388  18.495  0.00  0.00    +0.000 A 
ATOM     19  C   UNL     1       3.859   3.571  17.115  0.00  0.00    +0.000 A 
ATOM     20  C   UNL     1       4.750   4.384  16.418  0.00  0.00    +0.000 A 
ATOM     21  C   UNL     1       5.805   5.005  17.087  0.00  0.00    +0.000 A 
ATOM     22  C   UNL     1       5.969   4.804  18.461  0.00  0.00    +0.000 A 
ATOM     23 CL   UNL     1       7.268   5.573  19.285  0.00  0.00    +0.000 Cl
ATOM     24  C   UNL     1       5.083   3.995  19.164  0.00  0.00    +0.000 A 
ENDBRANCH  16  18
ENDBRANCH  15  16
ENDBRANCH  12  15
ENDBRANCH  11  12
ENDBRANCH   5  10
BRANCH   1  25
ATOM     25  C   UNL     1       1.179   9.398  21.909  0.00  0.00    +0.000 C 
BRANCH  25  27
ATOM     26  C   UNL     1      -0.872  10.349  23.081  0.00  0.00    +0.000 C 
ATOM     27  C   UNL     1       0.017   9.366  22.873  0.00  0.00    +0.000 C 
BRANCH  26  28
ATOM     28  C   UNL     1      -0.831  11.705  22.442  0.00  0.00    +0.000 C 
BRANCH  28  29
ATOM     29  C   UNL     1      -1.652  12.737  23.208  0.00  0.00    +0.000 C 
BRANCH  29  30
ATOM     30  C   UNL     1      -3.035  12.949  22.601  0.00  0.00    +0.000 C 
BRANCH  30  31
ATOM     31  C   UNL     1      -4.110  12.780  23.643  0.00  0.00    +0.000 C 
ATOM     32  O   UNL     1      -4.193  11.841  24.432  0.00  0.00    +0.000 OA
BRANCH  31  34
ATOM     33  C   UNL     1      -6.271  13.455  23.116  0.00  0.00    +0.000 C 
ATOM     34  O   UNL     1      -4.974  13.827  23.581  0.00  0.00    +0.000 OA
ENDBRANCH  31  34
ENDBRANCH  30  31
ENDBRANCH  29  30
ENDBRANCH  28  29
ENDBRANCH  26  28
ENDBRANCH  25  27
ENDBRANCH   1  25
TORSDOF 15
ENDMDL
MODEL 6
REMARK VINA RESULT:      -7.2      2.039      2.450
REMARK  Name = 
REMARK  16 active torsions:
REMARK  status: ('A' for Active; 'I' for Inactive)
REMARK    1  A    between atoms: C_1  and  O_2
REMARK    2  A    between atoms: O_2  and  C_3
REMARK    3  A    between atoms: C_3  and  C_5
REMARK    4  A    between atoms: C_5  and  C_6
REMARK    5  A    between atoms: C_6  and  C_7
REMARK    6  A    between atoms: C_7  and  C_8
REMARK    7  A    between atoms: C_9  and  C_10
REMARK    8  A    between atoms: C_10  and  C_11
REMARK    9  A    between atoms: C_12  and  O_13
REMARK   10  A    between atoms: C_15  and  O_16
REMARK   11  A    between atoms: C_17  and  C_18
REMARK   12  A    between atoms: C_19  and  C_20
REMARK   13  A    between atoms: C_20  and  O_21
REMARK   14  A    between atoms: C_20  and  C_22
REMARK   15  A    between atoms: C_22  and  C_23
REMARK   16  A    between atoms: C_23  and  C_25
REMARK                            x       y       z     vdW  Elec       q    Type
REMARK                         _______ _______ _______ _____ _____    ______ ____
ROOT
ATOM      1  C   UNL     1       1.281   3.949  18.837  0.00  0.00    +0.000 C 
ATOM      2  C   UNL     1       1.194   2.407  18.949  0.00  0.00    +0.000 C 
ATOM      3  C   UNL     1       1.527   2.016  20.383  0.00  0.00    +0.000 C 
ATOM      4  C   UNL     1       1.443   3.292  21.192  0.00  0.00    +0.000 C 
ATOM      5  C   UNL     1       1.766   4.440  20.219  0.00  0.00    +0.000 C 
ENDROOT
BRANCH   2   6
ATOM      6  O   UNL     1       2.045   1.713  18.049  0.00  0.00    +0.000 OA
ATOM      7  H   UNL     1       2.924   2.127  18.058  0.00  0.00    +0.000 HD
ENDBRANCH   2   6
BRANCH   4   8
ATOM      8  O   UNL     1       2.378   3.243  22.267  0.00  0.00    +0.000 OA
ATOM      9  H   UNL     1       2.280   2.390  22.723  0.00  0.00    +0.000 HD
ENDBRANCH   4   8
BRANCH   5  10
ATOM     10  C   UNL     1       1.125   5.758  20.606  0.00  0.00    +0.000 C 
ATOM     11  C   UNL     1       1.794   6.896  20.840  0.00  0.00    +0.000 C 
BRANCH  11  12
ATOM     12  C   UNL     1       1.152   8.195  21.219  0.00  0.00    +0.000 C 
BRANCH  12  13
ATOM     13  O   UNL     1       1.856   8.755  22.320  0.00  0.00    +0.000 OA
ATOM     14  H   UNL     1       2.603   9.259  21.938  0.00  0.00    +0.000 HD
ENDBRANCH  12  13
BRANCH  12  15
ATOM     15  C   UNL     1       1.093   9.188  20.060  0.00  0.00    +0.000 C 
BRANCH  15  16
ATOM     16  C   UNL     1       0.462  10.517  20.439  0.00  0.00    +0.000 C 
ATOM     17  O   UNL     1       0.903  11.229  21.340  0.00  0.00    +0.000 OA
BRANCH  16  18
ATOM     18  C   UNL     1      -0.778  10.946  19.736  0.00  0.00    +0.000 A 
ATOM     19  C   UNL     1      -1.161  10.396  18.506  0.00  0.00    +0.000 A 
ATOM     20  C   UNL     1      -2.368  10.774  17.921  0.00  0.00    +0.000 A 
ATOM     21  C   UNL     1      -3.190  11.709  18.550  0.00  0.00    +0.000 A 
ATOM     22  C   UNL     1      -2.796  12.272  19.768  0.00  0.00    +0.000 A 
ATOM     23 CL   UNL     1      -3.812  13.423  20.543  0.00  0.00    +0.000 Cl
ATOM     24  C   UNL     1      -1.593  11.900  20.358  0.00  0.00    +0.000 A 
ENDBRANCH  16  18
ENDBRANCH  15  16
ENDBRANCH  12  15
ENDBRANCH  11  12
ENDBRANCH   5  10
BRANCH   1  25
ATOM     25  C   UNL     1       2.160   4.455  17.668  0.00  0.00    +0.000 C 
BRANCH  25  27
ATOM     26  C   UNL     1       3.678   6.487  17.440  0.00  0.00    +0.000 C 
ATOM     27  C   UNL     1       2.490   5.928  17.716  0.00  0.00    +0.000 C 
BRANCH  26  28
ATOM     28  C   UNL     1       4.931   5.737  17.100  0.00  0.00    +0.000 C 
BRANCH  28  29
ATOM     29  C   UNL     1       6.041   6.652  16.596  0.00  0.00    +0.000 C 
BRANCH  29  30
ATOM     30  C   UNL     1       7.332   6.499  17.395  0.00  0.00    +0.000 C 
BRANCH  30  31
ATOM     31  C   UNL     1       7.595   5.052  17.717  0.00  0.00    +0.000 C 
ATOM     32  O   UNL     1       8.039   4.218  16.929  0.00  0.00    +0.000 OA
BRANCH  31  34
ATOM     33  C   UNL     1       8.080   5.531  19.939  0.00  0.00    +0.000 C 
ATOM     34  O   UNL     1       7.271   4.806  19.013  0.00  0.00    +0.000 OA
ENDBRANCH  31  34
ENDBRANCH  30  31
ENDBRANCH  29  30
ENDBRANCH  28  29
ENDBRANCH  26  28
ENDBRANCH  25  27
ENDBRANCH   1  25
TORSDOF 15
ENDMDL
MODEL 7
REMARK VINA RESULT:      -7.1      3.861      9.753
REMARK  Name = 
REMARK  16 active torsions:
REMARK  status: ('A' for Active; 'I' for Inactive)
REMARK    1  A    between atoms: C_1  and  O_2
REMARK    2  A    between atoms: O_2  and  C_3
REMARK    3  A    between atoms: C_3  and  C_5
REMARK    4  A    between atoms: C_5  and  C_6
REMARK    5  A    between atoms: C_6  and  C_7
REMARK    6  A    between atoms: C_7  and  C_8
REMARK    7  A    between atoms: C_9  and  C_10
REMARK    8  A    between atoms: C_10  and  C_11
REMARK    9  A    between atoms: C_12  and  O_13
REMARK   10  A    between atoms: C_15  and  O_16
REMARK   11  A    between atoms: C_17  and  C_18
REMARK   12  A    between atoms: C_19  and  C_20
REMARK   13  A    between atoms: C_20  and  O_21
REMARK   14  A    between atoms: C_20  and  C_22
REMARK   15  A    between atoms: C_22  and  C_23
REMARK   16  A    between atoms: C_23  and  C_25
REMARK                            x       y       z     vdW  Elec       q    Type
REMARK                         _______ _______ _______ _____ _____    ______ ____
ROOT
ATOM      1  C   UNL     1       0.861   8.741  20.442  0.00  0.00    +0.000 C 
ATOM      2  C   UNL     1       0.539   9.715  19.284  0.00  0.00    +0.000 C 
ATOM      3  C   UNL     1       1.462   9.389  18.117  0.00  0.00    +0.000 C 
ATOM      4  C   UNL     1       2.051   8.029  18.422  0.00  0.00    +0.000 C 
ATOM      5  C   UNL     1       2.062   7.899  19.955  0.00  0.00    +0.000 C 
ENDROOT
BRANCH   2   6
ATOM      6  O   UNL     1       0.665  11.087  19.630  0.00  0.00    +0.000 OA
ATOM      7  H   UNL     1       1.344  11.496  19.069  0.00  0.00    +0.000 HD
ENDBRANCH   2   6
BRANCH   4   8
ATOM      8  O   UNL     1       3.369   7.943  17.884  0.00  0.00    +0.000 OA
ATOM      9  H   UNL     1       3.540   8.742  17.357  0.00  0.00    +0.000 HD
ENDBRANCH   4   8
BRANCH   5  10
ATOM     10  C   UNL     1       1.978   6.464  20.440  0.00  0.00    +0.000 C 
ATOM     11  C   UNL     1       1.978   5.385  19.644  0.00  0.00    +0.000 C 
BRANCH  11  12
ATOM     12  C   UNL     1       1.899   3.971  20.132  0.00  0.00    +0.000 C 
BRANCH  12  13
ATOM     13  O   UNL     1       0.534   3.626  20.328  0.00  0.00    +0.000 OA
ATOM     14  H   UNL     1       0.257   3.141  19.524  0.00  0.00    +0.000 HD
ENDBRANCH  12  13
BRANCH  12  15
ATOM     15  C   UNL     1       2.573   2.979  19.186  0.00  0.00    +0.000 C 
BRANCH  15  16
ATOM     16  C   UNL     1       4.090   3.052  19.222  0.00  0.00    +0.000 C 
ATOM     17  O   UNL     1       4.766   2.421  20.033  0.00  0.00    +0.000 OA
BRANCH  16  18
ATOM     18  C   UNL     1       4.784   3.971  18.279  0.00  0.00    +0.000 A 
ATOM     19  C   UNL     1       4.378   4.111  16.947  0.00  0.00    +0.000 A 
ATOM     20  C   UNL     1       5.009   5.039  16.121  0.00  0.00    +0.000 A 
ATOM     21  C   UNL     1       6.056   5.819  16.613  0.00  0.00    +0.000 A 
ATOM     22  C   UNL     1       6.473   5.662  17.939  0.00  0.00    +0.000 A 
ATOM     23 CL   UNL     1       7.762   6.627  18.545  0.00  0.00    +0.000 Cl
ATOM     24  C   UNL     1       5.848   4.739  18.769  0.00  0.00    +0.000 A 
ENDBRANCH  16  18
ENDBRANCH  15  16
ENDBRANCH  12  15
ENDBRANCH  11  12
ENDBRANCH   5  10
BRANCH   1  25
ATOM     25  C   UNL     1       1.114   9.430  21.805  0.00  0.00    +0.000 C 
BRANCH  25  27
ATOM     26  C   UNL     1      -0.889  10.408  23.035  0.00  0.00    +0.000 C 
ATOM     27  C   UNL     1      -0.056   9.394  22.759  0.00  0.00    +0.000 C 
BRANCH  26  28
ATOM     28  C   UNL     1      -0.767  11.803  22.497  0.00  0.00    +0.000 C 
BRANCH  28  29
ATOM     29  C   UNL     1      -2.068  12.589  22.611  0.00  0.00    +0.000 C 
BRANCH  29  30
ATOM     30  C   UNL     1      -3.001  12.023  23.677  0.00  0.00    +0.000 C 
BRANCH  30  31
ATOM     31  C   UNL     1      -4.314  12.760  23.688  0.00  0.00    +0.000 C 
ATOM     32  O   UNL     1      -5.365  12.332  24.162  0.00  0.00    +0.000 OA
BRANCH  31  34
ATOM     33  C   UNL     1      -4.976  14.988  23.683  0.00  0.00    +0.000 C 
ATOM     34  O   UNL     1      -4.162  13.974  23.096  0.00  0.00    +0.000 OA
ENDBRANCH  31  34
ENDBRANCH  30  31
ENDBRANCH  29  30
ENDBRANCH  28  29
ENDBRANCH  26  28
ENDBRANCH  25  27
ENDBRANCH   1  25
TORSDOF 15
ENDMDL
MODEL 8
REMARK VINA RESULT:      -7.1      3.080      3.871
REMARK  Name = 
REMARK  16 active torsions:
REMARK  status: ('A' for Active; 'I' for Inactive)
REMARK    1  A    between atoms: C_1  and  O_2
REMARK    2  A    between atoms: O_2  and  C_3
REMARK    3  A    between atoms: C_3  and  C_5
REMARK    4  A    between atoms: C_5  and  C_6
REMARK    5  A    between atoms: C_6  and  C_7
REMARK    6  A    between atoms: C_7  and  C_8
REMARK    7  A    between atoms: C_9  and  C_10
REMARK    8  A    between atoms: C_10  and  C_11
REMARK    9  A    between atoms: C_12  and  O_13
REMARK   10  A    between atoms: C_15  and  O_16
REMARK   11  A    between atoms: C_17  and  C_18
REMARK   12  A    between atoms: C_19  and  C_20
REMARK   13  A    between atoms: C_20  and  O_21
REMARK   14  A    between atoms: C_20  and  C_22
REMARK   15  A    between atoms: C_22  and  C_23
REMARK   16  A    between atoms: C_23  and  C_25
REMARK                            x       y       z     vdW  Elec       q    Type
REMARK                         _______ _______ _______ _____ _____    ______ ____
ROOT
ATOM      1  C   UNL     1       3.485   3.979  18.558  0.00  0.00    +0.000 C 
ATOM      2  C   UNL     1       2.920   2.676  17.942  0.00  0.00    +0.000 C 
ATOM      3  C   UNL     1       1.630   2.327  18.672  0.00  0.00    +0.000 C 
ATOM      4  C   UNL     1       1.234   3.572  19.435  0.00  0.00    +0.000 C 
ATOM      5  C   UNL     1       2.541   4.329  19.729  0.00  0.00    +0.000 C 
ENDROOT
BRANCH   2   6
ATOM      6  O   UNL     1       3.817   1.577  17.993  0.00  0.00    +0.000 OA
ATOM      7  H   UNL     1       4.374   1.583  17.198  0.00  0.00    +0.000 HD
ENDBRANCH   2   6
BRANCH   4   8
ATOM      8  O   UNL     1       0.562   3.206  20.639  0.00  0.00    +0.000 OA
ATOM      9  H   UNL     1       0.524   2.236  20.689  0.00  0.00    +0.000 HD
ENDBRANCH   4   8
BRANCH   5  10
ATOM     10  C   UNL     1       2.351   5.827  19.873  0.00  0.00    +0.000 C 
ATOM     11  C   UNL     1       1.596   6.417  20.811  0.00  0.00    +0.000 C 
BRANCH  11  12
ATOM     12  C   UNL     1       1.417   7.898  20.948  0.00  0.00    +0.000 C 
BRANCH  12  13
ATOM     13  O   UNL     1       1.593   8.504  19.674  0.00  0.00    +0.000 OA
ATOM     14  H   UNL     1       2.180   9.275  19.818  0.00  0.00    +0.000 HD
ENDBRANCH  12  13
BRANCH  12  15
ATOM     15  C   UNL     1       0.063   8.280  21.542  0.00  0.00    +0.000 C 
BRANCH  15  16
ATOM     16  C   UNL     1       0.117   9.528  22.406  0.00  0.00    +0.000 C 
ATOM     17  O   UNL     1       0.723   9.569  23.476  0.00  0.00    +0.000 OA
BRANCH  16  18
ATOM     18  C   UNL     1      -0.645  10.731  21.973  0.00  0.00    +0.000 A 
ATOM     19  C   UNL     1      -0.795  11.067  20.622  0.00  0.00    +0.000 A 
ATOM     20  C   UNL     1      -1.581  12.159  20.260  0.00  0.00    +0.000 A 
ATOM     21  C   UNL     1      -2.206  12.930  21.241  0.00  0.00    +0.000 A 
ATOM     22  C   UNL     1      -2.038  12.604  22.591  0.00  0.00    +0.000 A 
ATOM     23 CL   UNL     1      -2.812  13.554  23.798  0.00  0.00    +0.000 Cl
ATOM     24  C   UNL     1      -1.256  11.516  22.959  0.00  0.00    +0.000 A 
ENDBRANCH  16  18
ENDBRANCH  15  16
ENDBRANCH  12  15
ENDBRANCH  11  12
ENDBRANCH   5  10
BRANCH   1  25
ATOM     25  C   UNL     1       4.972   3.894  18.979  0.00  0.00    +0.000 C 
BRANCH  25  27
ATOM     26  C   UNL     1       6.067   6.061  18.213  0.00  0.00    +0.000 C 
ATOM     27  C   UNL     1       5.651   5.228  19.178  0.00  0.00    +0.000 C 
BRANCH  26  28
ATOM     28  C   UNL     1       5.999   5.786  16.740  0.00  0.00    +0.000 C 
BRANCH  28  29
ATOM     29  C   UNL     1       7.097   4.838  16.271  0.00  0.00    +0.000 C 
BRANCH  29  30
ATOM     30  C   UNL     1       6.601   3.842  15.227  0.00  0.00    +0.000 C 
BRANCH  30  31
ATOM     31  C   UNL     1       6.641   4.447  13.848  0.00  0.00    +0.000 C 
ATOM     32  O   UNL     1       7.492   5.237  13.443  0.00  0.00    +0.000 OA
BRANCH  31  34
ATOM     33  C   UNL     1       5.979   3.014  12.142  0.00  0.00    +0.000 C 
ATOM     34  O   UNL     1       5.594   3.983  13.116  0.00  0.00    +0.000 OA
ENDBRANCH  31  34
ENDBRANCH  30  31
ENDBRANCH  29  30
ENDBRANCH  28  29
ENDBRANCH  26  28
ENDBRANCH  25  27
ENDBRANCH   1  25
TORSDOF 15
ENDMDL
MODEL 9
REMARK VINA RESULT:      -7.1      3.159      4.246
REMARK  Name = 
REMARK  16 active torsions:
REMARK  status: ('A' for Active; 'I' for Inactive)
REMARK    1  A    between atoms: C_1  and  O_2
REMARK    2  A    between atoms: O_2  and  C_3
REMARK    3  A    between atoms: C_3  and  C_5
REMARK    4  A    between atoms: C_5  and  C_6
REMARK    5  A    between atoms: C_6  and  C_7
REMARK    6  A    between atoms: C_7  and  C_8
REMARK    7  A    between atoms: C_9  and  C_10
REMARK    8  A    between atoms: C_10  and  C_11
REMARK    9  A    between atoms: C_12  and  O_13
REMARK   10  A    between atoms: C_15  and  O_16
REMARK   11  A    between atoms: C_17  and  C_18
REMARK   12  A    between atoms: C_19  and  C_20
REMARK   13  A    between atoms: C_20  and  O_21
REMARK   14  A    between atoms: C_20  and  C_22
REMARK   15  A    between atoms: C_22  and  C_23
REMARK   16  A    between atoms: C_23  and  C_25
REMARK                            x       y       z     vdW  Elec       q    Type
REMARK                         _______ _______ _______ _____ _____    ______ ____
ROOT
ATOM      1  C   UNL     1       4.254   5.316  18.068  0.00  0.00    +0.000 C 
ATOM      2  C   UNL     1       4.097   3.811  18.392  0.00  0.00    +0.000 C 
ATOM      3  C   UNL     1       2.866   3.639  19.271  0.00  0.00    +0.000 C 
ATOM      4  C   UNL     1       2.096   4.938  19.165  0.00  0.00    +0.000 C 
ATOM      5  C   UNL     1       3.135   6.030  18.859  0.00  0.00    +0.000 C 
ENDROOT
BRANCH   2   6
ATOM      6  O   UNL     1       5.229   3.236  19.028  0.00  0.00    +0.000 OA
ATOM      7  H   UNL     1       5.666   3.913  19.572  0.00  0.00    +0.000 HD
ENDBRANCH   2   6
BRANCH   4   8
ATOM      8  O   UNL     1       1.415   5.196  20.391  0.00  0.00    +0.000 OA
ATOM      9  H   UNL     1       2.069   5.211  21.110  0.00  0.00    +0.000 HD
ENDBRANCH   4   8
BRANCH   5  10
ATOM     10  C   UNL     1       2.565   7.208  18.093  0.00  0.00    +0.000 C 
ATOM     11  C   UNL     1       2.235   8.389  18.637  0.00  0.00    +0.000 C 
BRANCH  11  12
ATOM     12  C   UNL     1       1.676   9.548  17.871  0.00  0.00    +0.000 C 
BRANCH  12  13
ATOM     13  O   UNL     1       0.401   9.188  17.353  0.00  0.00    +0.000 OA
ATOM     14  H   UNL     1      -0.046   8.679  18.060  0.00  0.00    +0.000 HD
ENDBRANCH  12  13
BRANCH  12  15
ATOM     15  C   UNL     1       1.573  10.820  18.711  0.00  0.00    +0.000 C 
BRANCH  15  16
ATOM     16  C   UNL     1       0.157  11.124  19.168  0.00  0.00    +0.000 C 
ATOM     17  O   UNL     1      -0.670  11.678  18.446  0.00  0.00    +0.000 OA
BRANCH  16  18
ATOM     18  C   UNL     1      -0.228  10.796  20.568  0.00  0.00    +0.000 A 
ATOM     19  C   UNL     1       0.301   9.690  21.243  0.00  0.00    +0.000 A 
ATOM     20  C   UNL     1      -0.030   9.464  22.578  0.00  0.00    +0.000 A 
ATOM     21  C   UNL     1      -0.900  10.330  23.241  0.00  0.00    +0.000 A 
ATOM     22  C   UNL     1      -1.444  11.423  22.558  0.00  0.00    +0.000 A 
ATOM     23 CL   UNL     1      -2.515  12.491  23.378  0.00  0.00    +0.000 Cl
ATOM     24  C   UNL     1      -1.118  11.654  21.227  0.00  0.00    +0.000 A 
ENDBRANCH  16  18
ENDBRANCH  15  16
ENDBRANCH  12  15
ENDBRANCH  11  12
ENDBRANCH   5  10
BRANCH   1  25
ATOM     25  C   UNL     1       5.662   5.889  18.354  0.00  0.00    +0.000 C 
BRANCH  25  27
ATOM     26  C   UNL     1       7.524   7.076  17.086  0.00  0.00    +0.000 C 
ATOM     27  C   UNL     1       6.453   6.269  17.126  0.00  0.00    +0.000 C 
BRANCH  26  28
ATOM     28  C   UNL     1       8.095   7.817  18.259  0.00  0.00    +0.000 C 
BRANCH  28  29
ATOM     29  C   UNL     1       8.244   9.310  17.991  0.00  0.00    +0.000 C 
BRANCH  29  30
ATOM     30  C   UNL     1       9.157   9.996  19.002  0.00  0.00    +0.000 C 
BRANCH  30  31
ATOM     31  C   UNL     1       9.737  11.262  18.430  0.00  0.00    +0.000 C 
ATOM     32  O   UNL     1      10.690  11.320  17.655  0.00  0.00    +0.000 OA
BRANCH  31  34
ATOM     33  C   UNL     1       9.151  13.480  18.053  0.00  0.00    +0.000 C 
ATOM     34  O   UNL     1       9.045  12.334  18.897  0.00  0.00    +0.000 OA
ENDBRANCH  31  34
ENDBRANCH  30  31
ENDBRANCH  29  30
ENDBRANCH  28  29
ENDBRANCH  26  28
ENDBRANCH  25  27
ENDBRANCH   1  25
TORSDOF 15
ENDMDL
