MODEL 1
REMARK VINA RESULT:      -8.7      0.000      0.000
REMARK  Name = 
REMARK  9 active torsions:
REMARK  status: ('A' for Active; 'I' for Inactive)
REMARK    1  A    between atoms: C_1  and  C_2
REMARK    2  A    between atoms: C_2  and  C_24
REMARK    3  A    between atoms: N_3  and  N_4
REMARK    4  A    between atoms: C_5  and  C_7
REMARK    5  A    between atoms: C_7  and  N_8
REMARK    6  A    between atoms: C_9  and  C_11
REMARK    7  A    between atoms: C_11  and  C_12
REMARK    8  A    between atoms: C_11  and  C_18
REMARK    9  A    between atoms: C_27  and  C_28
REMARK                            x       y       z     vdW  Elec       q    Type
REMARK                         _______ _______ _______ _____ _____    ______ ____
ROOT
ATOM      1  N   UNL     1       2.022   7.985  17.799  0.00  0.00    +0.000 N 
ATOM      2  C   UNL     1       3.257   7.361  17.729  0.00  0.00    +0.000 C 
ATOM      3  O   UNL     1       4.299   8.014  17.766  0.00  0.00    +0.000 OA
ATOM      4  H   UNL     1       1.218   7.503  17.409  0.00  0.00    +0.000 HD
ENDROOT
BRANCH   1   5
ATOM      5  C   UNL     1       1.923   9.425  17.943  0.00  0.00    +0.000 C 
BRANCH   5   7
ATOM      6  N   UNL     1      -0.218  10.556  17.720  0.00  0.00    +0.000 N 
ATOM      7  C   UNL     1       0.606   9.855  18.591  0.00  0.00    +0.000 C 
ATOM      8  O   UNL     1       0.337   9.547  19.751  0.00  0.00    +0.000 OA
ATOM      9  H   UNL     1      -0.003  10.520  16.728  0.00  0.00    +0.000 HD
BRANCH   6  12
ATOM     10  C   UNL     1      -2.590  10.047  16.185  0.00  0.00    +0.000 C 
ATOM     11  C   UNL     1      -2.513  10.814  17.493  0.00  0.00    +0.000 C 
ATOM     12  N   UNL     1      -1.415  11.043  18.159  0.00  0.00    +0.000 NA
BRANCH  11  13
ATOM     13  C   UNL     1      -3.814  11.351  18.044  0.00  0.00    +0.000 A 
ATOM     14  C   UNL     1      -3.869  12.028  19.271  0.00  0.00    +0.000 A 
ATOM     15  C   UNL     1      -5.084  12.525  19.761  0.00  0.00    +0.000 A 
ATOM     16  C   UNL     1      -6.264  12.356  19.035  0.00  0.00    +0.000 A 
ATOM     17  C   UNL     1      -7.565  12.896  19.552  0.00  0.00    +0.000 C 
ATOM     18  C   UNL     1      -6.215  11.680  17.811  0.00  0.00    +0.000 A 
ATOM     19  C   UNL     1      -5.001  11.182  17.320  0.00  0.00    +0.000 A 
ENDBRANCH  11  13
ENDBRANCH   6  12
ENDBRANCH   5   7
ENDBRANCH   1   5
BRANCH   2  20
ATOM     20  C   UNL     1       3.182   5.816  17.574  0.00  0.00    +0.000 C 
BRANCH  20  21
ATOM     21  C   UNL     1       4.585   5.298  17.262  0.00  0.00    +0.000 A 
ATOM     22  C   UNL     1       5.513   5.077  18.292  0.00  0.00    +0.000 A 
ATOM     23  C   UNL     1       6.818   4.685  17.997  0.00  0.00    +0.000 A 
ATOM     24  C   UNL     1       7.210   4.505  16.672  0.00  0.00    +0.000 A 
ATOM     25  C   UNL     1       6.290   4.692  15.641  0.00  0.00    +0.000 A 
ATOM     26  C   UNL     1       4.982   5.081  15.932  0.00  0.00    +0.000 A 
ENDBRANCH  20  21
BRANCH  20  27
ATOM     27  C   UNL     1       2.445   5.096  18.713  0.00  0.00    +0.000 A 
ATOM     28  C   UNL     1       1.700   3.928  18.463  0.00  0.00    +0.000 A 
ATOM     29  C   UNL     1       1.083   3.226  19.501  0.00  0.00    +0.000 A 
ATOM     30  C   UNL     1       1.209   3.664  20.816  0.00  0.00    +0.000 A 
ATOM     31  C   UNL     1       1.966   4.798  21.092  0.00  0.00    +0.000 A 
ATOM     32  C   UNL     1       2.586   5.501  20.055  0.00  0.00    +0.000 A 
ENDBRANCH  20  27
ENDBRANCH   2  20
TORSDOF 7
ENDMDL
MODEL 2
REMARK VINA RESULT:      -8.7      0.902      1.374
REMARK  Name = 
REMARK  9 active torsions:
REMARK  status: ('A' for Active; 'I' for Inactive)
REMARK    1  A    between atoms: C_1  and  C_2
REMARK    2  A    between atoms: C_2  and  C_24
REMARK    3  A    between atoms: N_3  and  N_4
REMARK    4  A    between atoms: C_5  and  C_7
REMARK    5  A    between atoms: C_7  and  N_8
REMARK    6  A    between atoms: C_9  and  C_11
REMARK    7  A    between atoms: C_11  and  C_12
REMARK    8  A    between atoms: C_11  and  C_18
REMARK    9  A    between atoms: C_27  and  C_28
REMARK                            x       y       z     vdW  Elec       q    Type
REMARK                         _______ _______ _______ _____ _____    ______ ____
ROOT
ATOM      1  N   UNL     1       1.941   8.205  17.730  0.00  0.00    +0.000 N 
ATOM      2  C   UNL     1       2.383   7.277  18.660  0.00  0.00    +0.000 C 
ATOM      3  O   UNL     1       2.739   7.629  19.784  0.00  0.00    +0.000 OA
ATOM      4  H   UNL     1       2.007   7.966  16.745  0.00  0.00    +0.000 HD
ENDROOT
BRANCH   1   5
ATOM      5  C   UNL     1       1.862   9.613  18.064  0.00  0.00    +0.000 C 
BRANCH   5   7
ATOM      6  N   UNL     1      -0.255  10.781  17.802  0.00  0.00    +0.000 N 
ATOM      7  C   UNL     1       0.505   9.995  18.658  0.00  0.00    +0.000 C 
ATOM      8  O   UNL     1       0.155   9.583  19.763  0.00  0.00    +0.000 OA
ATOM      9  H   UNL     1       0.027  10.836  16.828  0.00  0.00    +0.000 HD
BRANCH   6  12
ATOM     10  C   UNL     1      -2.559  10.229  16.181  0.00  0.00    +0.000 C 
ATOM     11  C   UNL     1      -2.546  10.988  17.496  0.00  0.00    +0.000 C 
ATOM     12  N   UNL     1      -1.478  11.237  18.201  0.00  0.00    +0.000 NA
BRANCH  11  13
ATOM     13  C   UNL     1      -3.878  11.491  18.004  0.00  0.00    +0.000 A 
ATOM     14  C   UNL     1      -5.060  11.308  17.274  0.00  0.00    +0.000 A 
ATOM     15  C   UNL     1      -6.286  11.776  17.765  0.00  0.00    +0.000 A 
ATOM     16  C   UNL     1      -6.353  12.434  18.995  0.00  0.00    +0.000 A 
ATOM     17  C   UNL     1      -7.665  12.928  19.529  0.00  0.00    +0.000 C 
ATOM     18  C   UNL     1      -5.175  12.621  19.727  0.00  0.00    +0.000 A 
ATOM     19  C   UNL     1      -3.949  12.154  19.236  0.00  0.00    +0.000 A 
ENDBRANCH  11  13
ENDBRANCH   6  12
ENDBRANCH   5   7
ENDBRANCH   1   5
BRANCH   2  20
ATOM     20  C   UNL     1       2.407   5.813  18.138  0.00  0.00    +0.000 C 
BRANCH  20  21
ATOM     21  C   UNL     1       3.753   5.570  17.459  0.00  0.00    +0.000 A 
ATOM     22  C   UNL     1       4.125   4.280  17.045  0.00  0.00    +0.000 A 
ATOM     23  C   UNL     1       5.388   4.047  16.503  0.00  0.00    +0.000 A 
ATOM     24  C   UNL     1       6.292   5.098  16.363  0.00  0.00    +0.000 A 
ATOM     25  C   UNL     1       5.925   6.389  16.741  0.00  0.00    +0.000 A 
ATOM     26  C   UNL     1       4.661   6.627  17.281  0.00  0.00    +0.000 A 
ENDBRANCH  20  21
BRANCH  20  27
ATOM     27  C   UNL     1       1.984   4.760  19.172  0.00  0.00    +0.000 A 
ATOM     28  C   UNL     1       1.154   3.684  18.806  0.00  0.00    +0.000 A 
ATOM     29  C   UNL     1       0.819   2.683  19.721  0.00  0.00    +0.000 A 
ATOM     30  C   UNL     1       1.318   2.724  21.020  0.00  0.00    +0.000 A 
ATOM     31  C   UNL     1       2.165   3.761  21.397  0.00  0.00    +0.000 A 
ATOM     32  C   UNL     1       2.503   4.762  20.482  0.00  0.00    +0.000 A 
ENDBRANCH  20  27
ENDBRANCH   2  20
TORSDOF 7
ENDMDL
MODEL 3
REMARK VINA RESULT:      -8.7      3.965      6.171
REMARK  Name = 
REMARK  9 active torsions:
REMARK  status: ('A' for Active; 'I' for Inactive)
REMARK    1  A    between atoms: C_1  and  C_2
REMARK    2  A    between atoms: C_2  and  C_24
REMARK    3  A    between atoms: N_3  and  N_4
REMARK    4  A    between atoms: C_5  and  C_7
REMARK    5  A    between atoms: C_7  and  N_8
REMARK    6  A    between atoms: C_9  and  C_11
REMARK    7  A    between atoms: C_11  and  C_12
REMARK    8  A    between atoms: C_11  and  C_18
REMARK    9  A    between atoms: C_27  and  C_28
REMARK                            x       y       z     vdW  Elec       q    Type
REMARK                         _______ _______ _______ _____ _____    ______ ____
ROOT
ATOM      1  N   UNL     1       4.587   2.857  17.409  0.00  0.00    +0.000 N 
ATOM      2  C   UNL     1       4.839   3.823  16.448  0.00  0.00    +0.000 C 
ATOM      3  O   UNL     1       3.918   4.362  15.836  0.00  0.00    +0.000 OA
ATOM      4  H   UNL     1       5.322   2.190  17.623  0.00  0.00    +0.000 HD
ENDROOT
BRANCH   1   5
ATOM      5  C   UNL     1       3.228   2.472  17.738  0.00  0.00    +0.000 C 
BRANCH   5   7
ATOM      6  N   UNL     1       3.059   4.533  19.017  0.00  0.00    +0.000 N 
ATOM      7  C   UNL     1       2.376   3.664  18.177  0.00  0.00    +0.000 C 
ATOM      8  O   UNL     1       1.227   3.811  17.762  0.00  0.00    +0.000 OA
ATOM      9  H   UNL     1       4.069   4.444  19.077  0.00  0.00    +0.000 HD
BRANCH   6  12
ATOM     10  C   UNL     1       3.528   7.108  17.839  0.00  0.00    +0.000 C 
ATOM     11  C   UNL     1       2.601   6.808  19.003  0.00  0.00    +0.000 C 
ATOM     12  N   UNL     1       2.422   5.628  19.528  0.00  0.00    +0.000 NA
BRANCH  11  13
ATOM     13  C   UNL     1       1.845   7.978  19.591  0.00  0.00    +0.000 A 
ATOM     14  C   UNL     1       1.504   9.096  18.816  0.00  0.00    +0.000 A 
ATOM     15  C   UNL     1       0.797  10.168  19.377  0.00  0.00    +0.000 A 
ATOM     16  C   UNL     1       0.418  10.142  20.721  0.00  0.00    +0.000 A 
ATOM     17  C   UNL     1      -0.348  11.283  21.322  0.00  0.00    +0.000 C 
ATOM     18  C   UNL     1       0.758   9.029  21.499  0.00  0.00    +0.000 A 
ATOM     19  C   UNL     1       1.466   7.957  20.939  0.00  0.00    +0.000 A 
ENDBRANCH  11  13
ENDBRANCH   6  12
ENDBRANCH   5   7
ENDBRANCH   1   5
BRANCH   2  20
ATOM     20  C   UNL     1       6.349   4.115  16.219  0.00  0.00    +0.000 C 
BRANCH  20  21
ATOM     21  C   UNL     1       6.588   4.242  14.716  0.00  0.00    +0.000 A 
ATOM     22  C   UNL     1       5.869   3.450  13.806  0.00  0.00    +0.000 A 
ATOM     23  C   UNL     1       6.149   3.508  12.441  0.00  0.00    +0.000 A 
ATOM     24  C   UNL     1       7.145   4.360  11.969  0.00  0.00    +0.000 A 
ATOM     25  C   UNL     1       7.847   5.173  12.858  0.00  0.00    +0.000 A 
ATOM     26  C   UNL     1       7.567   5.121  14.224  0.00  0.00    +0.000 A 
ENDBRANCH  20  21
BRANCH  20  27
ATOM     27  C   UNL     1       6.917   5.251  17.081  0.00  0.00    +0.000 A 
ATOM     28  C   UNL     1       7.544   4.976  18.311  0.00  0.00    +0.000 A 
ATOM     29  C   UNL     1       8.126   5.994  19.072  0.00  0.00    +0.000 A 
ATOM     30  C   UNL     1       8.111   7.308  18.613  0.00  0.00    +0.000 A 
ATOM     31  C   UNL     1       7.524   7.600  17.387  0.00  0.00    +0.000 A 
ATOM     32  C   UNL     1       6.943   6.583  16.623  0.00  0.00    +0.000 A 
ENDBRANCH  20  27
ENDBRANCH   2  20
TORSDOF 7
ENDMDL
MODEL 4
REMARK VINA RESULT:      -8.6      5.567      9.587
REMARK  Name = 
REMARK  9 active torsions:
REMARK  status: ('A' for Active; 'I' for Inactive)
REMARK    1  A    between atoms: C_1  and  C_2
REMARK    2  A    between atoms: C_2  and  C_24
REMARK    3  A    between atoms: N_3  and  N_4
REMARK    4  A    between atoms: C_5  and  C_7
REMARK    5  A    between atoms: C_7  and  N_8
REMARK    6  A    between atoms: C_9  and  C_11
REMARK    7  A    between atoms: C_11  and  C_12
REMARK    8  A    between atoms: C_11  and  C_18
REMARK    9  A    between atoms: C_27  and  C_28
REMARK                            x       y       z     vdW  Elec       q    Type
REMARK                         _______ _______ _______ _____ _____    ______ ____
ROOT
ATOM      1  N   UNL     1       6.072   6.235  18.509  0.00  0.00    +0.000 N 
ATOM      2  C   UNL     1       5.632   5.463  17.446  0.00  0.00    +0.000 C 
ATOM      3  O   UNL     1       6.425   5.007  16.623  0.00  0.00    +0.000 OA
ATOM      4  H   UNL     1       5.416   6.881  18.937  0.00  0.00    +0.000 HD
ENDROOT
BRANCH   1   5
ATOM      5  C   UNL     1       7.484   6.507  18.696  0.00  0.00    +0.000 C 
BRANCH   5   7
ATOM      6  N   UNL     1       8.621   8.654  18.810  0.00  0.00    +0.000 N 
ATOM      7  C   UNL     1       7.932   7.782  17.978  0.00  0.00    +0.000 C 
ATOM      8  O   UNL     1       7.717   7.945  16.778  0.00  0.00    +0.000 OA
ATOM      9  H   UNL     1       8.959   8.298  19.699  0.00  0.00    +0.000 HD
BRANCH   6  12
ATOM     10  C   UNL     1       9.291  10.748  20.656  0.00  0.00    +0.000 C 
ATOM     11  C   UNL     1       9.383  10.820  19.143  0.00  0.00    +0.000 C 
ATOM     12  N   UNL     1       9.055   9.855  18.329  0.00  0.00    +0.000 NA
BRANCH  11  13
ATOM     13  C   UNL     1       9.887  12.118  18.553  0.00  0.00    +0.000 A 
ATOM     14  C   UNL     1       9.335  13.354  18.917  0.00  0.00    +0.000 A 
ATOM     15  C   UNL     1       9.820  14.547  18.365  0.00  0.00    +0.000 A 
ATOM     16  C   UNL     1      10.866  14.526  17.439  0.00  0.00    +0.000 A 
ATOM     17  C   UNL     1      11.395  15.802  16.853  0.00  0.00    +0.000 C 
ATOM     18  C   UNL     1      11.419  13.294  17.071  0.00  0.00    +0.000 A 
ATOM     19  C   UNL     1      10.933  12.101  17.622  0.00  0.00    +0.000 A 
ENDBRANCH  11  13
ENDBRANCH   6  12
ENDBRANCH   5   7
ENDBRANCH   1   5
BRANCH   2  20
ATOM     20  C   UNL     1       4.090   5.271  17.394  0.00  0.00    +0.000 C 
BRANCH  20  21
ATOM     21  C   UNL     1       3.763   3.880  17.931  0.00  0.00    +0.000 A 
ATOM     22  C   UNL     1       2.691   3.141  17.404  0.00  0.00    +0.000 A 
ATOM     23  C   UNL     1       2.342   1.908  17.954  0.00  0.00    +0.000 A 
ATOM     24  C   UNL     1       3.062   1.396  19.031  0.00  0.00    +0.000 A 
ATOM     25  C   UNL     1       4.147   2.105  19.546  0.00  0.00    +0.000 A 
ATOM     26  C   UNL     1       4.501   3.338  18.996  0.00  0.00    +0.000 A 
ENDBRANCH  20  21
BRANCH  20  27
ATOM     27  C   UNL     1       3.282   6.427  18.002  0.00  0.00    +0.000 A 
ATOM     28  C   UNL     1       2.762   6.333  19.307  0.00  0.00    +0.000 A 
ATOM     29  C   UNL     1       2.085   7.404  19.895  0.00  0.00    +0.000 A 
ATOM     30  C   UNL     1       1.927   8.600  19.202  0.00  0.00    +0.000 A 
ATOM     31  C   UNL     1       2.458   8.728  17.923  0.00  0.00    +0.000 A 
ATOM     32  C   UNL     1       3.138   7.658  17.333  0.00  0.00    +0.000 A 
ENDBRANCH  20  27
ENDBRANCH   2  20
TORSDOF 7
ENDMDL
MODEL 5
REMARK VINA RESULT:      -8.6      0.935      1.844
REMARK  Name = 
REMARK  9 active torsions:
REMARK  status: ('A' for Active; 'I' for Inactive)
REMARK    1  A    between atoms: C_1  and  C_2
REMARK    2  A    between atoms: C_2  and  C_24
REMARK    3  A    between atoms: N_3  and  N_4
REMARK    4  A    between atoms: C_5  and  C_7
REMARK    5  A    between atoms: C_7  and  N_8
REMARK    6  A    between atoms: C_9  and  C_11
REMARK    7  A    between atoms: C_11  and  C_12
REMARK    8  A    between atoms: C_11  and  C_18
REMARK    9  A    between atoms: C_27  and  C_28
REMARK                            x       y       z     vdW  Elec       q    Type
REMARK                         _______ _______ _______ _____ _____    ______ ____
ROOT
ATOM      1  N   UNL     1       2.352   8.156  17.643  0.00  0.00    +0.000 N 
ATOM      2  C   UNL     1       2.712   7.150  18.526  0.00  0.00    +0.000 C 
ATOM      3  O   UNL     1       2.864   7.385  19.724  0.00  0.00    +0.000 OA
ATOM      4  H   UNL     1       2.585   8.040  16.662  0.00  0.00    +0.000 HD
ENDROOT
BRANCH   1   5
ATOM      5  C   UNL     1       2.119   9.509  18.111  0.00  0.00    +0.000 C 
BRANCH   5   7
ATOM      6  N   UNL     1      -0.207  10.032  17.633  0.00  0.00    +0.000 N 
ATOM      7  C   UNL     1       0.696   9.706  18.636  0.00  0.00    +0.000 C 
ATOM      8  O   UNL     1       0.427   9.537  19.824  0.00  0.00    +0.000 OA
ATOM      9  H   UNL     1       0.079   9.887  16.669  0.00  0.00    +0.000 HD
BRANCH   6  12
ATOM     10  C   UNL     1      -1.029  12.720  18.215  0.00  0.00    +0.000 C 
ATOM     11  C   UNL     1      -1.920  11.491  18.197  0.00  0.00    +0.000 C 
ATOM     12  N   UNL     1      -1.513  10.279  17.945  0.00  0.00    +0.000 NA
BRANCH  11  13
ATOM     13  C   UNL     1      -3.384  11.709  18.505  0.00  0.00    +0.000 A 
ATOM     14  C   UNL     1      -4.392  11.284  17.627  0.00  0.00    +0.000 A 
ATOM     15  C   UNL     1      -5.743  11.488  17.933  0.00  0.00    +0.000 A 
ATOM     16  C   UNL     1      -6.113  12.119  19.123  0.00  0.00    +0.000 A 
ATOM     17  C   UNL     1      -7.560  12.331  19.459  0.00  0.00    +0.000 C 
ATOM     18  C   UNL     1      -5.112  12.547  20.002  0.00  0.00    +0.000 A 
ATOM     19  C   UNL     1      -3.760  12.344  19.695  0.00  0.00    +0.000 A 
ENDBRANCH  11  13
ENDBRANCH   6  12
ENDBRANCH   5   7
ENDBRANCH   1   5
BRANCH   2  20
ATOM     20  C   UNL     1       2.922   5.762  17.859  0.00  0.00    +0.000 C 
BRANCH  20  21
ATOM     21  C   UNL     1       4.415   5.582  17.592  0.00  0.00    +0.000 A 
ATOM     22  C   UNL     1       4.966   5.914  16.344  0.00  0.00    +0.000 A 
ATOM     23  C   UNL     1       6.313   5.669  16.076  0.00  0.00    +0.000 A 
ATOM     24  C   UNL     1       7.124   5.095  17.051  0.00  0.00    +0.000 A 
ATOM     25  C   UNL     1       6.598   4.787  18.305  0.00  0.00    +0.000 A 
ATOM     26  C   UNL     1       5.252   5.034  18.579  0.00  0.00    +0.000 A 
ENDBRANCH  20  21
BRANCH  20  27
ATOM     27  C   UNL     1       2.229   4.597  18.579  0.00  0.00    +0.000 A 
ATOM     28  C   UNL     1       1.725   4.754  19.884  0.00  0.00    +0.000 A 
ATOM     29  C   UNL     1       1.032   3.722  20.522  0.00  0.00    +0.000 A 
ATOM     30  C   UNL     1       0.811   2.514  19.866  0.00  0.00    +0.000 A 
ATOM     31  C   UNL     1       1.273   2.345  18.565  0.00  0.00    +0.000 A 
ATOM     32  C   UNL     1       1.965   3.377  17.924  0.00  0.00    +0.000 A 
ENDBRANCH  20  27
ENDBRANCH   2  20
TORSDOF 7
ENDMDL
MODEL 6
REMARK VINA RESULT:      -8.6      6.429     10.147
REMARK  Name = 
REMARK  9 active torsions:
REMARK  status: ('A' for Active; 'I' for Inactive)
REMARK    1  A    between atoms: C_1  and  C_2
REMARK    2  A    between atoms: C_2  and  C_24
REMARK    3  A    between atoms: N_3  and  N_4
REMARK    4  A    between atoms: C_5  and  C_7
REMARK    5  A    between atoms: C_7  and  N_8
REMARK    6  A    between atoms: C_9  and  C_11
REMARK    7  A    between atoms: C_11  and  C_12
REMARK    8  A    between atoms: C_11  and  C_18
REMARK    9  A    between atoms: C_27  and  C_28
REMARK                            x       y       z     vdW  Elec       q    Type
REMARK                         _______ _______ _______ _____ _____    ______ ____
ROOT
ATOM      1  N   UNL     1       6.778   5.842  17.873  0.00  0.00    +0.000 N 
ATOM      2  C   UNL     1       7.182   4.602  17.405  0.00  0.00    +0.000 C 
ATOM      3  O   UNL     1       8.306   4.167  17.654  0.00  0.00    +0.000 OA
ATOM      4  H   UNL     1       6.035   6.324  17.376  0.00  0.00    +0.000 HD
ENDROOT
BRANCH   1   5
ATOM      5  C   UNL     1       7.660   6.653  18.690  0.00  0.00    +0.000 C 
BRANCH   5   7
ATOM      6  N   UNL     1       8.770   8.812  18.826  0.00  0.00    +0.000 N 
ATOM      7  C   UNL     1       8.070   7.950  17.992  0.00  0.00    +0.000 C 
ATOM      8  O   UNL     1       7.820   8.140  16.803  0.00  0.00    +0.000 OA
ATOM      9  H   UNL     1       9.138   8.439  19.696  0.00  0.00    +0.000 HD
BRANCH   6  12
ATOM     10  C   UNL     1       9.341  10.908  20.702  0.00  0.00    +0.000 C 
ATOM     11  C   UNL     1       9.457  10.997  19.191  0.00  0.00    +0.000 C 
ATOM     12  N   UNL     1       9.174  10.031  18.363  0.00  0.00    +0.000 NA
BRANCH  11  13
ATOM     13  C   UNL     1       9.930  12.316  18.622  0.00  0.00    +0.000 A 
ATOM     14  C   UNL     1       9.184  13.493  18.776  0.00  0.00    +0.000 A 
ATOM     15  C   UNL     1       9.642  14.707  18.247  0.00  0.00    +0.000 A 
ATOM     16  C   UNL     1      10.854  14.767  17.556  0.00  0.00    +0.000 A 
ATOM     17  C   UNL     1      11.353  16.067  16.996  0.00  0.00    +0.000 C 
ATOM     18  C   UNL     1      11.601  13.595  17.397  0.00  0.00    +0.000 A 
ATOM     19  C   UNL     1      11.143  12.380  17.925  0.00  0.00    +0.000 A 
ENDBRANCH  11  13
ENDBRANCH   6  12
ENDBRANCH   5   7
ENDBRANCH   1   5
BRANCH   2  20
ATOM     20  C   UNL     1       6.116   3.867  16.545  0.00  0.00    +0.000 C 
BRANCH  20  21
ATOM     21  C   UNL     1       4.736   4.188  17.116  0.00  0.00    +0.000 A 
ATOM     22  C   UNL     1       3.894   3.162  17.576  0.00  0.00    +0.000 A 
ATOM     23  C   UNL     1       2.603   3.450  18.018  0.00  0.00    +0.000 A 
ATOM     24  C   UNL     1       2.141   4.764  18.011  0.00  0.00    +0.000 A 
ATOM     25  C   UNL     1       2.977   5.796  17.586  0.00  0.00    +0.000 A 
ATOM     26  C   UNL     1       4.270   5.512  17.146  0.00  0.00    +0.000 A 
ENDBRANCH  20  21
BRANCH  20  27
ATOM     27  C   UNL     1       6.271   4.065  15.030  0.00  0.00    +0.000 A 
ATOM     28  C   UNL     1       7.292   4.883  14.512  0.00  0.00    +0.000 A 
ATOM     29  C   UNL     1       7.486   5.016  13.135  0.00  0.00    +0.000 A 
ATOM     30  C   UNL     1       6.676   4.321  12.242  0.00  0.00    +0.000 A 
ATOM     31  C   UNL     1       5.680   3.482  12.730  0.00  0.00    +0.000 A 
ATOM     32  C   UNL     1       5.486   3.346  14.108  0.00  0.00    +0.000 A 
ENDBRANCH  20  27
ENDBRANCH   2  20
TORSDOF 7
ENDMDL
MODEL 7
REMARK VINA RESULT:      -8.6      5.405      9.627
REMARK  Name = 
REMARK  9 active torsions:
REMARK  status: ('A' for Active; 'I' for Inactive)
REMARK    1  A    between atoms: C_1  and  C_2
REMARK    2  A    between atoms: C_2  and  C_24
REMARK    3  A    between atoms: N_3  and  N_4
REMARK    4  A    between atoms: C_5  and  C_7
REMARK    5  A    between atoms: C_7  and  N_8
REMARK    6  A    between atoms: C_9  and  C_11
REMARK    7  A    between atoms: C_11  and  C_12
REMARK    8  A    between atoms: C_11  and  C_18
REMARK    9  A    between atoms: C_27  and  C_28
REMARK                            x       y       z     vdW  Elec       q    Type
REMARK                         _______ _______ _______ _____ _____    ______ ____
ROOT
ATOM      1  N   UNL     1       5.831   6.170  18.580  0.00  0.00    +0.000 N 
ATOM      2  C   UNL     1       5.261   5.434  17.554  0.00  0.00    +0.000 C 
ATOM      3  O   UNL     1       5.962   4.887  16.703  0.00  0.00    +0.000 OA
ATOM      4  H   UNL     1       5.268   6.886  19.027  0.00  0.00    +0.000 HD
ENDROOT
BRANCH   1   5
ATOM      5  C   UNL     1       7.271   6.295  18.695  0.00  0.00    +0.000 C 
BRANCH   5   7
ATOM      6  N   UNL     1       8.412   8.440  18.804  0.00  0.00    +0.000 N 
ATOM      7  C   UNL     1       7.810   7.520  17.955  0.00  0.00    +0.000 C 
ATOM      8  O   UNL     1       7.734   7.609  16.731  0.00  0.00    +0.000 OA
ATOM      9  H   UNL     1       8.644   8.139  19.746  0.00  0.00    +0.000 HD
BRANCH   6  12
ATOM     10  C   UNL     1       9.186  10.531  20.612  0.00  0.00    +0.000 C 
ATOM     11  C   UNL     1       9.286  10.569  19.098  0.00  0.00    +0.000 C 
ATOM     12  N   UNL     1       8.909   9.608  18.302  0.00  0.00    +0.000 NA
BRANCH  11  13
ATOM     13  C   UNL     1       9.860  11.827  18.485  0.00  0.00    +0.000 A 
ATOM     14  C   UNL     1       9.213  13.065  18.608  0.00  0.00    +0.000 A 
ATOM     15  C   UNL     1       9.764  14.221  18.039  0.00  0.00    +0.000 A 
ATOM     16  C   UNL     1      10.971  14.161  17.338  0.00  0.00    +0.000 A 
ATOM     17  C   UNL     1      11.568  15.398  16.736  0.00  0.00    +0.000 C 
ATOM     18  C   UNL     1      11.618  12.927  17.211  0.00  0.00    +0.000 A 
ATOM     19  C   UNL     1      11.068  11.771  17.778  0.00  0.00    +0.000 A 
ENDBRANCH  11  13
ENDBRANCH   6  12
ENDBRANCH   5   7
ENDBRANCH   1   5
BRANCH   2  20
ATOM     20  C   UNL     1       3.708   5.404  17.578  0.00  0.00    +0.000 C 
BRANCH  20  21
ATOM     21  C   UNL     1       3.264   4.083  18.204  0.00  0.00    +0.000 A 
ATOM     22  C   UNL     1       2.366   3.238  17.532  0.00  0.00    +0.000 A 
ATOM     23  C   UNL     1       1.898   2.074  18.142  0.00  0.00    +0.000 A 
ATOM     24  C   UNL     1       2.325   1.740  19.425  0.00  0.00    +0.000 A 
ATOM     25  C   UNL     1       3.239   2.555  20.091  0.00  0.00    +0.000 A 
ATOM     26  C   UNL     1       3.713   3.718  19.483  0.00  0.00    +0.000 A 
ENDBRANCH  20  21
BRANCH  20  27
ATOM     27  C   UNL     1       3.054   6.667  18.157  0.00  0.00    +0.000 A 
ATOM     28  C   UNL     1       2.825   7.795  17.347  0.00  0.00    +0.000 A 
ATOM     29  C   UNL     1       2.169   8.924  17.846  0.00  0.00    +0.000 A 
ATOM     30  C   UNL     1       1.711   8.946  19.160  0.00  0.00    +0.000 A 
ATOM     31  C   UNL     1       1.899   7.832  19.971  0.00  0.00    +0.000 A 
ATOM     32  C   UNL     1       2.553   6.701  19.474  0.00  0.00    +0.000 A 
ENDBRANCH  20  27
ENDBRANCH   2  20
TORSDOF 7
ENDMDL
MODEL 8
REMARK VINA RESULT:      -8.5      3.708      5.594
REMARK  Name = 
REMARK  9 active torsions:
REMARK  status: ('A' for Active; 'I' for Inactive)
REMARK    1  A    between atoms: C_1  and  C_2
REMARK    2  A    between atoms: C_2  and  C_24
REMARK    3  A    between atoms: N_3  and  N_4
REMARK    4  A    between atoms: C_5  and  C_7
REMARK    5  A    between atoms: C_7  and  N_8
REMARK    6  A    between atoms: C_9  and  C_11
REMARK    7  A    between atoms: C_11  and  C_12
REMARK    8  A    between atoms: C_11  and  C_18
REMARK    9  A    between atoms: C_27  and  C_28
REMARK                            x       y       z     vdW  Elec       q    Type
REMARK                         _______ _______ _______ _____ _____    ______ ____
ROOT
ATOM      1  N   UNL     1       3.663   5.138  17.932  0.00  0.00    +0.000 N 
ATOM      2  C   UNL     1       4.535   4.530  17.042  0.00  0.00    +0.000 C 
ATOM      3  O   UNL     1       4.635   3.305  16.993  0.00  0.00    +0.000 OA
ATOM      4  H   UNL     1       3.854   6.095  18.212  0.00  0.00    +0.000 HD
ENDROOT
BRANCH   1   5
ATOM      5  C   UNL     1       2.825   4.347  18.811  0.00  0.00    +0.000 C 
BRANCH   5   7
ATOM      6  N   UNL     1       2.269   6.565  19.639  0.00  0.00    +0.000 N 
ATOM      7  C   UNL     1       1.957   5.215  19.724  0.00  0.00    +0.000 C 
ATOM      8  O   UNL     1       1.060   4.721  20.406  0.00  0.00    +0.000 OA
ATOM      9  H   UNL     1       2.841   6.874  18.859  0.00  0.00    +0.000 HD
BRANCH   6  12
ATOM     10  C   UNL     1       1.585   9.132  18.551  0.00  0.00    +0.000 C 
ATOM     11  C   UNL     1       1.269   8.635  19.951  0.00  0.00    +0.000 C 
ATOM     12  N   UNL     1       1.609   7.468  20.422  0.00  0.00    +0.000 NA
BRANCH  11  13
ATOM     13  C   UNL     1       0.511   9.582  20.854  0.00  0.00    +0.000 A 
ATOM     14  C   UNL     1      -0.004   9.165  22.090  0.00  0.00    +0.000 A 
ATOM     15  C   UNL     1      -0.697  10.059  22.916  0.00  0.00    +0.000 A 
ATOM     16  C   UNL     1      -0.889  11.385  22.523  0.00  0.00    +0.000 A 
ATOM     17  C   UNL     1      -1.623  12.348  23.409  0.00  0.00    +0.000 C 
ATOM     18  C   UNL     1      -0.379  11.806  21.289  0.00  0.00    +0.000 A 
ATOM     19  C   UNL     1       0.314  10.912  20.462  0.00  0.00    +0.000 A 
ENDBRANCH  11  13
ENDBRANCH   6  12
ENDBRANCH   5   7
ENDBRANCH   1   5
BRANCH   2  20
ATOM     20  C   UNL     1       5.358   5.524  16.176  0.00  0.00    +0.000 C 
BRANCH  20  21
ATOM     21  C   UNL     1       6.455   6.126  17.051  0.00  0.00    +0.000 A 
ATOM     22  C   UNL     1       7.082   5.357  18.046  0.00  0.00    +0.000 A 
ATOM     23  C   UNL     1       8.023   5.933  18.898  0.00  0.00    +0.000 A 
ATOM     24  C   UNL     1       8.353   7.279  18.765  0.00  0.00    +0.000 A 
ATOM     25  C   UNL     1       7.760   8.047  17.763  0.00  0.00    +0.000 A 
ATOM     26  C   UNL     1       6.821   7.474  16.905  0.00  0.00    +0.000 A 
ENDBRANCH  20  21
BRANCH  20  27
ATOM     27  C   UNL     1       5.819   4.961  14.824  0.00  0.00    +0.000 A 
ATOM     28  C   UNL     1       7.119   5.210  14.346  0.00  0.00    +0.000 A 
ATOM     29  C   UNL     1       7.572   4.646  13.150  0.00  0.00    +0.000 A 
ATOM     30  C   UNL     1       6.743   3.807  12.412  0.00  0.00    +0.000 A 
ATOM     31  C   UNL     1       5.464   3.521  12.879  0.00  0.00    +0.000 A 
ATOM     32  C   UNL     1       5.010   4.083  14.076  0.00  0.00    +0.000 A 
ENDBRANCH  20  27
ENDBRANCH   2  20
TORSDOF 7
ENDMDL
MODEL 9
REMARK VINA RESULT:      -8.5      2.288      2.915
REMARK  Name = 
REMARK  9 active torsions:
REMARK  status: ('A' for Active; 'I' for Inactive)
REMARK    1  A    between atoms: C_1  and  C_2
REMARK    2  A    between atoms: C_2  and  C_24
REMARK    3  A    between atoms: N_3  and  N_4
REMARK    4  A    between atoms: C_5  and  C_7
REMARK    5  A    between atoms: C_7  and  N_8
REMARK    6  A    between atoms: C_9  and  C_11
REMARK    7  A    between atoms: C_11  and  C_12
REMARK    8  A    between atoms: C_11  and  C_18
REMARK    9  A    between atoms: C_27  and  C_28
REMARK                            x       y       z     vdW  Elec       q    Type
REMARK                         _______ _______ _______ _____ _____    ______ ____
ROOT
ATOM      1  N   UNL     1       2.120   8.191  17.603  0.00  0.00    +0.000 N 
ATOM      2  C   UNL     1       2.336   7.283  18.627  0.00  0.00    +0.000 C 
ATOM      3  O   UNL     1       2.448   7.659  19.794  0.00  0.00    +0.000 OA
ATOM      4  H   UNL     1       2.392   7.926  16.662  0.00  0.00    +0.000 HD
ENDROOT
BRANCH   1   5
ATOM      5  C   UNL     1       1.994   9.608  17.880  0.00  0.00    +0.000 C 
BRANCH   5   7
ATOM      6  N   UNL     1       0.788  10.386  19.844  0.00  0.00    +0.000 N 
ATOM      7  C   UNL     1       0.654   9.958  18.530  0.00  0.00    +0.000 C 
ATOM      8  O   UNL     1      -0.397   9.893  17.895  0.00  0.00    +0.000 OA
ATOM      9  H   UNL     1       1.715  10.644  20.169  0.00  0.00    +0.000 HD
BRANCH   6  12
ATOM     10  C   UNL     1       0.111  13.145  20.258  0.00  0.00    +0.000 C 
ATOM     11  C   UNL     1      -0.664  11.942  20.766  0.00  0.00    +0.000 C 
ATOM     12  N   UNL     1      -0.321  10.699  20.576  0.00  0.00    +0.000 NA
BRANCH  11  13
ATOM     13  C   UNL     1      -1.920  12.228  21.558  0.00  0.00    +0.000 A 
ATOM     14  C   UNL     1      -3.055  12.794  20.958  0.00  0.00    +0.000 A 
ATOM     15  C   UNL     1      -4.212  13.045  21.707  0.00  0.00    +0.000 A 
ATOM     16  C   UNL     1      -4.257  12.734  23.067  0.00  0.00    +0.000 A 
ATOM     17  C   UNL     1      -5.498  12.993  23.871  0.00  0.00    +0.000 C 
ATOM     18  C   UNL     1      -3.127  12.171  23.671  0.00  0.00    +0.000 A 
ATOM     19  C   UNL     1      -1.969  11.921  22.923  0.00  0.00    +0.000 A 
ENDBRANCH  11  13
ENDBRANCH   6  12
ENDBRANCH   5   7
ENDBRANCH   1   5
BRANCH   2  20
ATOM     20  C   UNL     1       2.447   5.806  18.156  0.00  0.00    +0.000 C 
BRANCH  20  21
ATOM     21  C   UNL     1       3.834   5.600  17.551  0.00  0.00    +0.000 A 
ATOM     22  C   UNL     1       4.196   4.363  16.992  0.00  0.00    +0.000 A 
ATOM     23  C   UNL     1       5.491   4.153  16.517  0.00  0.00    +0.000 A 
ATOM     24  C   UNL     1       6.435   5.173  16.591  0.00  0.00    +0.000 A 
ATOM     25  C   UNL     1       6.081   6.415  17.117  0.00  0.00    +0.000 A 
ATOM     26  C   UNL     1       4.786   6.632  17.589  0.00  0.00    +0.000 A 
ENDBRANCH  20  21
BRANCH  20  27
ATOM     27  C   UNL     1       2.017   4.768  19.203  0.00  0.00    +0.000 A 
ATOM     28  C   UNL     1       1.168   3.701  18.854  0.00  0.00    +0.000 A 
ATOM     29  C   UNL     1       0.826   2.713  19.781  0.00  0.00    +0.000 A 
ATOM     30  C   UNL     1       1.338   2.757  21.074  0.00  0.00    +0.000 A 
ATOM     31  C   UNL     1       2.203   3.785  21.435  0.00  0.00    +0.000 A 
ATOM     32  C   UNL     1       2.548   4.773  20.508  0.00  0.00    +0.000 A 
ENDBRANCH  20  27
ENDBRANCH   2  20
TORSDOF 7
ENDMDL
