MODEL 1
REMARK VINA RESULT:      -9.2      0.000      0.000
REMARK  Name = 
REMARK  9 active torsions:
REMARK  status: ('A' for Active; 'I' for Inactive)
REMARK    1  A    between atoms: C_1  and  C_2
REMARK    2  A    between atoms: C_2  and  C_3
REMARK    3  A    between atoms: C_2  and  O_4
REMARK    4  A    between atoms: O_4  and  C_5
REMARK    5  A    between atoms: C_8  and  C_9
REMARK    6  A    between atoms: C_12  and  N_13
REMARK    7  A    between atoms: N_14  and  C_15
REMARK    8  A    between atoms: C_17  and  S_18
REMARK    9  A    between atoms: C_28  and  N_29
REMARK                            x       y       z     vdW  Elec       q    Type
REMARK                         _______ _______ _______ _____ _____    ______ ____
ROOT
ATOM      1  N   UNL     1       1.296   8.567  19.668  0.00  0.00    +0.000 NA
ATOM      2  N   UNL     1       1.759   7.591  20.302  0.00  0.00    +0.000 NA
ENDROOT
BRANCH   2   3
ATOM      3  C   UNL     1       2.460   6.680  19.471  0.00  0.00    +0.000 A 
ATOM      4  C   UNL     1       2.554   5.353  19.879  0.00  0.00    +0.000 A 
ATOM      5  C   UNL     1       3.237   4.410  19.095  0.00  0.00    +0.000 A 
ATOM      6  C   UNL     1       3.837   4.763  17.861  0.00  0.00    +0.000 A 
ATOM      7  C   UNL     1       4.350   3.841  16.916  0.00  0.00    +0.000 A 
ATOM      8  C   UNL     1       5.082   4.255  15.805  0.00  0.00    +0.000 A 
ATOM      9  C   UNL     1       5.373   5.599  15.646  0.00  0.00    +0.000 A 
ATOM     10  C   UNL     1       4.784   6.529  16.500  0.00  0.00    +0.000 A 
ATOM     11  C   UNL     1       3.921   6.139  17.551  0.00  0.00    +0.000 A 
ATOM     12  C   UNL     1       3.146   7.077  18.295  0.00  0.00    +0.000 A 
BRANCH   5  13
ATOM     13  S   UNL     1       3.556   2.792  19.884  0.00  0.00    +0.000 S 
ATOM     14  O   UNL     1       2.956   1.849  18.943  0.00  0.00    +0.000 OA
ATOM     15  O   UNL     1       5.007   2.780  19.950  0.00  0.00    +0.000 OA
ATOM     16  O   UNL     1       2.873   2.862  21.172  0.00  0.00    +0.000 OA
ENDBRANCH   5  13
BRANCH  12  17
ATOM     17  N   UNL     1       3.168   8.464  17.933  0.00  0.00    +0.000 N 
ATOM     18  H   UNL     1       2.875   8.577  16.968  0.00  0.00    +0.000 HD
ATOM     19  H   UNL     1       2.553   8.967  18.571  0.00  0.00    +0.000 HD
ENDBRANCH  12  17
ENDBRANCH   2   3
BRANCH   1  23
ATOM     20  C   UNL     1      -0.838  11.239  22.109  0.00  0.00    +0.000 A 
ATOM     21  C   UNL     1      -0.474   9.999  22.628  0.00  0.00    +0.000 A 
ATOM     22  C   UNL     1       0.240   9.099  21.830  0.00  0.00    +0.000 A 
ATOM     23  C   UNL     1       0.595   9.438  20.529  0.00  0.00    +0.000 A 
ATOM     24  C   UNL     1       0.179  10.690  20.086  0.00  0.00    +0.000 A 
ATOM     25  N   UNL     1      -0.515  11.591  20.840  0.00  0.00    +0.000 NA
BRANCH  20  29
ATOM     26  C   UNL     1      -3.012  14.211  24.400  0.00  0.00    +0.000 A 
ATOM     27  C   UNL     1      -3.557  12.956  24.142  0.00  0.00    +0.000 A 
ATOM     28  C   UNL     1      -2.835  12.000  23.412  0.00  0.00    +0.000 A 
ATOM     29  C   UNL     1      -1.557  12.270  22.897  0.00  0.00    +0.000 A 
ATOM     30  C   UNL     1      -1.027  13.543  23.162  0.00  0.00    +0.000 A 
ATOM     31  C   UNL     1      -1.740  14.501  23.900  0.00  0.00    +0.000 A 
BRANCH  26  32
ATOM     32  O   UNL     1      -3.614  15.220  25.104  0.00  0.00    +0.000 OA
BRANCH  32  34
ATOM     33  C   UNL     1      -5.609  15.803  23.926  0.00  0.00    +0.000 C 
ATOM     34  C   UNL     1      -4.221  16.286  24.353  0.00  0.00    +0.000 C 
ATOM     35  C   UNL     1      -4.346  17.512  25.251  0.00  0.00    +0.000 C 
ENDBRANCH  32  34
ENDBRANCH  26  32
ENDBRANCH  20  29
ENDBRANCH   1  23
TORSDOF 7
ENDMDL
MODEL 2
REMARK VINA RESULT:      -9.1      0.419      1.183
REMARK  Name = 
REMARK  9 active torsions:
REMARK  status: ('A' for Active; 'I' for Inactive)
REMARK    1  A    between atoms: C_1  and  C_2
REMARK    2  A    between atoms: C_2  and  C_3
REMARK    3  A    between atoms: C_2  and  O_4
REMARK    4  A    between atoms: O_4  and  C_5
REMARK    5  A    between atoms: C_8  and  C_9
REMARK    6  A    between atoms: C_12  and  N_13
REMARK    7  A    between atoms: N_14  and  C_15
REMARK    8  A    between atoms: C_17  and  S_18
REMARK    9  A    between atoms: C_28  and  N_29
REMARK                            x       y       z     vdW  Elec       q    Type
REMARK                         _______ _______ _______ _____ _____    ______ ____
ROOT
ATOM      1  N   UNL     1       1.920   8.471  20.530  0.00  0.00    +0.000 NA
ATOM      2  N   UNL     1       1.287   7.531  19.998  0.00  0.00    +0.000 NA
ENDROOT
BRANCH   2   3
ATOM      3  C   UNL     1       2.126   6.638  19.283  0.00  0.00    +0.000 A 
ATOM      4  C   UNL     1       2.246   5.332  19.747  0.00  0.00    +0.000 A 
ATOM      5  C   UNL     1       3.064   4.408  19.078  0.00  0.00    +0.000 A 
ATOM      6  C   UNL     1       3.777   4.758  17.905  0.00  0.00    +0.000 A 
ATOM      7  C   UNL     1       4.443   3.841  17.056  0.00  0.00    +0.000 A 
ATOM      8  C   UNL     1       5.271   4.263  16.017  0.00  0.00    +0.000 A 
ATOM      9  C   UNL     1       5.503   5.617  15.843  0.00  0.00    +0.000 A 
ATOM     10  C   UNL     1       4.771   6.536  16.592  0.00  0.00    +0.000 A 
ATOM     11  C   UNL     1       3.820   6.127  17.556  0.00  0.00    +0.000 A 
ATOM     12  C   UNL     1       2.916   7.040  18.176  0.00  0.00    +0.000 A 
BRANCH   5  13
ATOM     13  S   UNL     1       3.382   2.837  19.955  0.00  0.00    +0.000 S 
ATOM     14  O   UNL     1       4.842   2.767  19.978  0.00  0.00    +0.000 OA
ATOM     15  O   UNL     1       2.743   3.083  21.236  0.00  0.00    +0.000 OA
ATOM     16  O   UNL     1       2.751   1.811  19.129  0.00  0.00    +0.000 OA
ENDBRANCH   5  13
BRANCH  12  17
ATOM     17  N   UNL     1       2.901   8.414  17.769  0.00  0.00    +0.000 N 
ATOM     18  H   UNL     1       2.351   8.966  18.421  0.00  0.00    +0.000 HD
ATOM     19  H   UNL     1       3.865   8.741  17.724  0.00  0.00    +0.000 HD
ENDBRANCH  12  17
ENDBRANCH   2   3
BRANCH   1  23
ATOM     20  C   UNL     1      -0.696  11.143  22.446  0.00  0.00    +0.000 A 
ATOM     21  C   UNL     1      -0.486   9.887  23.011  0.00  0.00    +0.000 A 
ATOM     22  C   UNL     1       0.385   8.986  22.388  0.00  0.00    +0.000 A 
ATOM     23  C   UNL     1       1.046   9.341  21.217  0.00  0.00    +0.000 A 
ATOM     24  C   UNL     1       0.767  10.608  20.714  0.00  0.00    +0.000 A 
ATOM     25  N   UNL     1      -0.073  11.510  21.299  0.00  0.00    +0.000 NA
BRANCH  20  29
ATOM     26  C   UNL     1      -3.177  14.203  24.260  0.00  0.00    +0.000 A 
ATOM     27  C   UNL     1      -1.878  14.479  23.839  0.00  0.00    +0.000 A 
ATOM     28  C   UNL     1      -1.094  13.482  23.240  0.00  0.00    +0.000 A 
ATOM     29  C   UNL     1      -1.568  12.173  23.061  0.00  0.00    +0.000 A 
ATOM     30  C   UNL     1      -2.877  11.912  23.498  0.00  0.00    +0.000 A 
ATOM     31  C   UNL     1      -3.671  12.907  24.089  0.00  0.00    +0.000 A 
BRANCH  26  32
ATOM     32  O   UNL     1      -4.038  15.091  24.848  0.00  0.00    +0.000 OA
BRANCH  32  34
ATOM     33  C   UNL     1      -5.583  16.082  23.320  0.00  0.00    +0.000 C 
ATOM     34  C   UNL     1      -4.315  16.314  24.147  0.00  0.00    +0.000 C 
ATOM     35  C   UNL     1      -4.551  17.424  25.166  0.00  0.00    +0.000 C 
ENDBRANCH  32  34
ENDBRANCH  26  32
ENDBRANCH  20  29
ENDBRANCH   1  23
TORSDOF 7
ENDMDL
MODEL 3
REMARK VINA RESULT:      -8.9      0.745      1.255
REMARK  Name = 
REMARK  9 active torsions:
REMARK  status: ('A' for Active; 'I' for Inactive)
REMARK    1  A    between atoms: C_1  and  C_2
REMARK    2  A    between atoms: C_2  and  C_3
REMARK    3  A    between atoms: C_2  and  O_4
REMARK    4  A    between atoms: O_4  and  C_5
REMARK    5  A    between atoms: C_8  and  C_9
REMARK    6  A    between atoms: C_12  and  N_13
REMARK    7  A    between atoms: N_14  and  C_15
REMARK    8  A    between atoms: C_17  and  S_18
REMARK    9  A    between atoms: C_28  and  N_29
REMARK                            x       y       z     vdW  Elec       q    Type
REMARK                         _______ _______ _______ _____ _____    ______ ____
ROOT
ATOM      1  N   UNL     1       1.456   7.949  20.807  0.00  0.00    +0.000 NA
ATOM      2  N   UNL     1       1.513   7.979  19.556  0.00  0.00    +0.000 NA
ENDROOT
BRANCH   2   3
ATOM      3  C   UNL     1       2.287   6.920  19.015  0.00  0.00    +0.000 A 
ATOM      4  C   UNL     1       2.200   5.668  19.613  0.00  0.00    +0.000 A 
ATOM      5  C   UNL     1       2.946   4.586  19.118  0.00  0.00    +0.000 A 
ATOM      6  C   UNL     1       3.794   4.720  17.992  0.00  0.00    +0.000 A 
ATOM      7  C   UNL     1       4.405   3.644  17.303  0.00  0.00    +0.000 A 
ATOM      8  C   UNL     1       5.364   3.850  16.313  0.00  0.00    +0.000 A 
ATOM      9  C   UNL     1       5.781   5.139  16.031  0.00  0.00    +0.000 A 
ATOM     10  C   UNL     1       5.113   6.215  16.614  0.00  0.00    +0.000 A 
ATOM     11  C   UNL     1       4.040   6.028  17.517  0.00  0.00    +0.000 A 
ATOM     12  C   UNL     1       3.212   7.104  17.955  0.00  0.00    +0.000 A 
BRANCH   5  13
ATOM     13  S   UNL     1       2.986   3.092  20.171  0.00  0.00    +0.000 S 
ATOM     14  O   UNL     1       2.450   3.576  21.441  0.00  0.00    +0.000 OA
ATOM     15  O   UNL     1       2.125   2.188  19.427  0.00  0.00    +0.000 OA
ATOM     16  O   UNL     1       4.394   2.710  20.227  0.00  0.00    +0.000 OA
ENDBRANCH   5  13
BRANCH  12  17
ATOM     17  N   UNL     1       3.407   8.417  17.417  0.00  0.00    +0.000 N 
ATOM     18  H   UNL     1       3.831   9.021  18.116  0.00  0.00    +0.000 HD
ATOM     19  H   UNL     1       3.995   8.336  16.589  0.00  0.00    +0.000 HD
ENDBRANCH  12  17
ENDBRANCH   2   3
BRANCH   1  23
ATOM     20  C   UNL     1      -0.752  11.142  22.413  0.00  0.00    +0.000 A 
ATOM     21  C   UNL     1      -0.689  10.998  21.029  0.00  0.00    +0.000 A 
ATOM     22  C   UNL     1       0.039   9.937  20.477  0.00  0.00    +0.000 A 
ATOM     23  C   UNL     1       0.690   9.026  21.302  0.00  0.00    +0.000 A 
ATOM     24  C   UNL     1       0.586   9.253  22.670  0.00  0.00    +0.000 A 
ATOM     25  N   UNL     1      -0.117  10.274  23.239  0.00  0.00    +0.000 NA
BRANCH  20  29
ATOM     26  C   UNL     1      -3.109  14.221  24.355  0.00  0.00    +0.000 A 
ATOM     27  C   UNL     1      -3.628  12.949  24.126  0.00  0.00    +0.000 A 
ATOM     28  C   UNL     1      -2.847  11.960  23.510  0.00  0.00    +0.000 A 
ATOM     29  C   UNL     1      -1.534  12.210  23.082  0.00  0.00    +0.000 A 
ATOM     30  C   UNL     1      -1.031  13.500  23.315  0.00  0.00    +0.000 A 
ATOM     31  C   UNL     1      -1.803  14.493  23.940  0.00  0.00    +0.000 A 
BRANCH  26  32
ATOM     32  O   UNL     1      -3.769  15.263  24.951  0.00  0.00    +0.000 OA
BRANCH  32  34
ATOM     33  C   UNL     1      -5.362  16.376  23.561  0.00  0.00    +0.000 C 
ATOM     34  C   UNL     1      -3.962  16.459  24.176  0.00  0.00    +0.000 C 
ATOM     35  C   UNL     1      -3.867  17.666  25.103  0.00  0.00    +0.000 C 
ENDBRANCH  32  34
ENDBRANCH  26  32
ENDBRANCH  20  29
ENDBRANCH   1  23
TORSDOF 7
ENDMDL
MODEL 4
REMARK VINA RESULT:      -8.7      0.983      1.689
REMARK  Name = 
REMARK  9 active torsions:
REMARK  status: ('A' for Active; 'I' for Inactive)
REMARK    1  A    between atoms: C_1  and  C_2
REMARK    2  A    between atoms: C_2  and  C_3
REMARK    3  A    between atoms: C_2  and  O_4
REMARK    4  A    between atoms: O_4  and  C_5
REMARK    5  A    between atoms: C_8  and  C_9
REMARK    6  A    between atoms: C_12  and  N_13
REMARK    7  A    between atoms: N_14  and  C_15
REMARK    8  A    between atoms: C_17  and  S_18
REMARK    9  A    between atoms: C_28  and  N_29
REMARK                            x       y       z     vdW  Elec       q    Type
REMARK                         _______ _______ _______ _____ _____    ______ ____
ROOT
ATOM      1  N   UNL     1       0.760   7.858  20.961  0.00  0.00    +0.000 NA
ATOM      2  N   UNL     1       1.435   8.121  19.940  0.00  0.00    +0.000 NA
ENDROOT
BRANCH   2   3
ATOM      3  C   UNL     1       2.105   6.986  19.416  0.00  0.00    +0.000 A 
ATOM      4  C   UNL     1       1.971   5.774  20.084  0.00  0.00    +0.000 A 
ATOM      5  C   UNL     1       2.614   4.620  19.609  0.00  0.00    +0.000 A 
ATOM      6  C   UNL     1       3.400   4.638  18.432  0.00  0.00    +0.000 A 
ATOM      7  C   UNL     1       3.898   3.489  17.770  0.00  0.00    +0.000 A 
ATOM      8  C   UNL     1       4.808   3.578  16.719  0.00  0.00    +0.000 A 
ATOM      9  C   UNL     1       5.292   4.820  16.344  0.00  0.00    +0.000 A 
ATOM     10  C   UNL     1       4.732   5.967  16.904  0.00  0.00    +0.000 A 
ATOM     11  C   UNL     1       3.704   5.901  17.873  0.00  0.00    +0.000 A 
ATOM     12  C   UNL     1       2.976   7.051  18.298  0.00  0.00    +0.000 A 
BRANCH   5  13
ATOM     13  S   UNL     1       2.616   3.182  20.738  0.00  0.00    +0.000 S 
ATOM     14  O   UNL     1       2.269   3.780  22.025  0.00  0.00    +0.000 OA
ATOM     15  O   UNL     1       1.596   2.339  20.139  0.00  0.00    +0.000 OA
ATOM     16  O   UNL     1       3.977   2.657  20.673  0.00  0.00    +0.000 OA
ENDBRANCH   5  13
BRANCH  12  17
ATOM     17  N   UNL     1       3.225   8.320  17.679  0.00  0.00    +0.000 N 
ATOM     18  H   UNL     1       3.650   8.185  16.766  0.00  0.00    +0.000 HD
ATOM     19  H   UNL     1       2.338   8.816  17.607  0.00  0.00    +0.000 HD
ENDBRANCH  12  17
ENDBRANCH   2   3
BRANCH   1  23
ATOM     20  C   UNL     1      -1.078  11.274  22.575  0.00  0.00    +0.000 A 
ATOM     21  C   UNL     1      -0.889  11.200  21.197  0.00  0.00    +0.000 A 
ATOM     22  C   UNL     1      -0.282  10.068  20.642  0.00  0.00    +0.000 A 
ATOM     23  C   UNL     1       0.124   9.016  21.457  0.00  0.00    +0.000 A 
ATOM     24  C   UNL     1      -0.090   9.179  22.822  0.00  0.00    +0.000 A 
ATOM     25  N   UNL     1      -0.681  10.268  23.393  0.00  0.00    +0.000 NA
BRANCH  20  29
ATOM     26  C   UNL     1      -2.969  14.649  24.535  0.00  0.00    +0.000 A 
ATOM     27  C   UNL     1      -1.680  14.743  24.015  0.00  0.00    +0.000 A 
ATOM     28  C   UNL     1      -1.088  13.647  23.371  0.00  0.00    +0.000 A 
ATOM     29  C   UNL     1      -1.750  12.416  23.242  0.00  0.00    +0.000 A 
ATOM     30  C   UNL     1      -3.046  12.338  23.778  0.00  0.00    +0.000 A 
ATOM     31  C   UNL     1      -3.648  13.434  24.416  0.00  0.00    +0.000 A 
BRANCH  26  32
ATOM     32  O   UNL     1      -3.652  15.648  25.176  0.00  0.00    +0.000 OA
BRANCH  32  34
ATOM     33  C   UNL     1      -5.143  17.371  24.458  0.00  0.00    +0.000 C 
ATOM     34  C   UNL     1      -3.676  16.944  24.555  0.00  0.00    +0.000 C 
ATOM     35  C   UNL     1      -2.902  17.924  25.431  0.00  0.00    +0.000 C 
ENDBRANCH  32  34
ENDBRANCH  26  32
ENDBRANCH  20  29
ENDBRANCH   1  23
TORSDOF 7
ENDMDL
MODEL 5
REMARK VINA RESULT:      -8.7      0.674      1.209
REMARK  Name = 
REMARK  9 active torsions:
REMARK  status: ('A' for Active; 'I' for Inactive)
REMARK    1  A    between atoms: C_1  and  C_2
REMARK    2  A    between atoms: C_2  and  C_3
REMARK    3  A    between atoms: C_2  and  O_4
REMARK    4  A    between atoms: O_4  and  C_5
REMARK    5  A    between atoms: C_8  and  C_9
REMARK    6  A    between atoms: C_12  and  N_13
REMARK    7  A    between atoms: N_14  and  C_15
REMARK    8  A    between atoms: C_17  and  S_18
REMARK    9  A    between atoms: C_28  and  N_29
REMARK                            x       y       z     vdW  Elec       q    Type
REMARK                         _______ _______ _______ _____ _____    ______ ____
ROOT
ATOM      1  N   UNL     1       1.074   8.648  19.336  0.00  0.00    +0.000 NA
ATOM      2  N   UNL     1       1.767   7.905  20.069  0.00  0.00    +0.000 NA
ENDROOT
BRANCH   2   3
ATOM      3  C   UNL     1       2.431   6.883  19.344  0.00  0.00    +0.000 A 
ATOM      4  C   UNL     1       2.413   5.591  19.860  0.00  0.00    +0.000 A 
ATOM      5  C   UNL     1       3.056   4.542  19.184  0.00  0.00    +0.000 A 
ATOM      6  C   UNL     1       3.725   4.750  17.953  0.00  0.00    +0.000 A 
ATOM      7  C   UNL     1       4.206   3.721  17.107  0.00  0.00    +0.000 A 
ATOM      8  C   UNL     1       5.007   3.990  15.999  0.00  0.00    +0.000 A 
ATOM      9  C   UNL     1       5.399   5.294  15.746  0.00  0.00    +0.000 A 
ATOM     10  C   UNL     1       4.847   6.329  16.497  0.00  0.00    +0.000 A 
ATOM     11  C   UNL     1       3.920   6.087  17.538  0.00  0.00    +0.000 A 
ATOM     12  C   UNL     1       3.188   7.135  18.171  0.00  0.00    +0.000 A 
BRANCH   5  13
ATOM     13  S   UNL     1       3.228   2.977  20.112  0.00  0.00    +0.000 S 
ATOM     14  O   UNL     1       4.673   2.763  20.122  0.00  0.00    +0.000 OA
ATOM     15  O   UNL     1       2.634   3.328  21.390  0.00  0.00    +0.000 OA
ATOM     16  O   UNL     1       2.487   1.993  19.328  0.00  0.00    +0.000 OA
ENDBRANCH   5  13
BRANCH  12  17
ATOM     17  N   UNL     1       3.323   8.482  17.702  0.00  0.00    +0.000 N 
ATOM     18  H   UNL     1       2.681   9.091  18.201  0.00  0.00    +0.000 HD
ATOM     19  H   UNL     1       4.291   8.769  17.838  0.00  0.00    +0.000 HD
ENDBRANCH  12  17
ENDBRANCH   2   3
BRANCH   1  23
ATOM     20  C   UNL     1      -0.770  11.578  21.716  0.00  0.00    +0.000 A 
ATOM     21  C   UNL     1      -1.021  11.570  20.346  0.00  0.00    +0.000 A 
ATOM     22  C   UNL     1      -0.418  10.599  19.539  0.00  0.00    +0.000 A 
ATOM     23  C   UNL     1       0.420   9.639  20.098  0.00  0.00    +0.000 A 
ATOM     24  C   UNL     1       0.626   9.729  21.472  0.00  0.00    +0.000 A 
ATOM     25  N   UNL     1       0.051  10.661  22.285  0.00  0.00    +0.000 NA
BRANCH  20  29
ATOM     26  C   UNL     1      -2.684  14.361  24.436  0.00  0.00    +0.000 A 
ATOM     27  C   UNL     1      -3.287  13.153  24.094  0.00  0.00    +0.000 A 
ATOM     28  C   UNL     1      -2.648  12.257  23.225  0.00  0.00    +0.000 A 
ATOM     29  C   UNL     1      -1.400  12.543  22.651  0.00  0.00    +0.000 A 
ATOM     30  C   UNL     1      -0.810  13.768  23.003  0.00  0.00    +0.000 A 
ATOM     31  C   UNL     1      -1.439  14.666  23.879  0.00  0.00    +0.000 A 
BRANCH  26  32
ATOM     32  O   UNL     1      -3.203  15.310  25.277  0.00  0.00    +0.000 OA
BRANCH  32  34
ATOM     33  C   UNL     1      -4.988  16.839  24.846  0.00  0.00    +0.000 C 
ATOM     34  C   UNL     1      -3.479  16.609  24.725  0.00  0.00    +0.000 C 
ATOM     35  C   UNL     1      -2.723  17.657  25.534  0.00  0.00    +0.000 C 
ENDBRANCH  32  34
ENDBRANCH  26  32
ENDBRANCH  20  29
ENDBRANCH   1  23
TORSDOF 7
ENDMDL
MODEL 6
REMARK VINA RESULT:      -8.6      0.910      1.551
REMARK  Name = 
REMARK  9 active torsions:
REMARK  status: ('A' for Active; 'I' for Inactive)
REMARK    1  A    between atoms: C_1  and  C_2
REMARK    2  A    between atoms: C_2  and  C_3
REMARK    3  A    between atoms: C_2  and  O_4
REMARK    4  A    between atoms: O_4  and  C_5
REMARK    5  A    between atoms: C_8  and  C_9
REMARK    6  A    between atoms: C_12  and  N_13
REMARK    7  A    between atoms: N_14  and  C_15
REMARK    8  A    between atoms: C_17  and  S_18
REMARK    9  A    between atoms: C_28  and  N_29
REMARK                            x       y       z     vdW  Elec       q    Type
REMARK                         _______ _______ _______ _____ _____    ______ ____
ROOT
ATOM      1  N   UNL     1       0.808   7.738  20.967  0.00  0.00    +0.000 NA
ATOM      2  N   UNL     1       1.603   8.033  20.045  0.00  0.00    +0.000 NA
ENDROOT
BRANCH   2   3
ATOM      3  C   UNL     1       2.215   6.895  19.462  0.00  0.00    +0.000 A 
ATOM      4  C   UNL     1       2.080   5.670  20.106  0.00  0.00    +0.000 A 
ATOM      5  C   UNL     1       2.667   4.512  19.572  0.00  0.00    +0.000 A 
ATOM      6  C   UNL     1       3.397   4.540  18.358  0.00  0.00    +0.000 A 
ATOM      7  C   UNL     1       3.830   3.396  17.646  0.00  0.00    +0.000 A 
ATOM      8  C   UNL     1       4.692   3.488  16.554  0.00  0.00    +0.000 A 
ATOM      9  C   UNL     1       5.192   4.726  16.187  0.00  0.00    +0.000 A 
ATOM     10  C   UNL     1       4.691   5.872  16.801  0.00  0.00    +0.000 A 
ATOM     11  C   UNL     1       3.708   5.808  17.817  0.00  0.00    +0.000 A 
ATOM     12  C   UNL     1       3.033   6.966  18.305  0.00  0.00    +0.000 A 
BRANCH   5  13
ATOM     13  S   UNL     1       2.684   3.046  20.663  0.00  0.00    +0.000 S 
ATOM     14  O   UNL     1       2.311   3.603  21.961  0.00  0.00    +0.000 OA
ATOM     15  O   UNL     1       1.686   2.200  20.031  0.00  0.00    +0.000 OA
ATOM     16  O   UNL     1       4.055   2.548  20.601  0.00  0.00    +0.000 OA
ENDBRANCH   5  13
BRANCH  12  17
ATOM     17  N   UNL     1       3.288   8.243  17.706  0.00  0.00    +0.000 N 
ATOM     18  H   UNL     1       3.050   8.219  16.719  0.00  0.00    +0.000 HD
ATOM     19  H   UNL     1       2.739   8.942  18.205  0.00  0.00    +0.000 HD
ENDBRANCH  12  17
ENDBRANCH   2   3
BRANCH   1  23
ATOM     20  C   UNL     1      -0.960  11.227  22.502  0.00  0.00    +0.000 A 
ATOM     21  C   UNL     1      -0.561  10.230  23.389  0.00  0.00    +0.000 A 
ATOM     22  C   UNL     1       0.033   9.063  22.895  0.00  0.00    +0.000 A 
ATOM     23  C   UNL     1       0.234   8.899  21.529  0.00  0.00    +0.000 A 
ATOM     24  C   UNL     1      -0.207   9.937  20.714  0.00  0.00    +0.000 A 
ATOM     25  N   UNL     1      -0.786  11.087  21.164  0.00  0.00    +0.000 NA
BRANCH  20  29
ATOM     26  C   UNL     1      -2.631  15.013  23.798  0.00  0.00    +0.000 A 
ATOM     27  C   UNL     1      -1.297  14.905  23.410  0.00  0.00    +0.000 A 
ATOM     28  C   UNL     1      -0.776  13.676  22.979  0.00  0.00    +0.000 A 
ATOM     29  C   UNL     1      -1.558  12.511  22.941  0.00  0.00    +0.000 A 
ATOM     30  C   UNL     1      -2.898  12.638  23.343  0.00  0.00    +0.000 A 
ATOM     31  C   UNL     1      -3.429  13.866  23.766  0.00  0.00    +0.000 A 
BRANCH  26  32
ATOM     32  O   UNL     1      -3.253  16.154  24.229  0.00  0.00    +0.000 OA
BRANCH  32  34
ATOM     33  C   UNL     1      -5.305  17.196  24.872  0.00  0.00    +0.000 C 
ATOM     34  C   UNL     1      -4.598  16.390  23.778  0.00  0.00    +0.000 C 
ATOM     35  C   UNL     1      -4.549  17.195  22.483  0.00  0.00    +0.000 C 
ENDBRANCH  32  34
ENDBRANCH  26  32
ENDBRANCH  20  29
ENDBRANCH   1  23
TORSDOF 7
ENDMDL
MODEL 7
REMARK VINA RESULT:      -8.5      1.033      1.530
REMARK  Name = 
REMARK  9 active torsions:
REMARK  status: ('A' for Active; 'I' for Inactive)
REMARK    1  A    between atoms: C_1  and  C_2
REMARK    2  A    between atoms: C_2  and  C_3
REMARK    3  A    between atoms: C_2  and  O_4
REMARK    4  A    between atoms: O_4  and  C_5
REMARK    5  A    between atoms: C_8  and  C_9
REMARK    6  A    between atoms: C_12  and  N_13
REMARK    7  A    between atoms: N_14  and  C_15
REMARK    8  A    between atoms: C_17  and  S_18
REMARK    9  A    between atoms: C_28  and  N_29
REMARK                            x       y       z     vdW  Elec       q    Type
REMARK                         _______ _______ _______ _____ _____    ______ ____
ROOT
ATOM      1  N   UNL     1       0.914   7.765  20.965  0.00  0.00    +0.000 NA
ATOM      2  N   UNL     1       1.632   7.996  19.965  0.00  0.00    +0.000 NA
ENDROOT
BRANCH   2   3
ATOM      3  C   UNL     1       2.240   6.825  19.443  0.00  0.00    +0.000 A 
ATOM      4  C   UNL     1       2.067   5.629  20.132  0.00  0.00    +0.000 A 
ATOM      5  C   UNL     1       2.648   4.442  19.660  0.00  0.00    +0.000 A 
ATOM      6  C   UNL     1       3.409   4.409  18.466  0.00  0.00    +0.000 A 
ATOM      7  C   UNL     1       3.841   3.230  17.811  0.00  0.00    +0.000 A 
ATOM      8  C   UNL     1       4.732   3.265  16.740  0.00  0.00    +0.000 A 
ATOM      9  C   UNL     1       5.262   4.479  16.338  0.00  0.00    +0.000 A 
ATOM     10  C   UNL     1       4.765   5.657  16.892  0.00  0.00    +0.000 A 
ATOM     11  C   UNL     1       3.756   5.650  17.884  0.00  0.00    +0.000 A 
ATOM     12  C   UNL     1       3.089   6.837  18.307  0.00  0.00    +0.000 A 
BRANCH   5  13
ATOM     13  S   UNL     1       2.611   3.020  20.808  0.00  0.00    +0.000 S 
ATOM     14  O   UNL     1       1.591   2.154  20.219  0.00  0.00    +0.000 OA
ATOM     15  O   UNL     1       3.977   2.536  20.718  0.00  0.00    +0.000 OA
ATOM     16  O   UNL     1       2.233   3.589  22.098  0.00  0.00    +0.000 OA
ENDBRANCH   5  13
BRANCH  12  17
ATOM     17  N   UNL     1       3.381   8.085  17.665  0.00  0.00    +0.000 N 
ATOM     18  H   UNL     1       3.094   8.051  16.691  0.00  0.00    +0.000 HD
ATOM     19  H   UNL     1       2.894   8.823  18.172  0.00  0.00    +0.000 HD
ENDBRANCH  12  17
ENDBRANCH   2   3
BRANCH   1  23
ATOM     20  C   UNL     1      -0.821  11.353  22.295  0.00  0.00    +0.000 A 
ATOM     21  C   UNL     1      -0.648  10.313  23.205  0.00  0.00    +0.000 A 
ATOM     22  C   UNL     1      -0.068   9.113  22.780  0.00  0.00    +0.000 A 
ATOM     23  C   UNL     1       0.343   8.957  21.460  0.00  0.00    +0.000 A 
ATOM     24  C   UNL     1       0.119  10.041  20.616  0.00  0.00    +0.000 A 
ATOM     25  N   UNL     1      -0.441  11.224  21.000  0.00  0.00    +0.000 NA
BRANCH  20  29
ATOM     26  C   UNL     1      -2.397  15.242  23.391  0.00  0.00    +0.000 A 
ATOM     27  C   UNL     1      -1.102  15.098  22.901  0.00  0.00    +0.000 A 
ATOM     28  C   UNL     1      -0.612  13.835  22.536  0.00  0.00    +0.000 A 
ATOM     29  C   UNL     1      -1.387  12.672  22.669  0.00  0.00    +0.000 A 
ATOM     30  C   UNL     1      -2.688  12.836  23.172  0.00  0.00    +0.000 A 
ATOM     31  C   UNL     1      -3.188  14.098  23.529  0.00  0.00    +0.000 A 
BRANCH  26  32
ATOM     32  O   UNL     1      -2.988  16.418  23.772  0.00  0.00    +0.000 OA
BRANCH  32  34
ATOM     33  C   UNL     1      -1.951  17.079  25.820  0.00  0.00    +0.000 C 
ATOM     34  C   UNL     1      -3.255  16.606  25.172  0.00  0.00    +0.000 C 
ATOM     35  C   UNL     1      -4.334  17.672  25.328  0.00  0.00    +0.000 C 
ENDBRANCH  32  34
ENDBRANCH  26  32
ENDBRANCH  20  29
ENDBRANCH   1  23
TORSDOF 7
ENDMDL
MODEL 8
REMARK VINA RESULT:      -8.4      0.816      1.231
REMARK  Name = 
REMARK  9 active torsions:
REMARK  status: ('A' for Active; 'I' for Inactive)
REMARK    1  A    between atoms: C_1  and  C_2
REMARK    2  A    between atoms: C_2  and  C_3
REMARK    3  A    between atoms: C_2  and  O_4
REMARK    4  A    between atoms: O_4  and  C_5
REMARK    5  A    between atoms: C_8  and  C_9
REMARK    6  A    between atoms: C_12  and  N_13
REMARK    7  A    between atoms: N_14  and  C_15
REMARK    8  A    between atoms: C_17  and  S_18
REMARK    9  A    between atoms: C_28  and  N_29
REMARK                            x       y       z     vdW  Elec       q    Type
REMARK                         _______ _______ _______ _____ _____    ______ ____
ROOT
ATOM      1  N   UNL     1       1.376   8.362  19.268  0.00  0.00    +0.000 NA
ATOM      2  N   UNL     1       2.067   7.582  19.962  0.00  0.00    +0.000 NA
ENDROOT
BRANCH   2   3
ATOM      3  C   UNL     1       2.743   6.607  19.185  0.00  0.00    +0.000 A 
ATOM      4  C   UNL     1       2.772   5.297  19.650  0.00  0.00    +0.000 A 
ATOM      5  C   UNL     1       3.428   4.293  18.920  0.00  0.00    +0.000 A 
ATOM      6  C   UNL     1       4.064   4.567  17.684  0.00  0.00    +0.000 A 
ATOM      7  C   UNL     1       4.554   3.585  16.789  0.00  0.00    +0.000 A 
ATOM      8  C   UNL     1       5.323   3.919  15.675  0.00  0.00    +0.000 A 
ATOM      9  C   UNL     1       5.674   5.242  15.466  0.00  0.00    +0.000 A 
ATOM     10  C   UNL     1       5.110   6.232  16.268  0.00  0.00    +0.000 A 
ATOM     11  C   UNL     1       4.213   5.924  17.318  0.00  0.00    +0.000 A 
ATOM     12  C   UNL     1       3.466   6.925  18.006  0.00  0.00    +0.000 A 
BRANCH   5  13
ATOM     13  S   UNL     1       3.663   2.699  19.782  0.00  0.00    +0.000 S 
ATOM     14  O   UNL     1       5.106   2.662  20.010  0.00  0.00    +0.000 OA
ATOM     15  O   UNL     1       2.843   2.884  20.967  0.00  0.00    +0.000 OA
ATOM     16  O   UNL     1       3.184   1.689  18.842  0.00  0.00    +0.000 OA
ENDBRANCH   5  13
BRANCH  12  17
ATOM     17  N   UNL     1       3.554   8.292  17.587  0.00  0.00    +0.000 N 
ATOM     18  H   UNL     1       4.242   8.386  16.846  0.00  0.00    +0.000 HD
ATOM     19  H   UNL     1       2.629   8.588  17.277  0.00  0.00    +0.000 HD
ENDBRANCH  12  17
ENDBRANCH   2   3
BRANCH   1  23
ATOM     20  C   UNL     1      -0.679  11.217  21.567  0.00  0.00    +0.000 A 
ATOM     21  C   UNL     1      -0.096  10.128  22.211  0.00  0.00    +0.000 A 
ATOM     22  C   UNL     1       0.595   9.170  21.461  0.00  0.00    +0.000 A 
ATOM     23  C   UNL     1       0.710   9.304  20.081  0.00  0.00    +0.000 A 
ATOM     24  C   UNL     1       0.086  10.413  19.518  0.00  0.00    +0.000 A 
ATOM     25  N   UNL     1      -0.592  11.365  20.221  0.00  0.00    +0.000 NA
BRANCH  20  29
ATOM     26  C   UNL     1      -2.824  14.329  23.691  0.00  0.00    +0.000 A 
ATOM     27  C   UNL     1      -3.112  12.982  23.897  0.00  0.00    +0.000 A 
ATOM     28  C   UNL     1      -2.399  11.987  23.213  0.00  0.00    +0.000 A 
ATOM     29  C   UNL     1      -1.392  12.300  22.287  0.00  0.00    +0.000 A 
ATOM     30  C   UNL     1      -1.121  13.663  22.087  0.00  0.00    +0.000 A 
ATOM     31  C   UNL     1      -1.824  14.665  22.775  0.00  0.00    +0.000 A 
BRANCH  26  32
ATOM     32  O   UNL     1      -3.445  15.387  24.303  0.00  0.00    +0.000 OA
BRANCH  32  34
ATOM     33  C   UNL     1      -3.537  17.539  25.336  0.00  0.00    +0.000 C 
ATOM     34  C   UNL     1      -2.610  16.417  24.859  0.00  0.00    +0.000 C 
ATOM     35  C   UNL     1      -1.836  15.839  26.039  0.00  0.00    +0.000 C 
ENDBRANCH  32  34
ENDBRANCH  26  32
ENDBRANCH  20  29
ENDBRANCH   1  23
TORSDOF 7
ENDMDL
MODEL 9
REMARK VINA RESULT:      -8.3      3.007     11.890
REMARK  Name = 
REMARK  9 active torsions:
REMARK  status: ('A' for Active; 'I' for Inactive)
REMARK    1  A    between atoms: C_1  and  C_2
REMARK    2  A    between atoms: C_2  and  C_3
REMARK    3  A    between atoms: C_2  and  O_4
REMARK    4  A    between atoms: O_4  and  C_5
REMARK    5  A    between atoms: C_8  and  C_9
REMARK    6  A    between atoms: C_12  and  N_13
REMARK    7  A    between atoms: N_14  and  C_15
REMARK    8  A    between atoms: C_17  and  S_18
REMARK    9  A    between atoms: C_28  and  N_29
REMARK                            x       y       z     vdW  Elec       q    Type
REMARK                         _______ _______ _______ _____ _____    ______ ____
ROOT
ATOM      1  N   UNL     1      -0.295  10.765  21.869  0.00  0.00    +0.000 NA
ATOM      2  N   UNL     1      -0.195  11.956  21.497  0.00  0.00    +0.000 NA
ENDROOT
BRANCH   2   3
ATOM      3  C   UNL     1      -0.919  12.853  22.324  0.00  0.00    +0.000 A 
ATOM      4  C   UNL     1      -2.192  12.481  22.744  0.00  0.00    +0.000 A 
ATOM      5  C   UNL     1      -2.952  13.332  23.562  0.00  0.00    +0.000 A 
ATOM      6  C   UNL     1      -2.452  14.581  24.005  0.00  0.00    +0.000 A 
ATOM      7  C   UNL     1      -3.057  15.392  24.996  0.00  0.00    +0.000 A 
ATOM      8  C   UNL     1      -2.614  16.686  25.262  0.00  0.00    +0.000 A 
ATOM      9  C   UNL     1      -1.593  17.224  24.498  0.00  0.00    +0.000 A 
ATOM     10  C   UNL     1      -0.911  16.406  23.598  0.00  0.00    +0.000 A 
ATOM     11  C   UNL     1      -1.255  15.046  23.415  0.00  0.00    +0.000 A 
ATOM     12  C   UNL     1      -0.443  14.145  22.664  0.00  0.00    +0.000 A 
BRANCH   5  13
ATOM     13  S   UNL     1      -4.708  12.874  23.782  0.00  0.00    +0.000 S 
ATOM     14  O   UNL     1      -5.020  12.177  22.535  0.00  0.00    +0.000 OA
ATOM     15  O   UNL     1      -4.646  12.041  24.970  0.00  0.00    +0.000 OA
ATOM     16  O   UNL     1      -5.410  14.144  23.944  0.00  0.00    +0.000 OA
ENDBRANCH   5  13
BRANCH  12  17
ATOM     17  N   UNL     1       0.810  14.592  22.131  0.00  0.00    +0.000 N 
ATOM     18  H   UNL     1       0.653  15.302  21.422  0.00  0.00    +0.000 HD
ATOM     19  H   UNL     1       1.371  14.952  22.901  0.00  0.00    +0.000 HD
ENDBRANCH  12  17
ENDBRANCH   2   3
BRANCH   1  23
ATOM     20  C   UNL     1       1.828   8.098  19.413  0.00  0.00    +0.000 A 
ATOM     21  C   UNL     1       1.362   9.290  18.864  0.00  0.00    +0.000 A 
ATOM     22  C   UNL     1       0.656  10.192  19.669  0.00  0.00    +0.000 A 
ATOM     23  C   UNL     1       0.427   9.907  21.012  0.00  0.00    +0.000 A 
ATOM     24  C   UNL     1       0.915   8.688  21.473  0.00  0.00    +0.000 A 
ATOM     25  N   UNL     1       1.608   7.791  20.716  0.00  0.00    +0.000 NA
BRANCH  20  29
ATOM     26  C   UNL     1       4.127   5.143  17.225  0.00  0.00    +0.000 A 
ATOM     27  C   UNL     1       3.195   4.766  18.188  0.00  0.00    +0.000 A 
ATOM     28  C   UNL     1       2.448   5.734  18.876  0.00  0.00    +0.000 A 
ATOM     29  C   UNL     1       2.621   7.107  18.645  0.00  0.00    +0.000 A 
ATOM     30  C   UNL     1       3.571   7.468  17.675  0.00  0.00    +0.000 A 
ATOM     31  C   UNL     1       4.314   6.505  16.975  0.00  0.00    +0.000 A 
BRANCH  26  32
ATOM     32  O   UNL     1       4.908   4.294  16.485  0.00  0.00    +0.000 OA
BRANCH  32  34
ATOM     33  C   UNL     1       7.267   4.498  16.801  0.00  0.00    +0.000 C 
ATOM     34  C   UNL     1       6.093   4.837  15.879  0.00  0.00    +0.000 C 
ATOM     35  C   UNL     1       6.291   4.184  14.515  0.00  0.00    +0.000 C 
ENDBRANCH  32  34
ENDBRANCH  26  32
ENDBRANCH  20  29
ENDBRANCH   1  23
TORSDOF 7
ENDMDL
