MODEL 1
REMARK VINA RESULT:      -7.5      0.000      0.000
REMARK  Name = 
REMARK  5 active torsions:
REMARK  status: ('A' for Active; 'I' for Inactive)
REMARK    1  A    between atoms: C_1  and  C_2
REMARK    2  A    between atoms: C_2  and  C_3
REMARK    3  A    between atoms: C_2  and  N_4
REMARK    4  A    between atoms: C_5  and  C_7
REMARK    5  A    between atoms: C_12  and  C_13
REMARK                            x       y       z     vdW  Elec       q    Type
REMARK                         _______ _______ _______ _____ _____    ______ ____
ROOT
ATOM      1  C   UNL     1       3.374   5.086  17.485  0.00  0.00    +0.000 A 
ATOM      2  C   UNL     1       4.323   4.255  16.844  0.00  0.00    +0.000 A 
ATOM      3  C   UNL     1       5.571   4.743  16.462  0.00  0.00    +0.000 A 
ATOM      4  C   UNL     1       5.890   6.071  16.710  0.00  0.00    +0.000 A 
ATOM      5  C   UNL     1       4.943   6.913  17.313  0.00  0.00    +0.000 A 
ATOM      6  C   UNL     1       3.669   6.457  17.722  0.00  0.00    +0.000 A 
ENDROOT
BRANCH   6   7
ATOM      7  C   UNL     1       2.741   7.434  18.365  0.00  0.00    +0.000 A 
ATOM      8  C   UNL     1       2.339   7.326  19.704  0.00  0.00    +0.000 A 
ATOM      9  C   UNL     1       1.519   8.286  20.309  0.00  0.00    +0.000 A 
ATOM     10  C   UNL     1       1.032   9.356  19.565  0.00  0.00    +0.000 A 
ATOM     11  C   UNL     1       1.360   9.462  18.222  0.00  0.00    +0.000 A 
ATOM     12  C   UNL     1       2.213   8.522  17.634  0.00  0.00    +0.000 A 
ENDBRANCH   6   7
BRANCH   1  14
ATOM     13  N   UNL     1       2.200   3.873  19.266  0.00  0.00    +0.000 N 
ATOM     14  C   UNL     1       2.139   4.411  17.993  0.00  0.00    +0.000 C 
ATOM     15  O   UNL     1       1.117   4.395  17.319  0.00  0.00    +0.000 OA
ATOM     16  H   UNL     1       3.096   3.810  19.735  0.00  0.00    +0.000 HD
BRANCH  13  18
ATOM     17  C   UNL     1       0.829   1.857  19.037  0.00  0.00    +0.000 C 
ATOM     18  C   UNL     1       1.074   3.135  19.836  0.00  0.00    +0.000 C 
ATOM     19  C   UNL     1       1.325   2.823  21.311  0.00  0.00    +0.000 C 
ENDBRANCH  13  18
ENDBRANCH   1  14
TORSDOF 3
ENDMDL
MODEL 2
REMARK VINA RESULT:      -7.5      0.108      1.134
REMARK  Name = 
REMARK  5 active torsions:
REMARK  status: ('A' for Active; 'I' for Inactive)
REMARK    1  A    between atoms: C_1  and  C_2
REMARK    2  A    between atoms: C_2  and  C_3
REMARK    3  A    between atoms: C_2  and  N_4
REMARK    4  A    between atoms: C_5  and  C_7
REMARK    5  A    between atoms: C_12  and  C_13
REMARK                            x       y       z     vdW  Elec       q    Type
REMARK                         _______ _______ _______ _____ _____    ______ ____
ROOT
ATOM      1  C   UNL     1       3.373   5.017  17.454  0.00  0.00    +0.000 A 
ATOM      2  C   UNL     1       4.289   4.159  16.801  0.00  0.00    +0.000 A 
ATOM      3  C   UNL     1       5.541   4.613  16.392  0.00  0.00    +0.000 A 
ATOM      4  C   UNL     1       5.897   5.935  16.625  0.00  0.00    +0.000 A 
ATOM      5  C   UNL     1       4.983   6.803  17.240  0.00  0.00    +0.000 A 
ATOM      6  C   UNL     1       3.706   6.381  17.677  0.00  0.00    +0.000 A 
ENDROOT
BRANCH   6   7
ATOM      7  C   UNL     1       2.814   7.384  18.331  0.00  0.00    +0.000 A 
ATOM      8  C   UNL     1       2.341   8.522  17.665  0.00  0.00    +0.000 A 
ATOM      9  C   UNL     1       1.455   9.420  18.273  0.00  0.00    +0.000 A 
ATOM     10  C   UNL     1       1.064   9.227  19.594  0.00  0.00    +0.000 A 
ATOM     11  C   UNL     1       1.560   8.145  20.304  0.00  0.00    +0.000 A 
ATOM     12  C   UNL     1       2.413   7.228  19.677  0.00  0.00    +0.000 A 
ENDBRANCH   6   7
BRANCH   1  14
ATOM     13  N   UNL     1       2.214   3.815  19.253  0.00  0.00    +0.000 N 
ATOM     14  C   UNL     1       2.132   4.374  17.990  0.00  0.00    +0.000 C 
ATOM     15  O   UNL     1       1.090   4.402  17.347  0.00  0.00    +0.000 OA
ATOM     16  H   UNL     1       3.120   3.715  19.693  0.00  0.00    +0.000 HD
BRANCH  13  18
ATOM     17  C   UNL     1       0.845   1.789  19.110  0.00  0.00    +0.000 C 
ATOM     18  C   UNL     1       1.082   3.106  19.846  0.00  0.00    +0.000 C 
ATOM     19  C   UNL     1       1.316   2.869  21.338  0.00  0.00    +0.000 C 
ENDBRANCH  13  18
ENDBRANCH   1  14
TORSDOF 3
ENDMDL
MODEL 3
REMARK VINA RESULT:      -7.3      1.866      4.338
REMARK  Name = 
REMARK  5 active torsions:
REMARK  status: ('A' for Active; 'I' for Inactive)
REMARK    1  A    between atoms: C_1  and  C_2
REMARK    2  A    between atoms: C_2  and  C_3
REMARK    3  A    between atoms: C_2  and  N_4
REMARK    4  A    between atoms: C_5  and  C_7
REMARK    5  A    between atoms: C_12  and  C_13
REMARK                            x       y       z     vdW  Elec       q    Type
REMARK                         _______ _______ _______ _____ _____    ______ ____
ROOT
ATOM      1  C   UNL     1       3.482   4.377  19.699  0.00  0.00    +0.000 A 
ATOM      2  C   UNL     1       3.570   3.044  20.165  0.00  0.00    +0.000 A 
ATOM      3  C   UNL     1       2.510   2.441  20.837  0.00  0.00    +0.000 A 
ATOM      4  C   UNL     1       1.343   3.161  21.057  0.00  0.00    +0.000 A 
ATOM      5  C   UNL     1       1.258   4.494  20.630  0.00  0.00    +0.000 A 
ATOM      6  C   UNL     1       2.308   5.142  19.939  0.00  0.00    +0.000 A 
ENDROOT
BRANCH   6   7
ATOM      7  C   UNL     1       2.109   6.560  19.519  0.00  0.00    +0.000 A 
ATOM      8  C   UNL     1       2.363   7.005  18.214  0.00  0.00    +0.000 A 
ATOM      9  C   UNL     1       2.110   8.324  17.821  0.00  0.00    +0.000 A 
ATOM     10  C   UNL     1       1.647   9.253  18.747  0.00  0.00    +0.000 A 
ATOM     11  C   UNL     1       1.441   8.863  20.062  0.00  0.00    +0.000 A 
ATOM     12  C   UNL     1       1.656   7.532  20.440  0.00  0.00    +0.000 A 
ENDBRANCH   6   7
BRANCH   1  14
ATOM     13  N   UNL     1       4.560   4.562  17.502  0.00  0.00    +0.000 N 
ATOM     14  C   UNL     1       4.618   4.859  18.852  0.00  0.00    +0.000 C 
ATOM     15  O   UNL     1       5.519   5.529  19.342  0.00  0.00    +0.000 OA
ATOM     16  H   UNL     1       3.861   3.911  17.168  0.00  0.00    +0.000 HD
BRANCH  13  18
ATOM     17  C   UNL     1       5.913   3.790  15.611  0.00  0.00    +0.000 C 
ATOM     18  C   UNL     1       5.647   4.927  16.596  0.00  0.00    +0.000 C 
ATOM     19  C   UNL     1       5.321   6.227  15.860  0.00  0.00    +0.000 C 
ENDBRANCH  13  18
ENDBRANCH   1  14
TORSDOF 3
ENDMDL
MODEL 4
REMARK VINA RESULT:      -7.2      3.191      5.638
REMARK  Name = 
REMARK  5 active torsions:
REMARK  status: ('A' for Active; 'I' for Inactive)
REMARK    1  A    between atoms: C_1  and  C_2
REMARK    2  A    between atoms: C_2  and  C_3
REMARK    3  A    between atoms: C_2  and  N_4
REMARK    4  A    between atoms: C_5  and  C_7
REMARK    5  A    between atoms: C_12  and  C_13
REMARK                            x       y       z     vdW  Elec       q    Type
REMARK                         _______ _______ _______ _____ _____    ______ ____
ROOT
ATOM      1  C   UNL     1       6.397   5.934  17.107  0.00  0.00    +0.000 A 
ATOM      2  C   UNL     1       7.630   6.543  17.440  0.00  0.00    +0.000 A 
ATOM      3  C   UNL     1       8.127   6.509  18.740  0.00  0.00    +0.000 A 
ATOM      4  C   UNL     1       7.398   5.868  19.733  0.00  0.00    +0.000 A 
ATOM      5  C   UNL     1       6.158   5.292  19.423  0.00  0.00    +0.000 A 
ATOM      6  C   UNL     1       5.621   5.298  18.114  0.00  0.00    +0.000 A 
ENDROOT
BRANCH   6   7
ATOM      7  C   UNL     1       4.297   4.645  17.890  0.00  0.00    +0.000 A 
ATOM      8  C   UNL     1       4.170   3.286  17.569  0.00  0.00    +0.000 A 
ATOM      9  C   UNL     1       2.918   2.675  17.425  0.00  0.00    +0.000 A 
ATOM     10  C   UNL     1       1.755   3.430  17.543  0.00  0.00    +0.000 A 
ATOM     11  C   UNL     1       1.845   4.789  17.800  0.00  0.00    +0.000 A 
ATOM     12  C   UNL     1       3.098   5.386  17.984  0.00  0.00    +0.000 A 
ENDBRANCH   6   7
BRANCH   1  14
ATOM     13  N   UNL     1       6.758   5.005  14.865  0.00  0.00    +0.000 N 
ATOM     14  C   UNL     1       6.050   5.894  15.653  0.00  0.00    +0.000 C 
ATOM     15  O   UNL     1       5.140   6.586  15.211  0.00  0.00    +0.000 OA
ATOM     16  H   UNL     1       7.573   4.543  15.249  0.00  0.00    +0.000 HD
BRANCH  13  18
ATOM     17  C   UNL     1       7.843   5.250  12.683  0.00  0.00    +0.000 C 
ATOM     18  C   UNL     1       6.545   4.930  13.421  0.00  0.00    +0.000 C 
ATOM     19  C   UNL     1       6.012   3.553  13.025  0.00  0.00    +0.000 C 
ENDBRANCH  13  18
ENDBRANCH   1  14
TORSDOF 3
ENDMDL
MODEL 5
REMARK VINA RESULT:      -7.1      2.011      4.457
REMARK  Name = 
REMARK  5 active torsions:
REMARK  status: ('A' for Active; 'I' for Inactive)
REMARK    1  A    between atoms: C_1  and  C_2
REMARK    2  A    between atoms: C_2  and  C_3
REMARK    3  A    between atoms: C_2  and  N_4
REMARK    4  A    between atoms: C_5  and  C_7
REMARK    5  A    between atoms: C_12  and  C_13
REMARK                            x       y       z     vdW  Elec       q    Type
REMARK                         _______ _______ _______ _____ _____    ______ ____
ROOT
ATOM      1  C   UNL     1       3.697   3.694  18.734  0.00  0.00    +0.000 A 
ATOM      2  C   UNL     1       3.721   2.281  18.662  0.00  0.00    +0.000 A 
ATOM      3  C   UNL     1       2.545   1.535  18.680  0.00  0.00    +0.000 A 
ATOM      4  C   UNL     1       1.323   2.189  18.774  0.00  0.00    +0.000 A 
ATOM      5  C   UNL     1       1.289   3.587  18.881  0.00  0.00    +0.000 A 
ATOM      6  C   UNL     1       2.459   4.381  18.859  0.00  0.00    +0.000 A 
ENDROOT
BRANCH   6   7
ATOM      7  C   UNL     1       2.310   5.863  18.968  0.00  0.00    +0.000 A 
ATOM      8  C   UNL     1       2.511   6.725  17.881  0.00  0.00    +0.000 A 
ATOM      9  C   UNL     1       2.305   8.105  17.984  0.00  0.00    +0.000 A 
ATOM     10  C   UNL     1       1.944   8.668  19.204  0.00  0.00    +0.000 A 
ATOM     11  C   UNL     1       1.795   7.853  20.316  0.00  0.00    +0.000 A 
ATOM     12  C   UNL     1       1.963   6.468  20.197  0.00  0.00    +0.000 A 
ENDBRANCH   6   7
BRANCH   1  14
ATOM     13  N   UNL     1       5.338   4.752  17.247  0.00  0.00    +0.000 N 
ATOM     14  C   UNL     1       5.008   4.389  18.540  0.00  0.00    +0.000 C 
ATOM     15  O   UNL     1       5.715   4.662  19.503  0.00  0.00    +0.000 OA
ATOM     16  H   UNL     1       4.780   4.404  16.477  0.00  0.00    +0.000 HD
BRANCH  13  18
ATOM     17  C   UNL     1       7.025   5.058  15.497  0.00  0.00    +0.000 C 
ATOM     18  C   UNL     1       6.622   5.377  16.936  0.00  0.00    +0.000 C 
ATOM     19  C   UNL     1       6.557   6.886  17.167  0.00  0.00    +0.000 C 
ENDBRANCH  13  18
ENDBRANCH   1  14
TORSDOF 3
ENDMDL
MODEL 6
REMARK VINA RESULT:      -7.1      1.751      4.857
REMARK  Name = 
REMARK  5 active torsions:
REMARK  status: ('A' for Active; 'I' for Inactive)
REMARK    1  A    between atoms: C_1  and  C_2
REMARK    2  A    between atoms: C_2  and  C_3
REMARK    3  A    between atoms: C_2  and  N_4
REMARK    4  A    between atoms: C_5  and  C_7
REMARK    5  A    between atoms: C_12  and  C_13
REMARK                            x       y       z     vdW  Elec       q    Type
REMARK                         _______ _______ _______ _____ _____    ______ ____
ROOT
ATOM      1  C   UNL     1       3.640   6.428  17.727  0.00  0.00    +0.000 A 
ATOM      2  C   UNL     1       4.502   6.974  16.747  0.00  0.00    +0.000 A 
ATOM      3  C   UNL     1       5.255   6.156  15.908  0.00  0.00    +0.000 A 
ATOM      4  C   UNL     1       5.161   4.776  16.037  0.00  0.00    +0.000 A 
ATOM      5  C   UNL     1       4.336   4.224  17.028  0.00  0.00    +0.000 A 
ATOM      6  C   UNL     1       3.550   5.019  17.894  0.00  0.00    +0.000 A 
ENDROOT
BRANCH   6   7
ATOM      7  C   UNL     1       2.697   4.329  18.907  0.00  0.00    +0.000 A 
ATOM      8  C   UNL     1       1.423   3.827  18.605  0.00  0.00    +0.000 A 
ATOM      9  C   UNL     1       0.662   3.127  19.549  0.00  0.00    +0.000 A 
ATOM     10  C   UNL     1       1.139   2.961  20.845  0.00  0.00    +0.000 A 
ATOM     11  C   UNL     1       2.369   3.497  21.196  0.00  0.00    +0.000 A 
ATOM     12  C   UNL     1       3.143   4.160  20.237  0.00  0.00    +0.000 A 
ENDBRANCH   6   7
BRANCH   1  14
ATOM     13  N   UNL     1       2.300   8.484  17.730  0.00  0.00    +0.000 N 
ATOM     14  C   UNL     1       2.763   7.400  18.453  0.00  0.00    +0.000 C 
ATOM     15  O   UNL     1       2.440   7.196  19.617  0.00  0.00    +0.000 OA
ATOM     16  H   UNL     1       2.686   8.669  16.812  0.00  0.00    +0.000 HD
BRANCH  13  18
ATOM     17  C   UNL     1       2.123  10.897  18.115  0.00  0.00    +0.000 C 
ATOM     18  C   UNL     1       1.491   9.528  18.357  0.00  0.00    +0.000 C 
ATOM     19  C   UNL     1       0.055   9.484  17.834  0.00  0.00    +0.000 C 
ENDBRANCH  13  18
ENDBRANCH   1  14
TORSDOF 3
ENDMDL
MODEL 7
REMARK VINA RESULT:      -7.1      1.871      4.246
REMARK  Name = 
REMARK  5 active torsions:
REMARK  status: ('A' for Active; 'I' for Inactive)
REMARK    1  A    between atoms: C_1  and  C_2
REMARK    2  A    between atoms: C_2  and  C_3
REMARK    3  A    between atoms: C_2  and  N_4
REMARK    4  A    between atoms: C_5  and  C_7
REMARK    5  A    between atoms: C_12  and  C_13
REMARK                            x       y       z     vdW  Elec       q    Type
REMARK                         _______ _______ _______ _____ _____    ______ ____
ROOT
ATOM      1  C   UNL     1       3.487   4.373  19.707  0.00  0.00    +0.000 A 
ATOM      2  C   UNL     1       3.590   3.041  20.175  0.00  0.00    +0.000 A 
ATOM      3  C   UNL     1       2.535   2.426  20.845  0.00  0.00    +0.000 A 
ATOM      4  C   UNL     1       1.360   3.134  21.062  0.00  0.00    +0.000 A 
ATOM      5  C   UNL     1       1.260   4.465  20.634  0.00  0.00    +0.000 A 
ATOM      6  C   UNL     1       2.304   5.124  19.944  0.00  0.00    +0.000 A 
ENDROOT
BRANCH   6   7
ATOM      7  C   UNL     1       2.089   6.540  19.522  0.00  0.00    +0.000 A 
ATOM      8  C   UNL     1       1.650   7.534  20.407  0.00  0.00    +0.000 A 
ATOM      9  C   UNL     1       1.514   8.870  20.010  0.00  0.00    +0.000 A 
ATOM     10  C   UNL     1       1.762   9.234  18.690  0.00  0.00    +0.000 A 
ATOM     11  C   UNL     1       2.139   8.266  17.772  0.00  0.00    +0.000 A 
ATOM     12  C   UNL     1       2.313   6.939  18.185  0.00  0.00    +0.000 A 
ENDBRANCH   6   7
BRANCH   1  14
ATOM     13  N   UNL     1       4.558   4.583  17.509  0.00  0.00    +0.000 N 
ATOM     14  C   UNL     1       4.619   4.866  18.862  0.00  0.00    +0.000 C 
ATOM     15  O   UNL     1       5.519   5.534  19.356  0.00  0.00    +0.000 OA
ATOM     16  H   UNL     1       3.859   3.934  17.170  0.00  0.00    +0.000 HD
BRANCH  13  18
ATOM     17  C   UNL     1       5.931   3.820  15.630  0.00  0.00    +0.000 C 
ATOM     18  C   UNL     1       5.640   4.961  16.603  0.00  0.00    +0.000 C 
ATOM     19  C   UNL     1       5.292   6.248  15.854  0.00  0.00    +0.000 C 
ENDBRANCH  13  18
ENDBRANCH   1  14
TORSDOF 3
ENDMDL
MODEL 8
REMARK VINA RESULT:      -7.1      1.941      4.493
REMARK  Name = 
REMARK  5 active torsions:
REMARK  status: ('A' for Active; 'I' for Inactive)
REMARK    1  A    between atoms: C_1  and  C_2
REMARK    2  A    between atoms: C_2  and  C_3
REMARK    3  A    between atoms: C_2  and  N_4
REMARK    4  A    between atoms: C_5  and  C_7
REMARK    5  A    between atoms: C_12  and  C_13
REMARK                            x       y       z     vdW  Elec       q    Type
REMARK                         _______ _______ _______ _____ _____    ______ ____
ROOT
ATOM      1  C   UNL     1       3.519   4.086  19.709  0.00  0.00    +0.000 A 
ATOM      2  C   UNL     1       3.561   2.801  20.299  0.00  0.00    +0.000 A 
ATOM      3  C   UNL     1       2.523   2.340  21.105  0.00  0.00    +0.000 A 
ATOM      4  C   UNL     1       1.426   3.158  21.339  0.00  0.00    +0.000 A 
ATOM      5  C   UNL     1       1.390   4.447  20.789  0.00  0.00    +0.000 A 
ATOM      6  C   UNL     1       2.419   4.951  19.959  0.00  0.00    +0.000 A 
ENDROOT
BRANCH   6   7
ATOM      7  C   UNL     1       2.275   6.334  19.414  0.00  0.00    +0.000 A 
ATOM      8  C   UNL     1       2.535   6.649  18.074  0.00  0.00    +0.000 A 
ATOM      9  C   UNL     1       2.334   7.937  17.565  0.00  0.00    +0.000 A 
ATOM     10  C   UNL     1       1.919   8.963  18.408  0.00  0.00    +0.000 A 
ATOM     11  C   UNL     1       1.711   8.702  19.753  0.00  0.00    +0.000 A 
ATOM     12  C   UNL     1       1.874   7.402  20.247  0.00  0.00    +0.000 A 
ENDBRANCH   6   7
BRANCH   1  14
ATOM     13  N   UNL     1       5.609   5.254  19.171  0.00  0.00    +0.000 N 
ATOM     14  C   UNL     1       4.610   4.403  18.735  0.00  0.00    +0.000 C 
ATOM     15  O   UNL     1       4.626   3.881  17.627  0.00  0.00    +0.000 OA
ATOM     16  H   UNL     1       5.492   5.748  20.047  0.00  0.00    +0.000 HD
BRANCH  13  18
ATOM     17  C   UNL     1       6.235   6.881  17.451  0.00  0.00    +0.000 C 
ATOM     18  C   UNL     1       6.687   5.682  18.282  0.00  0.00    +0.000 C 
ATOM     19  C   UNL     1       7.948   6.010  19.081  0.00  0.00    +0.000 C 
ENDBRANCH  13  18
ENDBRANCH   1  14
TORSDOF 3
ENDMDL
MODEL 9
REMARK VINA RESULT:      -7.1      1.737      4.757
REMARK  Name = 
REMARK  5 active torsions:
REMARK  status: ('A' for Active; 'I' for Inactive)
REMARK    1  A    between atoms: C_1  and  C_2
REMARK    2  A    between atoms: C_2  and  C_3
REMARK    3  A    between atoms: C_2  and  N_4
REMARK    4  A    between atoms: C_5  and  C_7
REMARK    5  A    between atoms: C_12  and  C_13
REMARK                            x       y       z     vdW  Elec       q    Type
REMARK                         _______ _______ _______ _____ _____    ______ ____
ROOT
ATOM      1  C   UNL     1       3.693   6.320  17.673  0.00  0.00    +0.000 A 
ATOM      2  C   UNL     1       4.539   6.866  16.679  0.00  0.00    +0.000 A 
ATOM      3  C   UNL     1       5.266   6.047  15.818  0.00  0.00    +0.000 A 
ATOM      4  C   UNL     1       5.163   4.667  15.939  0.00  0.00    +0.000 A 
ATOM      5  C   UNL     1       4.355   4.116  16.944  0.00  0.00    +0.000 A 
ATOM      6  C   UNL     1       3.595   4.911  17.833  0.00  0.00    +0.000 A 
ENDROOT
BRANCH   6   7
ATOM      7  C   UNL     1       2.758   4.221  18.859  0.00  0.00    +0.000 A 
ATOM      8  C   UNL     1       3.247   3.878  20.127  0.00  0.00    +0.000 A 
ATOM      9  C   UNL     1       2.431   3.288  21.099  0.00  0.00    +0.000 A 
ATOM     10  C   UNL     1       1.108   2.973  20.803  0.00  0.00    +0.000 A 
ATOM     11  C   UNL     1       0.608   3.243  19.538  0.00  0.00    +0.000 A 
ATOM     12  C   UNL     1       1.417   3.870  18.584  0.00  0.00    +0.000 A 
ENDBRANCH   6   7
BRANCH   1  14
ATOM     13  N   UNL     1       2.319   8.353  17.705  0.00  0.00    +0.000 N 
ATOM     14  C   UNL     1       2.841   7.294  18.425  0.00  0.00    +0.000 C 
ATOM     15  O   UNL     1       2.586   7.112  19.609  0.00  0.00    +0.000 OA
ATOM     16  H   UNL     1       2.650   8.523  16.763  0.00  0.00    +0.000 HD
BRANCH  13  18
ATOM     17  C   UNL     1       2.178  10.761  18.130  0.00  0.00    +0.000 C 
ATOM     18  C   UNL     1       1.527   9.397  18.353  0.00  0.00    +0.000 C 
ATOM     19  C   UNL     1       0.089   9.382  17.835  0.00  0.00    +0.000 C 
ENDBRANCH  13  18
ENDBRANCH   1  14
TORSDOF 3
ENDMDL
