MODEL 1
REMARK VINA RESULT:      -7.0      0.000      0.000
REMARK  Name = 
REMARK  5 active torsions:
REMARK  status: ('A' for Active; 'I' for Inactive)
REMARK    1  A    between atoms: C_1  and  C_2
REMARK    2  A    between atoms: C_6  and  C_7
REMARK    3  A    between atoms: N_9  and  C_10
REMARK    4  A    between atoms: N_9  and  C_22
REMARK    5  A    between atoms: C_10  and  C_11
REMARK                            x       y       z     vdW  Elec       q    Type
REMARK                         _______ _______ _______ _____ _____    ______ ____
ROOT
ATOM      1  C   UNL     1       3.912   3.404  19.684  0.00  0.00    +0.000 C 
ATOM      2  O   UNL     1       4.751   2.544  19.970  0.00  0.00    +0.000 OA
ATOM      3  N   UNL     1       4.403   4.715  19.446  0.00  0.00    +0.000 N 
ENDROOT
BRANCH   3   4
ATOM      4  C   UNL     1       3.620   5.901  19.302  0.00  0.00    +0.000 A 
ATOM      5  C   UNL     1       3.501   6.496  18.034  0.00  0.00    +0.000 A 
ATOM      6  C   UNL     1       2.581   7.522  17.807  0.00  0.00    +0.000 A 
ATOM      7  C   UNL     1       1.730   7.927  18.830  0.00  0.00    +0.000 A 
ATOM      8  C   UNL     1       1.859   7.357  20.093  0.00  0.00    +0.000 A 
ATOM      9 CL   UNL     1       0.749   7.782  21.339  0.00  0.00    +0.000 Cl
ATOM     10  C   UNL     1       2.839   6.395  20.345  0.00  0.00    +0.000 A 
ENDBRANCH   3   4
BRANCH   1  16
ATOM     11  C   UNL     1       1.305   2.752  21.885  0.00  0.00    +0.000 C 
ATOM     12  C   UNL     1       1.427   2.743  20.402  0.00  0.00    +0.000 A 
ATOM     13  N   UNL     1       0.269   2.325  19.747  0.00  0.00    +0.000 NA
ATOM     14  C   UNL     1       0.468   2.231  18.455  0.00  0.00    +0.000 A 
ATOM     15  S   UNL     1       2.002   2.710  17.917  0.00  0.00    +0.000 S 
ATOM     16  C   UNL     1       2.504   3.025  19.561  0.00  0.00    +0.000 A 
ENDBRANCH   1  16
BRANCH   3  17
ATOM     17  C   UNL     1       5.881   4.887  19.477  0.00  0.00    +0.000 C 
BRANCH  17  18
ATOM     18  C   UNL     1       6.573   5.559  18.266  0.00  0.00    +0.000 A 
ATOM     19  C   UNL     1       7.250   6.702  18.539  0.00  0.00    +0.000 A 
ATOM     20  C   UNL     1       7.908   7.516  17.487  0.00  0.00    +0.000 A 
ATOM     21  O   UNL     1       8.492   8.558  17.758  0.00  0.00    +0.000 OA
ATOM     22  N   UNL     1       7.807   7.031  16.213  0.00  0.00    +0.000 N 
ATOM     23  C   UNL     1       7.141   5.879  15.879  0.00  0.00    +0.000 A 
ATOM     24  C   UNL     1       6.524   5.146  16.838  0.00  0.00    +0.000 A 
ATOM     25  C   UNL     1       5.811   3.895  16.433  0.00  0.00    +0.000 C 
ATOM     26  C   UNL     1       6.129   3.326  15.053  0.00  0.00    +0.000 C 
ATOM     27  C   UNL     1       6.201   4.410  13.999  0.00  0.00    +0.000 C 
ATOM     28  C   UNL     1       7.171   5.512  14.412  0.00  0.00    +0.000 C 
ATOM     29  H   UNL     1       8.266   7.588  15.500  0.00  0.00    +0.000 HD
ENDBRANCH  17  18
ENDBRANCH   3  17
TORSDOF 4
ENDMDL
MODEL 2
REMARK VINA RESULT:      -6.6      7.210      9.935
REMARK  Name = 
REMARK  5 active torsions:
REMARK  status: ('A' for Active; 'I' for Inactive)
REMARK    1  A    between atoms: C_1  and  C_2
REMARK    2  A    between atoms: C_6  and  C_7
REMARK    3  A    between atoms: N_9  and  C_10
REMARK    4  A    between atoms: N_9  and  C_22
REMARK    5  A    between atoms: C_10  and  C_11
REMARK                            x       y       z     vdW  Elec       q    Type
REMARK                         _______ _______ _______ _____ _____    ______ ____
ROOT
ATOM      1  C   UNL     1      -0.896  13.838  19.979  0.00  0.00    +0.000 C 
ATOM      2  O   UNL     1      -1.981  13.255  20.055  0.00  0.00    +0.000 OA
ATOM      3  N   UNL     1       0.200  13.076  19.493  0.00  0.00    +0.000 N 
ENDROOT
BRANCH   3   4
ATOM      4  C   UNL     1       1.575  13.463  19.506  0.00  0.00    +0.000 A 
ATOM      5  C   UNL     1       2.183  13.879  18.309  0.00  0.00    +0.000 A 
ATOM      6  C   UNL     1       3.451  14.466  18.315  0.00  0.00    +0.000 A 
ATOM      7  C   UNL     1       4.101  14.696  19.523  0.00  0.00    +0.000 A 
ATOM      8  C   UNL     1       3.513  14.266  20.710  0.00  0.00    +0.000 A 
ATOM      9 CL   UNL     1       4.264  14.630  22.215  0.00  0.00    +0.000 Cl
ATOM     10  C   UNL     1       2.287  13.598  20.697  0.00  0.00    +0.000 A 
ENDBRANCH   3   4
BRANCH   1  16
ATOM     11  C   UNL     1      -0.399  16.815  18.260  0.00  0.00    +0.000 C 
ATOM     12  C   UNL     1      -0.604  16.476  19.695  0.00  0.00    +0.000 A 
ATOM     13  N   UNL     1      -0.518  17.576  20.548  0.00  0.00    +0.000 NA
ATOM     14  C   UNL     1      -0.596  17.204  21.802  0.00  0.00    +0.000 A 
ATOM     15  S   UNL     1      -0.860  15.549  22.058  0.00  0.00    +0.000 S 
ATOM     16  C   UNL     1      -0.810  15.255  20.336  0.00  0.00    +0.000 A 
ENDBRANCH   1  16
BRANCH   3  17
ATOM     17  C   UNL     1      -0.101  11.690  19.044  0.00  0.00    +0.000 C 
BRANCH  17  18
ATOM     18  C   UNL     1       0.394  10.507  19.912  0.00  0.00    +0.000 A 
ATOM     19  C   UNL     1       0.148  10.614  21.242  0.00  0.00    +0.000 A 
ATOM     20  C   UNL     1       0.618   9.610  22.228  0.00  0.00    +0.000 A 
ATOM     21  O   UNL     1       0.404   9.744  23.427  0.00  0.00    +0.000 OA
ATOM     22  N   UNL     1       1.307   8.549  21.711  0.00  0.00    +0.000 N 
ATOM     23  C   UNL     1       1.579   8.386  20.376  0.00  0.00    +0.000 A 
ATOM     24  C   UNL     1       1.166   9.313  19.477  0.00  0.00    +0.000 A 
ATOM     25  C   UNL     1       1.481   9.096  18.032  0.00  0.00    +0.000 C 
ATOM     26  C   UNL     1       1.910   7.693  17.613  0.00  0.00    +0.000 C 
ATOM     27  C   UNL     1       2.889   7.087  18.594  0.00  0.00    +0.000 C 
ATOM     28  C   UNL     1       2.335   7.127  20.016  0.00  0.00    +0.000 C 
ATOM     29  H   UNL     1       1.618   7.862  22.389  0.00  0.00    +0.000 HD
ENDBRANCH  17  18
ENDBRANCH   3  17
TORSDOF 4
ENDMDL
MODEL 3
REMARK VINA RESULT:      -6.6      6.772      9.680
REMARK  Name = 
REMARK  5 active torsions:
REMARK  status: ('A' for Active; 'I' for Inactive)
REMARK    1  A    between atoms: C_1  and  C_2
REMARK    2  A    between atoms: C_6  and  C_7
REMARK    3  A    between atoms: N_9  and  C_10
REMARK    4  A    between atoms: N_9  and  C_22
REMARK    5  A    between atoms: C_10  and  C_11
REMARK                            x       y       z     vdW  Elec       q    Type
REMARK                         _______ _______ _______ _____ _____    ______ ____
ROOT
ATOM      1  C   UNL     1       2.394  13.147  18.798  0.00  0.00    +0.000 C 
ATOM      2  O   UNL     1       2.786  12.227  18.074  0.00  0.00    +0.000 OA
ATOM      3  N   UNL     1       1.091  13.011  19.346  0.00  0.00    +0.000 N 
ENDROOT
BRANCH   3   4
ATOM      4  C   UNL     1       0.351  14.020  20.035  0.00  0.00    +0.000 A 
ATOM      5  C   UNL     1       0.516  14.166  21.424  0.00  0.00    +0.000 A 
ATOM      6  C   UNL     1      -0.018  15.267  22.097  0.00  0.00    +0.000 A 
ATOM      7  C   UNL     1      -0.674  16.264  21.383  0.00  0.00    +0.000 A 
ATOM      8  C   UNL     1      -0.860  16.113  20.011  0.00  0.00    +0.000 A 
ATOM      9 CL   UNL     1      -1.587  17.383  19.104  0.00  0.00    +0.000 Cl
ATOM     10  C   UNL     1      -0.407  14.970  19.351  0.00  0.00    +0.000 A 
ENDBRANCH   3   4
BRANCH   1  16
ATOM     11  C   UNL     1       4.174  14.278  21.557  0.00  0.00    +0.000 C 
ATOM     12  C   UNL     1       4.010  14.774  20.163  0.00  0.00    +0.000 A 
ATOM     13  N   UNL     1       4.657  15.986  19.920  0.00  0.00    +0.000 NA
ATOM     14  C   UNL     1       4.388  16.427  18.716  0.00  0.00    +0.000 A 
ATOM     15  S   UNL     1       3.429  15.407  17.761  0.00  0.00    +0.000 S 
ATOM     16  C   UNL     1       3.286  14.272  19.083  0.00  0.00    +0.000 A 
ENDBRANCH   1  16
BRANCH   3  17
ATOM     17  C   UNL     1       0.381  11.734  19.063  0.00  0.00    +0.000 C 
BRANCH  17  18
ATOM     18  C   UNL     1       0.722  10.491  19.921  0.00  0.00    +0.000 A 
ATOM     19  C   UNL     1       0.457  10.605  21.247  0.00  0.00    +0.000 A 
ATOM     20  C   UNL     1       0.791   9.541  22.225  0.00  0.00    +0.000 A 
ATOM     21  O   UNL     1       0.564   9.679  23.421  0.00  0.00    +0.000 OA
ATOM     22  N   UNL     1       1.371   8.418  21.705  0.00  0.00    +0.000 N 
ATOM     23  C   UNL     1       1.655   8.246  20.374  0.00  0.00    +0.000 A 
ATOM     24  C   UNL     1       1.368   9.226  19.483  0.00  0.00    +0.000 A 
ATOM     25  C   UNL     1       1.692   8.997  18.041  0.00  0.00    +0.000 C 
ATOM     26  C   UNL     1       1.973   7.562  17.607  0.00  0.00    +0.000 C 
ATOM     27  C   UNL     1       2.856   6.837  18.599  0.00  0.00    +0.000 C 
ATOM     28  C   UNL     1       2.277   6.916  20.009  0.00  0.00    +0.000 C 
ATOM     29  H   UNL     1       1.588   7.691  22.378  0.00  0.00    +0.000 HD
ENDBRANCH  17  18
ENDBRANCH   3  17
TORSDOF 4
ENDMDL
MODEL 4
REMARK VINA RESULT:      -6.5      6.761      9.716
REMARK  Name = 
REMARK  5 active torsions:
REMARK  status: ('A' for Active; 'I' for Inactive)
REMARK    1  A    between atoms: C_1  and  C_2
REMARK    2  A    between atoms: C_6  and  C_7
REMARK    3  A    between atoms: N_9  and  C_10
REMARK    4  A    between atoms: N_9  and  C_22
REMARK    5  A    between atoms: C_10  and  C_11
REMARK                            x       y       z     vdW  Elec       q    Type
REMARK                         _______ _______ _______ _____ _____    ______ ____
ROOT
ATOM      1  C   UNL     1       2.350  13.281  18.806  0.00  0.00    +0.000 C 
ATOM      2  O   UNL     1       2.696  12.354  18.069  0.00  0.00    +0.000 OA
ATOM      3  N   UNL     1       1.052  13.189  19.375  0.00  0.00    +0.000 N 
ENDROOT
BRANCH   3   4
ATOM      4  C   UNL     1       0.361  14.219  20.083  0.00  0.00    +0.000 A 
ATOM      5  C   UNL     1      -0.385  15.168  19.361  0.00  0.00    +0.000 A 
ATOM      6  C   UNL     1      -1.243  16.054  20.017  0.00  0.00    +0.000 A 
ATOM      7  C   UNL     1      -1.409  15.965  21.395  0.00  0.00    +0.000 A 
ATOM      8  C   UNL     1      -0.656  15.043  22.117  0.00  0.00    +0.000 A 
ATOM      9 CL   UNL     1      -0.923  14.860  23.808  0.00  0.00    +0.000 Cl
ATOM     10  C   UNL     1       0.269  14.218  21.474  0.00  0.00    +0.000 A 
ENDBRANCH   3   4
BRANCH   1  16
ATOM     11  C   UNL     1       4.140  14.381  21.572  0.00  0.00    +0.000 C 
ATOM     12  C   UNL     1       4.019  14.858  20.167  0.00  0.00    +0.000 A 
ATOM     13  N   UNL     1       4.723  16.035  19.912  0.00  0.00    +0.000 NA
ATOM     14  C   UNL     1       4.492  16.467  18.697  0.00  0.00    +0.000 A 
ATOM     15  S   UNL     1       3.501  15.473  17.746  0.00  0.00    +0.000 S 
ATOM     16  C   UNL     1       3.288  14.370  19.085  0.00  0.00    +0.000 A 
ENDBRANCH   1  16
BRANCH   3  17
ATOM     17  C   UNL     1       0.290  11.942  19.094  0.00  0.00    +0.000 C 
BRANCH  17  18
ATOM     18  C   UNL     1       0.568  10.693  19.965  0.00  0.00    +0.000 A 
ATOM     19  C   UNL     1       0.222  10.802  21.272  0.00  0.00    +0.000 A 
ATOM     20  C   UNL     1       0.486   9.731  22.264  0.00  0.00    +0.000 A 
ATOM     21  O   UNL     1       0.187   9.865  23.444  0.00  0.00    +0.000 OA
ATOM     22  N   UNL     1       1.090   8.606  21.775  0.00  0.00    +0.000 N 
ATOM     23  C   UNL     1       1.456   8.438  20.463  0.00  0.00    +0.000 A 
ATOM     24  C   UNL     1       1.231   9.424  19.561  0.00  0.00    +0.000 A 
ATOM     25  C   UNL     1       1.644   9.201  18.141  0.00  0.00    +0.000 C 
ATOM     26  C   UNL     1       1.942   7.765  17.718  0.00  0.00    +0.000 C 
ATOM     27  C   UNL     1       2.756   7.029  18.760  0.00  0.00    +0.000 C 
ATOM     28  C   UNL     1       2.090   7.106  20.131  0.00  0.00    +0.000 C 
ATOM     29  H   UNL     1       1.260   7.874  22.457  0.00  0.00    +0.000 HD
ENDBRANCH  17  18
ENDBRANCH   3  17
TORSDOF 4
ENDMDL
MODEL 5
REMARK VINA RESULT:      -6.5      7.379     10.018
REMARK  Name = 
REMARK  5 active torsions:
REMARK  status: ('A' for Active; 'I' for Inactive)
REMARK    1  A    between atoms: C_1  and  C_2
REMARK    2  A    between atoms: C_6  and  C_7
REMARK    3  A    between atoms: N_9  and  C_10
REMARK    4  A    between atoms: N_9  and  C_22
REMARK    5  A    between atoms: C_10  and  C_11
REMARK                            x       y       z     vdW  Elec       q    Type
REMARK                         _______ _______ _______ _____ _____    ______ ____
ROOT
ATOM      1  C   UNL     1      -2.037  13.628  20.938  0.00  0.00    +0.000 C 
ATOM      2  O   UNL     1      -1.135  14.092  21.640  0.00  0.00    +0.000 OA
ATOM      3  N   UNL     1      -1.647  12.708  19.929  0.00  0.00    +0.000 N 
ENDROOT
BRANCH   3   4
ATOM      4  C   UNL     1      -2.471  12.202  18.878  0.00  0.00    +0.000 A 
ATOM      5  C   UNL     1      -1.872  11.789  17.674  0.00  0.00    +0.000 A 
ATOM      6  C   UNL     1      -2.606  11.094  16.710  0.00  0.00    +0.000 A 
ATOM      7  C   UNL     1      -3.931  10.753  16.961  0.00  0.00    +0.000 A 
ATOM      8  C   UNL     1      -4.535  11.179  18.141  0.00  0.00    +0.000 A 
ATOM      9 CL   UNL     1      -6.143  10.682  18.504  0.00  0.00    +0.000 Cl
ATOM     10  C   UNL     1      -3.829  11.951  19.065  0.00  0.00    +0.000 A 
ENDBRANCH   3   4
BRANCH   1  16
ATOM     11  C   UNL     1      -4.062  16.364  20.246  0.00  0.00    +0.000 C 
ATOM     12  C   UNL     1      -4.277  15.079  20.967  0.00  0.00    +0.000 A 
ATOM     13  N   UNL     1      -5.541  14.966  21.545  0.00  0.00    +0.000 NA
ATOM     14  C   UNL     1      -5.636  13.869  22.255  0.00  0.00    +0.000 A 
ATOM     15  S   UNL     1      -4.277  12.857  22.220  0.00  0.00    +0.000 S 
ATOM     16  C   UNL     1      -3.426  14.002  21.208  0.00  0.00    +0.000 A 
ENDBRANCH   1  16
BRANCH   3  17
ATOM     17  C   UNL     1      -0.207  12.337  19.889  0.00  0.00    +0.000 C 
BRANCH  17  18
ATOM     18  C   UNL     1       0.227  10.988  20.515  0.00  0.00    +0.000 A 
ATOM     19  C   UNL     1      -0.006  10.859  21.846  0.00  0.00    +0.000 A 
ATOM     20  C   UNL     1       0.414   9.665  22.620  0.00  0.00    +0.000 A 
ATOM     21  O   UNL     1       0.214   9.584  23.826  0.00  0.00    +0.000 OA
ATOM     22  N   UNL     1       1.041   8.684  21.905  0.00  0.00    +0.000 N 
ATOM     23  C   UNL     1       1.297   8.758  20.559  0.00  0.00    +0.000 A 
ATOM     24  C   UNL     1       0.930   9.856  19.854  0.00  0.00    +0.000 A 
ATOM     25  C   UNL     1       1.226   9.897  18.389  0.00  0.00    +0.000 C 
ATOM     26  C   UNL     1       1.575   8.575  17.710  0.00  0.00    +0.000 C 
ATOM     27  C   UNL     1       2.524   7.746  18.547  0.00  0.00    +0.000 C 
ATOM     28  C   UNL     1       1.981   7.550  19.959  0.00  0.00    +0.000 C 
ATOM     29  H   UNL     1       1.318   7.867  22.439  0.00  0.00    +0.000 HD
ENDBRANCH  17  18
ENDBRANCH   3  17
TORSDOF 4
ENDMDL
MODEL 6
REMARK VINA RESULT:      -6.5      6.849      9.880
REMARK  Name = 
REMARK  5 active torsions:
REMARK  status: ('A' for Active; 'I' for Inactive)
REMARK    1  A    between atoms: C_1  and  C_2
REMARK    2  A    between atoms: C_6  and  C_7
REMARK    3  A    between atoms: N_9  and  C_10
REMARK    4  A    between atoms: N_9  and  C_22
REMARK    5  A    between atoms: C_10  and  C_11
REMARK                            x       y       z     vdW  Elec       q    Type
REMARK                         _______ _______ _______ _____ _____    ______ ____
ROOT
ATOM      1  C   UNL     1       2.092  13.435  19.270  0.00  0.00    +0.000 C 
ATOM      2  O   UNL     1       2.526  12.577  18.497  0.00  0.00    +0.000 OA
ATOM      3  N   UNL     1       0.789  13.220  19.791  0.00  0.00    +0.000 N 
ENDROOT
BRANCH   3   4
ATOM      4  C   UNL     1       0.005  14.157  20.530  0.00  0.00    +0.000 A 
ATOM      5  C   UNL     1      -0.851  15.033  19.838  0.00  0.00    +0.000 A 
ATOM      6  C   UNL     1      -1.787  15.811  20.524  0.00  0.00    +0.000 A 
ATOM      7  C   UNL     1      -1.919  15.681  21.903  0.00  0.00    +0.000 A 
ATOM      8  C   UNL     1      -1.060  14.832  22.595  0.00  0.00    +0.000 A 
ATOM      9 CL   UNL     1      -1.277  14.592  24.285  0.00  0.00    +0.000 Cl
ATOM     10  C   UNL     1      -0.063  14.122  21.922  0.00  0.00    +0.000 A 
ENDBRANCH   3   4
BRANCH   1  16
ATOM     11  C   UNL     1       3.072  16.402  17.752  0.00  0.00    +0.000 C 
ATOM     12  C   UNL     1       3.371  15.770  19.067  0.00  0.00    +0.000 A 
ATOM     13  N   UNL     1       4.289  16.484  19.836  0.00  0.00    +0.000 NA
ATOM     14  C   UNL     1       4.596  15.828  20.928  0.00  0.00    +0.000 A 
ATOM     15  S   UNL     1       3.763  14.371  21.164  0.00  0.00    +0.000 S 
ATOM     16  C   UNL     1       2.939  14.572  19.635  0.00  0.00    +0.000 A 
ENDBRANCH   1  16
BRANCH   3  17
ATOM     17  C   UNL     1       0.129  11.939  19.421  0.00  0.00    +0.000 C 
BRANCH  17  18
ATOM     18  C   UNL     1       0.526  10.653  20.188  0.00  0.00    +0.000 A 
ATOM     19  C   UNL     1       0.282  10.669  21.523  0.00  0.00    +0.000 A 
ATOM     20  C   UNL     1       0.668   9.554  22.422  0.00  0.00    +0.000 A 
ATOM     21  O   UNL     1       0.459   9.604  23.628  0.00  0.00    +0.000 OA
ATOM     22  N   UNL     1       1.274   8.488  21.818  0.00  0.00    +0.000 N 
ATOM     23  C   UNL     1       1.540   8.414  20.473  0.00  0.00    +0.000 A 
ATOM     24  C   UNL     1       1.204   9.442  19.655  0.00  0.00    +0.000 A 
ATOM     25  C   UNL     1       1.509   9.321  18.196  0.00  0.00    +0.000 C 
ATOM     26  C   UNL     1       1.829   7.928  17.662  0.00  0.00    +0.000 C 
ATOM     27  C   UNL     1       2.753   7.168  18.589  0.00  0.00    +0.000 C 
ATOM     28  C   UNL     1       2.197   7.134  20.009  0.00  0.00    +0.000 C 
ATOM     29  H   UNL     1       1.527   7.726  22.437  0.00  0.00    +0.000 HD
ENDBRANCH  17  18
ENDBRANCH   3  17
TORSDOF 4
ENDMDL
MODEL 7
REMARK VINA RESULT:      -6.5      9.125     10.946
REMARK  Name = 
REMARK  5 active torsions:
REMARK  status: ('A' for Active; 'I' for Inactive)
REMARK    1  A    between atoms: C_1  and  C_2
REMARK    2  A    between atoms: C_6  and  C_7
REMARK    3  A    between atoms: N_9  and  C_10
REMARK    4  A    between atoms: N_9  and  C_22
REMARK    5  A    between atoms: C_10  and  C_11
REMARK                            x       y       z     vdW  Elec       q    Type
REMARK                         _______ _______ _______ _____ _____    ______ ____
ROOT
ATOM      1  C   UNL     1       8.413  15.115  23.080  0.00  0.00    +0.000 C 
ATOM      2  O   UNL     1       9.507  14.985  23.636  0.00  0.00    +0.000 OA
ATOM      3  N   UNL     1       8.434  15.562  21.733  0.00  0.00    +0.000 N 
ENDROOT
BRANCH   3   4
ATOM      4  C   UNL     1       7.308  15.977  20.959  0.00  0.00    +0.000 A 
ATOM      5  C   UNL     1       6.961  17.339  20.927  0.00  0.00    +0.000 A 
ATOM      6  C   UNL     1       6.009  17.815  20.022  0.00  0.00    +0.000 A 
ATOM      7  C   UNL     1       5.436  16.946  19.099  0.00  0.00    +0.000 A 
ATOM      8  C   UNL     1       5.760  15.593  19.141  0.00  0.00    +0.000 A 
ATOM      9 CL   UNL     1       5.129  14.527  17.945  0.00  0.00    +0.000 Cl
ATOM     10  C   UNL     1       6.642  15.100  20.104  0.00  0.00    +0.000 A 
ENDBRANCH   3   4
BRANCH   1  16
ATOM     11  C   UNL     1       6.357  12.323  23.291  0.00  0.00    +0.000 C 
ATOM     12  C   UNL     1       6.327  13.674  23.916  0.00  0.00    +0.000 A 
ATOM     13  N   UNL     1       5.203  13.899  24.711  0.00  0.00    +0.000 NA
ATOM     14  C   UNL     1       5.174  15.136  25.143  0.00  0.00    +0.000 A 
ATOM     15  S   UNL     1       6.509  16.090  24.716  0.00  0.00    +0.000 S 
ATOM     16  C   UNL     1       7.190  14.763  23.804  0.00  0.00    +0.000 A 
ENDBRANCH   1  16
BRANCH   3  17
ATOM     17  C   UNL     1       9.775  15.736  21.112  0.00  0.00    +0.000 C 
BRANCH  17  18
ATOM     18  C   UNL     1      10.072  15.010  19.776  0.00  0.00    +0.000 A 
ATOM     19  C   UNL     1      10.423  15.813  18.740  0.00  0.00    +0.000 A 
ATOM     20  C   UNL     1      10.668  15.295  17.372  0.00  0.00    +0.000 A 
ATOM     21  O   UNL     1      10.960  16.044  16.447  0.00  0.00    +0.000 OA
ATOM     22  N   UNL     1      10.536  13.943  17.217  0.00  0.00    +0.000 N 
ATOM     23  C   UNL     1      10.190  13.083  18.229  0.00  0.00    +0.000 A 
ATOM     24  C   UNL     1       9.947  13.560  19.475  0.00  0.00    +0.000 A 
ATOM     25  C   UNL     1       9.575  12.590  20.550  0.00  0.00    +0.000 C 
ATOM     26  C   UNL     1       9.850  11.112  20.284  0.00  0.00    +0.000 C 
ATOM     27  C   UNL     1       9.461  10.712  18.877  0.00  0.00    +0.000 C 
ATOM     28  C   UNL     1      10.122  11.622  17.846  0.00  0.00    +0.000 C 
ATOM     29  H   UNL     1      10.714  13.595  16.281  0.00  0.00    +0.000 HD
ENDBRANCH  17  18
ENDBRANCH   3  17
TORSDOF 4
ENDMDL
MODEL 8
REMARK VINA RESULT:      -6.4      8.326     10.763
REMARK  Name = 
REMARK  5 active torsions:
REMARK  status: ('A' for Active; 'I' for Inactive)
REMARK    1  A    between atoms: C_1  and  C_2
REMARK    2  A    between atoms: C_6  and  C_7
REMARK    3  A    between atoms: N_9  and  C_10
REMARK    4  A    between atoms: N_9  and  C_22
REMARK    5  A    between atoms: C_10  and  C_11
REMARK                            x       y       z     vdW  Elec       q    Type
REMARK                         _______ _______ _______ _____ _____    ______ ____
ROOT
ATOM      1  C   UNL     1      -0.810  14.480  21.769  0.00  0.00    +0.000 C 
ATOM      2  O   UNL     1      -0.611  15.572  22.308  0.00  0.00    +0.000 OA
ATOM      3  N   UNL     1       0.268  13.935  21.022  0.00  0.00    +0.000 N 
ENDROOT
BRANCH   3   4
ATOM      4  C   UNL     1       0.211  12.802  20.155  0.00  0.00    +0.000 A 
ATOM      5  C   UNL     1       0.906  11.630  20.508  0.00  0.00    +0.000 A 
ATOM      6  C   UNL     1       0.706  10.440  19.806  0.00  0.00    +0.000 A 
ATOM      7  C   UNL     1      -0.232  10.390  18.780  0.00  0.00    +0.000 A 
ATOM      8  C   UNL     1      -0.905  11.551  18.412  0.00  0.00    +0.000 A 
ATOM      9 CL   UNL     1      -2.135  11.479  17.209  0.00  0.00    +0.000 Cl
ATOM     10  C   UNL     1      -0.641  12.763  19.052  0.00  0.00    +0.000 A 
ENDBRANCH   3   4
BRANCH   1  16
ATOM     11  C   UNL     1      -1.851  11.469  23.152  0.00  0.00    +0.000 C 
ATOM     12  C   UNL     1      -2.561  12.602  22.498  0.00  0.00    +0.000 A 
ATOM     13  N   UNL     1      -3.932  12.392  22.347  0.00  0.00    +0.000 NA
ATOM     14  C   UNL     1      -4.484  13.368  21.669  0.00  0.00    +0.000 A 
ATOM     15  S   UNL     1      -3.446  14.637  21.240  0.00  0.00    +0.000 S 
ATOM     16  C   UNL     1      -2.092  13.802  21.965  0.00  0.00    +0.000 A 
ENDBRANCH   1  16
BRANCH   3  17
ATOM     17  C   UNL     1       1.546  14.696  21.048  0.00  0.00    +0.000 C 
BRANCH  17  18
ATOM     18  C   UNL     1       2.130  15.208  19.708  0.00  0.00    +0.000 A 
ATOM     19  C   UNL     1       3.302  14.640  19.326  0.00  0.00    +0.000 A 
ATOM     20  C   UNL     1       4.038  15.064  18.110  0.00  0.00    +0.000 A 
ATOM     21  O   UNL     1       5.108  14.553  17.800  0.00  0.00    +0.000 OA
ATOM     22  N   UNL     1       3.453  16.059  17.378  0.00  0.00    +0.000 N 
ATOM     23  C   UNL     1       2.268  16.664  17.713  0.00  0.00    +0.000 A 
ATOM     24  C   UNL     1       1.604  16.290  18.834  0.00  0.00    +0.000 A 
ATOM     25  C   UNL     1       0.315  16.972  19.162  0.00  0.00    +0.000 C 
ATOM     26  C   UNL     1      -0.358  17.768  18.047  0.00  0.00    +0.000 C 
ATOM     27  C   UNL     1       0.639  18.594  17.264  0.00  0.00    +0.000 C 
ATOM     28  C   UNL     1       1.786  17.727  16.751  0.00  0.00    +0.000 C 
ATOM     29  H   UNL     1       3.957  16.338  16.544  0.00  0.00    +0.000 HD
ENDBRANCH  17  18
ENDBRANCH   3  17
TORSDOF 4
ENDMDL
MODEL 9
REMARK VINA RESULT:      -6.4      7.267     10.629
REMARK  Name = 
REMARK  5 active torsions:
REMARK  status: ('A' for Active; 'I' for Inactive)
REMARK    1  A    between atoms: C_1  and  C_2
REMARK    2  A    between atoms: C_6  and  C_7
REMARK    3  A    between atoms: N_9  and  C_10
REMARK    4  A    between atoms: N_9  and  C_22
REMARK    5  A    between atoms: C_10  and  C_11
REMARK                            x       y       z     vdW  Elec       q    Type
REMARK                         _______ _______ _______ _____ _____    ______ ____
ROOT
ATOM      1  C   UNL     1      -0.644  10.462  19.222  0.00  0.00    +0.000 C 
ATOM      2  O   UNL     1      -1.726  10.049  18.796  0.00  0.00    +0.000 OA
ATOM      3  N   UNL     1      -0.488  11.872  19.296  0.00  0.00    +0.000 N 
ENDROOT
BRANCH   3   4
ATOM      4  C   UNL     1       0.725  12.578  19.558  0.00  0.00    +0.000 A 
ATOM      5  C   UNL     1       1.699  12.669  18.548  0.00  0.00    +0.000 A 
ATOM      6  C   UNL     1       2.796  13.523  18.684  0.00  0.00    +0.000 A 
ATOM      7  C   UNL     1       2.902  14.340  19.805  0.00  0.00    +0.000 A 
ATOM      8  C   UNL     1       1.952  14.239  20.818  0.00  0.00    +0.000 A 
ATOM      9 CL   UNL     1       2.021  15.311  22.163  0.00  0.00    +0.000 Cl
ATOM     10  C   UNL     1       0.905  13.320  20.724  0.00  0.00    +0.000 A 
ENDBRANCH   3   4
BRANCH   1  16
ATOM     11  C   UNL     1       2.073   8.865  17.761  0.00  0.00    +0.000 C 
ATOM     12  C   UNL     1       1.465   8.830  19.120  0.00  0.00    +0.000 A 
ATOM     13  N   UNL     1       2.073   7.916  19.982  0.00  0.00    +0.000 NA
ATOM     14  C   UNL     1       1.431   7.849  21.122  0.00  0.00    +0.000 A 
ATOM     15  S   UNL     1       0.124   8.915  21.288  0.00  0.00    +0.000 S 
ATOM     16  C   UNL     1       0.372   9.504  19.661  0.00  0.00    +0.000 A 
ENDBRANCH   1  16
BRANCH   3  17
ATOM     17  C   UNL     1      -1.678  12.691  18.939  0.00  0.00    +0.000 C 
BRANCH  17  18
ATOM     18  C   UNL     1      -2.924  12.626  19.856  0.00  0.00    +0.000 A 
ATOM     19  C   UNL     1      -2.702  12.905  21.166  0.00  0.00    +0.000 A 
ATOM     20  C   UNL     1      -3.766  12.816  22.196  0.00  0.00    +0.000 A 
ATOM     21  O   UNL     1      -3.534  13.049  23.376  0.00  0.00    +0.000 OA
ATOM     22  N   UNL     1      -5.001  12.449  21.742  0.00  0.00    +0.000 N 
ATOM     23  C   UNL     1      -5.285  12.160  20.430  0.00  0.00    +0.000 A 
ATOM     24  C   UNL     1      -4.308  12.224  19.492  0.00  0.00    +0.000 A 
ATOM     25  C   UNL     1      -4.659  11.904  18.074  0.00  0.00    +0.000 C 
ATOM     26  C   UNL     1      -6.140  11.893  17.706  0.00  0.00    +0.000 C 
ATOM     27  C   UNL     1      -6.976  11.199  18.759  0.00  0.00    +0.000 C 
ATOM     28  C   UNL     1      -6.724  11.797  20.140  0.00  0.00    +0.000 C 
ATOM     29  H   UNL     1      -5.726  12.398  22.450  0.00  0.00    +0.000 HD
ENDBRANCH  17  18
ENDBRANCH   3  17
TORSDOF 4
ENDMDL
