MODEL 1
REMARK VINA RESULT:      -7.1      0.000      0.000
REMARK  Name = 
REMARK  7 active torsions:
REMARK  status: ('A' for Active; 'I' for Inactive)
REMARK    1  A    between atoms: C_1  and  C_2
REMARK    2  A    between atoms: C_9  and  C_10
REMARK    3  A    between atoms: N_12  and  C_13
REMARK    4  A    between atoms: C_16  and  C_17
REMARK    5  A    between atoms: C_17  and  C_18
REMARK    6  A    between atoms: C_17  and  C_19
REMARK    7  A    between atoms: C_21  and  N_22
REMARK                            x       y       z     vdW  Elec       q    Type
REMARK                         _______ _______ _______ _____ _____    ______ ____
ROOT
ATOM      1  C   UNL     1      -2.028  11.405  18.385  0.00  0.00    +0.000 A 
ATOM      2  C   UNL     1      -1.646  10.377  17.526  0.00  0.00    +0.000 A 
ATOM      3  C   UNL     1      -0.455   9.694  17.763  0.00  0.00    +0.000 A 
ATOM      4  C   UNL     1       0.362  10.008  18.859  0.00  0.00    +0.000 A 
ATOM      5  C   UNL     1      -0.027  11.071  19.706  0.00  0.00    +0.000 A 
ATOM      6  C   UNL     1      -1.217  11.790  19.483  0.00  0.00    +0.000 A 
ENDROOT
BRANCH   6   7
ATOM      7  N   UNL     1      -1.683  12.818  20.322  0.00  0.00    +0.000 N 
ATOM      8  C   UNL     1      -1.184  14.204  20.151  0.00  0.00    +0.000 C 
ATOM      9  C   UNL     1      -2.158  15.184  20.884  0.00  0.00    +0.000 C 
ATOM     10  N   UNL     1      -2.245  14.788  22.309  0.00  0.00    +0.000 N 
ATOM     11  C   UNL     1      -2.906  15.666  23.175  0.00  0.00    +0.000 A 
ATOM     12  C   UNL     1      -2.593  15.620  24.544  0.00  0.00    +0.000 A 
ATOM     13  N   UNL     1      -3.180  16.380  25.494  0.00  0.00    +0.000 NA
ATOM     14  C   UNL     1      -4.118  17.228  25.024  0.00  0.00    +0.000 A 
ATOM     15  C   UNL     1      -4.436  17.303  23.676  0.00  0.00    +0.000 A 
ATOM     16  N   UNL     1      -3.838  16.537  22.727  0.00  0.00    +0.000 NA
ATOM     17  C   UNL     1      -2.730  13.400  22.474  0.00  0.00    +0.000 C 
ATOM     18  C   UNL     1      -1.750  12.440  21.762  0.00  0.00    +0.000 C 
ENDBRANCH   6   7
BRANCH   1  21
ATOM     19  C   UNL     1      -4.467  11.493  18.132  0.00  0.00    +0.000 C 
ATOM     20  O   UNL     1      -4.644  10.277  18.152  0.00  0.00    +0.000 OA
ATOM     21  N   UNL     1      -3.237  12.125  18.172  0.00  0.00    +0.000 N 
ATOM     22  H   UNL     1      -3.201  13.060  18.567  0.00  0.00    +0.000 HD
BRANCH  19  31
ATOM     23  C   UNL     1      -5.748  12.321  20.788  0.00  0.00    +0.000 C 
ATOM     24  C   UNL     1      -6.259  12.770  19.451  0.00  0.00    +0.000 A 
ATOM     25  C   UNL     1      -7.344  13.663  19.400  0.00  0.00    +0.000 A 
ATOM     26  F   UNL     1      -7.916  14.082  20.538  0.00  0.00    +0.000 F 
ATOM     27  C   UNL     1      -7.839  14.162  18.199  0.00  0.00    +0.000 A 
ATOM     28  C   UNL     1      -7.250  13.753  17.016  0.00  0.00    +0.000 A 
ATOM     29  F   UNL     1      -7.711  14.227  15.852  0.00  0.00    +0.000 F 
ATOM     30  C   UNL     1      -6.180  12.870  17.018  0.00  0.00    +0.000 A 
ATOM     31  C   UNL     1      -5.672  12.372  18.235  0.00  0.00    +0.000 A 
ENDBRANCH  19  31
ENDBRANCH   1  21
BRANCH   4  32
ATOM     32  C   UNL     1       1.590   9.141  19.115  0.00  0.00    +0.000 C 
ATOM     33  C   UNL     1       1.442   8.231  20.335  0.00  0.00    +0.000 C 
ATOM     34  C   UNL     1       1.981   8.333  17.875  0.00  0.00    +0.000 C 
ENDBRANCH   4  32
TORSDOF 4
ENDMDL
MODEL 2
REMARK VINA RESULT:      -7.1      3.723      5.756
REMARK  Name = 
REMARK  7 active torsions:
REMARK  status: ('A' for Active; 'I' for Inactive)
REMARK    1  A    between atoms: C_1  and  C_2
REMARK    2  A    between atoms: C_9  and  C_10
REMARK    3  A    between atoms: N_12  and  C_13
REMARK    4  A    between atoms: C_16  and  C_17
REMARK    5  A    between atoms: C_17  and  C_18
REMARK    6  A    between atoms: C_17  and  C_19
REMARK    7  A    between atoms: C_21  and  N_22
REMARK                            x       y       z     vdW  Elec       q    Type
REMARK                         _______ _______ _______ _____ _____    ______ ____
ROOT
ATOM      1  C   UNL     1       1.338  10.965  18.691  0.00  0.00    +0.000 A 
ATOM      2  C   UNL     1       2.215  10.323  17.820  0.00  0.00    +0.000 A 
ATOM      3  C   UNL     1       2.484   8.967  17.996  0.00  0.00    +0.000 A 
ATOM      4  C   UNL     1       1.877   8.229  19.023  0.00  0.00    +0.000 A 
ATOM      5  C   UNL     1       1.010   8.901  19.915  0.00  0.00    +0.000 A 
ATOM      6  C   UNL     1       0.731  10.275  19.771  0.00  0.00    +0.000 A 
ENDROOT
BRANCH   6   7
ATOM      7  N   UNL     1      -0.165  10.984  20.590  0.00  0.00    +0.000 N 
ATOM      8  C   UNL     1      -0.347  10.595  22.009  0.00  0.00    +0.000 C 
ATOM      9  C   UNL     1      -1.029  11.777  22.773  0.00  0.00    +0.000 C 
ATOM     10  N   UNL     1      -2.314  12.093  22.107  0.00  0.00    +0.000 N 
ATOM     11  C   UNL     1      -3.170  12.985  22.763  0.00  0.00    +0.000 A 
ATOM     12  C   UNL     1      -4.543  12.932  22.472  0.00  0.00    +0.000 A 
ATOM     13  N   UNL     1      -5.474  13.757  23.001  0.00  0.00    +0.000 NA
ATOM     14  C   UNL     1      -4.982  14.665  23.868  0.00  0.00    +0.000 A 
ATOM     15  C   UNL     1      -3.632  14.729  24.182  0.00  0.00    +0.000 A 
ATOM     16  N   UNL     1      -2.703  13.893  23.649  0.00  0.00    +0.000 NA
ATOM     17  C   UNL     1      -2.128  12.468  20.687  0.00  0.00    +0.000 C 
ATOM     18  C   UNL     1      -1.471  11.286  19.939  0.00  0.00    +0.000 C 
ENDBRANCH   6   7
BRANCH   1  21
ATOM     19  C   UNL     1       1.691  13.319  19.284  0.00  0.00    +0.000 C 
ATOM     20  O   UNL     1       2.475  13.106  20.205  0.00  0.00    +0.000 OA
ATOM     21  N   UNL     1       1.042  12.349  18.542  0.00  0.00    +0.000 N 
ATOM     22  H   UNL     1       0.777  12.584  17.589  0.00  0.00    +0.000 HD
BRANCH  19  31
ATOM     23  C   UNL     1       3.923  14.902  17.906  0.00  0.00    +0.000 C 
ATOM     24  C   UNL     1       2.555  15.461  18.165  0.00  0.00    +0.000 A 
ATOM     25  C   UNL     1       2.249  16.754  17.706  0.00  0.00    +0.000 A 
ATOM     26  F   UNL     1       3.183  17.472  17.066  0.00  0.00    +0.000 F 
ATOM     27  C   UNL     1       0.987  17.319  17.866  0.00  0.00    +0.000 A 
ATOM     28  C   UNL     1       0.007  16.585  18.510  0.00  0.00    +0.000 A 
ATOM     29  F   UNL     1      -1.213  17.112  18.667  0.00  0.00    +0.000 F 
ATOM     30  C   UNL     1       0.266  15.307  18.983  0.00  0.00    +0.000 A 
ATOM     31  C   UNL     1       1.540  14.731  18.813  0.00  0.00    +0.000 A 
ENDBRANCH  19  31
ENDBRANCH   1  21
BRANCH   4  32
ATOM     32  C   UNL     1       2.134   6.727  19.081  0.00  0.00    +0.000 C 
ATOM     33  C   UNL     1       3.505   6.326  18.535  0.00  0.00    +0.000 C 
ATOM     34  C   UNL     1       1.923   6.171  20.491  0.00  0.00    +0.000 C 
ENDBRANCH   4  32
TORSDOF 4
ENDMDL
MODEL 3
REMARK VINA RESULT:      -7.0      4.209      5.576
REMARK  Name = 
REMARK  7 active torsions:
REMARK  status: ('A' for Active; 'I' for Inactive)
REMARK    1  A    between atoms: C_1  and  C_2
REMARK    2  A    between atoms: C_9  and  C_10
REMARK    3  A    between atoms: N_12  and  C_13
REMARK    4  A    between atoms: C_16  and  C_17
REMARK    5  A    between atoms: C_17  and  C_18
REMARK    6  A    between atoms: C_17  and  C_19
REMARK    7  A    between atoms: C_21  and  N_22
REMARK                            x       y       z     vdW  Elec       q    Type
REMARK                         _______ _______ _______ _____ _____    ______ ____
ROOT
ATOM      1  C   UNL     1      -0.229   9.893  20.963  0.00  0.00    +0.000 A 
ATOM      2  C   UNL     1      -0.187   8.555  21.348  0.00  0.00    +0.000 A 
ATOM      3  C   UNL     1       0.761   7.708  20.776  0.00  0.00    +0.000 A 
ATOM      4  C   UNL     1       1.685   8.179  19.832  0.00  0.00    +0.000 A 
ATOM      5  C   UNL     1       1.612   9.533  19.433  0.00  0.00    +0.000 A 
ATOM      6  C   UNL     1       0.656  10.409  19.983  0.00  0.00    +0.000 A 
ENDROOT
BRANCH   6   7
ATOM      7  N   UNL     1       0.570  11.777  19.668  0.00  0.00    +0.000 N 
ATOM      8  C   UNL     1      -0.269  12.230  18.532  0.00  0.00    +0.000 C 
ATOM      9  C   UNL     1      -0.529  13.765  18.679  0.00  0.00    +0.000 C 
ATOM     10  N   UNL     1       0.776  14.464  18.729  0.00  0.00    +0.000 N 
ATOM     11  C   UNL     1       0.754  15.861  18.651  0.00  0.00    +0.000 A 
ATOM     12  C   UNL     1       1.904  16.525  18.191  0.00  0.00    +0.000 A 
ATOM     13  N   UNL     1       2.035  17.867  18.104  0.00  0.00    +0.000 NA
ATOM     14  C   UNL     1       0.943  18.557  18.492  0.00  0.00    +0.000 A 
ATOM     15  C   UNL     1      -0.209  17.926  18.937  0.00  0.00    +0.000 A 
ATOM     16  N   UNL     1      -0.333  16.575  19.019  0.00  0.00    +0.000 NA
ATOM     17  C   UNL     1       1.615  13.999  19.855  0.00  0.00    +0.000 C 
ATOM     18  C   UNL     1       1.881  12.485  19.689  0.00  0.00    +0.000 C 
ENDBRANCH   6   7
BRANCH   1  21
ATOM     19  C   UNL     1      -1.156  11.138  22.863  0.00  0.00    +0.000 C 
ATOM     20  O   UNL     1      -0.413  10.653  23.713  0.00  0.00    +0.000 OA
ATOM     21  N   UNL     1      -1.185  10.785  21.526  0.00  0.00    +0.000 N 
ATOM     22  H   UNL     1      -1.492  11.488  20.860  0.00  0.00    +0.000 HD
BRANCH  19  31
ATOM     23  C   UNL     1      -0.258  14.047  22.523  0.00  0.00    +0.000 C 
ATOM     24  C   UNL     1      -1.590  13.657  23.093  0.00  0.00    +0.000 A 
ATOM     25  C   UNL     1      -2.506  14.666  23.439  0.00  0.00    +0.000 A 
ATOM     26  F   UNL     1      -2.171  15.954  23.275  0.00  0.00    +0.000 F 
ATOM     27  C   UNL     1      -3.777  14.380  23.925  0.00  0.00    +0.000 A 
ATOM     28  C   UNL     1      -4.145  13.056  24.085  0.00  0.00    +0.000 A 
ATOM     29  F   UNL     1      -5.367  12.763  24.548  0.00  0.00    +0.000 F 
ATOM     30  C   UNL     1      -3.272  12.027  23.761  0.00  0.00    +0.000 A 
ATOM     31  C   UNL     1      -1.988  12.317  23.259  0.00  0.00    +0.000 A 
ENDBRANCH  19  31
ENDBRANCH   1  21
BRANCH   4  32
ATOM     32  C   UNL     1       2.763   7.219  19.337  0.00  0.00    +0.000 C 
ATOM     33  C   UNL     1       2.453   5.753  19.643  0.00  0.00    +0.000 C 
ATOM     34  C   UNL     1       3.055   7.416  17.848  0.00  0.00    +0.000 C 
ENDBRANCH   4  32
TORSDOF 4
ENDMDL
MODEL 4
REMARK VINA RESULT:      -7.0      4.044      5.492
REMARK  Name = 
REMARK  7 active torsions:
REMARK  status: ('A' for Active; 'I' for Inactive)
REMARK    1  A    between atoms: C_1  and  C_2
REMARK    2  A    between atoms: C_9  and  C_10
REMARK    3  A    between atoms: N_12  and  C_13
REMARK    4  A    between atoms: C_16  and  C_17
REMARK    5  A    between atoms: C_17  and  C_18
REMARK    6  A    between atoms: C_17  and  C_19
REMARK    7  A    between atoms: C_21  and  N_22
REMARK                            x       y       z     vdW  Elec       q    Type
REMARK                         _______ _______ _______ _____ _____    ______ ____
ROOT
ATOM      1  C   UNL     1       0.114  10.369  21.647  0.00  0.00    +0.000 A 
ATOM      2  C   UNL     1       0.163   9.101  22.221  0.00  0.00    +0.000 A 
ATOM      3  C   UNL     1       0.856   8.081  21.570  0.00  0.00    +0.000 A 
ATOM      4  C   UNL     1       1.518   8.309  20.355  0.00  0.00    +0.000 A 
ATOM      5  C   UNL     1       1.436   9.595  19.772  0.00  0.00    +0.000 A 
ATOM      6  C   UNL     1       0.732  10.641  20.400  0.00  0.00    +0.000 A 
ENDROOT
BRANCH   6   7
ATOM      7  N   UNL     1       0.661  11.952  19.898  0.00  0.00    +0.000 N 
ATOM      8  C   UNL     1       0.235  12.194  18.499  0.00  0.00    +0.000 C 
ATOM      9  C   UNL     1      -0.169  13.697  18.348  0.00  0.00    +0.000 C 
ATOM     10  N   UNL     1       0.985  14.540  18.739  0.00  0.00    +0.000 N 
ATOM     11  C   UNL     1       0.890  15.912  18.477  0.00  0.00    +0.000 A 
ATOM     12  C   UNL     1       2.077  16.652  18.344  0.00  0.00    +0.000 A 
ATOM     13  N   UNL     1       2.133  17.985  18.131  0.00  0.00    +0.000 NA
ATOM     14  C   UNL     1       0.927  18.583  18.039  0.00  0.00    +0.000 A 
ATOM     15  C   UNL     1      -0.258  17.873  18.152  0.00  0.00    +0.000 A 
ATOM     16  N   UNL     1      -0.306  16.531  18.364  0.00  0.00    +0.000 NA
ATOM     17  C   UNL     1       1.415  14.285  20.132  0.00  0.00    +0.000 C 
ATOM     18  C   UNL     1       1.830  12.802  20.264  0.00  0.00    +0.000 C 
ENDBRANCH   6   7
BRANCH   1  21
ATOM     19  C   UNL     1      -1.773  11.932  21.781  0.00  0.00    +0.000 C 
ATOM     20  O   UNL     1      -2.281  11.615  20.708  0.00  0.00    +0.000 OA
ATOM     21  N   UNL     1      -0.585  11.433  22.284  0.00  0.00    +0.000 N 
ATOM     22  H   UNL     1      -0.472  11.415  23.294  0.00  0.00    +0.000 HD
BRANCH  19  31
ATOM     23  C   UNL     1      -1.931  14.980  21.525  0.00  0.00    +0.000 C 
ATOM     24  C   UNL     1      -2.662  14.202  22.579  0.00  0.00    +0.000 A 
ATOM     25  C   UNL     1      -3.513  14.887  23.464  0.00  0.00    +0.000 A 
ATOM     26  F   UNL     1      -3.642  16.218  23.369  0.00  0.00    +0.000 F 
ATOM     27  C   UNL     1      -4.262  14.227  24.434  0.00  0.00    +0.000 A 
ATOM     28  C   UNL     1      -4.153  12.852  24.536  0.00  0.00    +0.000 A 
ATOM     29  F   UNL     1      -4.870  12.202  25.460  0.00  0.00    +0.000 F 
ATOM     30  C   UNL     1      -3.323  12.135  23.685  0.00  0.00    +0.000 A 
ATOM     31  C   UNL     1      -2.572  12.802  22.697  0.00  0.00    +0.000 A 
ENDBRANCH  19  31
ENDBRANCH   1  21
BRANCH   4  32
ATOM     32  C   UNL     1       2.347   7.174  19.762  0.00  0.00    +0.000 C 
ATOM     33  C   UNL     1       1.916   5.791  20.250  0.00  0.00    +0.000 C 
ATOM     34  C   UNL     1       2.371   7.231  18.233  0.00  0.00    +0.000 C 
ENDBRANCH   4  32
TORSDOF 4
ENDMDL
MODEL 5
REMARK VINA RESULT:      -6.8      4.261      8.543
REMARK  Name = 
REMARK  7 active torsions:
REMARK  status: ('A' for Active; 'I' for Inactive)
REMARK    1  A    between atoms: C_1  and  C_2
REMARK    2  A    between atoms: C_9  and  C_10
REMARK    3  A    between atoms: N_12  and  C_13
REMARK    4  A    between atoms: C_16  and  C_17
REMARK    5  A    between atoms: C_17  and  C_18
REMARK    6  A    between atoms: C_17  and  C_19
REMARK    7  A    between atoms: C_21  and  N_22
REMARK                            x       y       z     vdW  Elec       q    Type
REMARK                         _______ _______ _______ _____ _____    ______ ____
ROOT
ATOM      1  C   UNL     1      -2.004  14.462  21.098  0.00  0.00    +0.000 A 
ATOM      2  C   UNL     1      -2.768  15.459  21.700  0.00  0.00    +0.000 A 
ATOM      3  C   UNL     1      -3.796  15.102  22.571  0.00  0.00    +0.000 A 
ATOM      4  C   UNL     1      -4.068  13.758  22.869  0.00  0.00    +0.000 A 
ATOM      5  C   UNL     1      -3.300  12.757  22.229  0.00  0.00    +0.000 A 
ATOM      6  C   UNL     1      -2.265  13.087  21.332  0.00  0.00    +0.000 A 
ENDROOT
BRANCH   6   7
ATOM      7  N   UNL     1      -1.434  12.140  20.710  0.00  0.00    +0.000 N 
ATOM      8  C   UNL     1      -1.945  11.325  19.582  0.00  0.00    +0.000 C 
ATOM      9  C   UNL     1      -0.730  10.702  18.819  0.00  0.00    +0.000 C 
ATOM     10  N   UNL     1       0.070   9.901  19.775  0.00  0.00    +0.000 N 
ATOM     11  C   UNL     1       1.084   9.097  19.242  0.00  0.00    +0.000 A 
ATOM     12  C   UNL     1       1.512   7.981  19.980  0.00  0.00    +0.000 A 
ATOM     13  N   UNL     1       2.504   7.145  19.604  0.00  0.00    +0.000 NA
ATOM     14  C   UNL     1       3.075   7.456  18.422  0.00  0.00    +0.000 A 
ATOM     15  C   UNL     1       2.661   8.544  17.668  0.00  0.00    +0.000 A 
ATOM     16  N   UNL     1       1.660   9.379  18.052  0.00  0.00    +0.000 NA
ATOM     17  C   UNL     1       0.566  10.717  20.906  0.00  0.00    +0.000 C 
ATOM     18  C   UNL     1      -0.643  11.311  21.663  0.00  0.00    +0.000 C 
ENDBRANCH   6   7
BRANCH   1  21
ATOM     19  C   UNL     1       0.357  14.939  20.634  0.00  0.00    +0.000 C 
ATOM     20  O   UNL     1       0.726  14.926  21.806  0.00  0.00    +0.000 OA
ATOM     21  N   UNL     1      -0.949  14.790  20.202  0.00  0.00    +0.000 N 
ATOM     22  H   UNL     1      -1.096  14.400  19.276  0.00  0.00    +0.000 HD
BRANCH  19  31
ATOM     23  C   UNL     1       1.607  17.501  19.512  0.00  0.00    +0.000 C 
ATOM     24  C   UNL     1       2.003  16.125  19.063  0.00  0.00    +0.000 A 
ATOM     25  C   UNL     1       3.039  15.986  18.123  0.00  0.00    +0.000 A 
ATOM     26  F   UNL     1       3.641  17.078  17.629  0.00  0.00    +0.000 F 
ATOM     27  C   UNL     1       3.494  14.742  17.698  0.00  0.00    +0.000 A 
ATOM     28  C   UNL     1       2.895  13.605  18.209  0.00  0.00    +0.000 A 
ATOM     29  F   UNL     1       3.324  12.400  17.814  0.00  0.00    +0.000 F 
ATOM     30  C   UNL     1       1.866  13.694  19.136  0.00  0.00    +0.000 A 
ATOM     31  C   UNL     1       1.412  14.954  19.574  0.00  0.00    +0.000 A 
ENDBRANCH  19  31
ENDBRANCH   1  21
BRANCH   4  32
ATOM     32  C   UNL     1      -5.132  13.453  23.917  0.00  0.00    +0.000 C 
ATOM     33  C   UNL     1      -6.496  13.118  23.314  0.00  0.00    +0.000 C 
ATOM     34  C   UNL     1      -4.677  12.355  24.881  0.00  0.00    +0.000 C 
ENDBRANCH   4  32
TORSDOF 4
ENDMDL
MODEL 6
REMARK VINA RESULT:      -6.8      4.286      8.470
REMARK  Name = 
REMARK  7 active torsions:
REMARK  status: ('A' for Active; 'I' for Inactive)
REMARK    1  A    between atoms: C_1  and  C_2
REMARK    2  A    between atoms: C_9  and  C_10
REMARK    3  A    between atoms: N_12  and  C_13
REMARK    4  A    between atoms: C_16  and  C_17
REMARK    5  A    between atoms: C_17  and  C_18
REMARK    6  A    between atoms: C_17  and  C_19
REMARK    7  A    between atoms: C_21  and  N_22
REMARK                            x       y       z     vdW  Elec       q    Type
REMARK                         _______ _______ _______ _____ _____    ______ ____
ROOT
ATOM      1  C   UNL     1      -2.396  14.181  20.833  0.00  0.00    +0.000 A 
ATOM      2  C   UNL     1      -3.305  15.165  21.216  0.00  0.00    +0.000 A 
ATOM      3  C   UNL     1      -4.308  14.850  22.132  0.00  0.00    +0.000 A 
ATOM      4  C   UNL     1      -4.412  13.567  22.690  0.00  0.00    +0.000 A 
ATOM      5  C   UNL     1      -3.497  12.574  22.270  0.00  0.00    +0.000 A 
ATOM      6  C   UNL     1      -2.483  12.858  21.335  0.00  0.00    +0.000 A 
ENDROOT
BRANCH   6   7
ATOM      7  N   UNL     1      -1.512  11.929  20.922  0.00  0.00    +0.000 N 
ATOM      8  C   UNL     1      -0.157  11.948  21.523  0.00  0.00    +0.000 C 
ATOM      9  C   UNL     1       0.548  10.585  21.222  0.00  0.00    +0.000 C 
ATOM     10  N   UNL     1       0.585  10.384  19.755  0.00  0.00    +0.000 N 
ATOM     11  C   UNL     1       1.358   9.320  19.276  0.00  0.00    +0.000 A 
ATOM     12  C   UNL     1       1.838   9.381  17.957  0.00  0.00    +0.000 A 
ATOM     13  N   UNL     1       2.560   8.410  17.355  0.00  0.00    +0.000 NA
ATOM     14  C   UNL     1       2.810   7.340  18.137  0.00  0.00    +0.000 A 
ATOM     15  C   UNL     1       2.360   7.262  19.446  0.00  0.00    +0.000 A 
ATOM     16  N   UNL     1       1.637   8.244  20.045  0.00  0.00    +0.000 NA
ATOM     17  C   UNL     1      -0.769  10.379  19.158  0.00  0.00    +0.000 C 
ATOM     18  C   UNL     1      -1.447  11.738  19.446  0.00  0.00    +0.000 C 
ENDBRANCH   6   7
BRANCH   1  21
ATOM     19  C   UNL     1      -0.248  15.211  20.247  0.00  0.00    +0.000 C 
ATOM     20  O   UNL     1      -0.084  15.790  21.318  0.00  0.00    +0.000 OA
ATOM     21  N   UNL     1      -1.361  14.467  19.899  0.00  0.00    +0.000 N 
ATOM     22  H   UNL     1      -1.234  13.718  19.226  0.00  0.00    +0.000 HD
BRANCH  19  31
ATOM     23  C   UNL     1       0.975  17.692  18.929  0.00  0.00    +0.000 C 
ATOM     24  C   UNL     1       1.486  16.300  18.700  0.00  0.00    +0.000 A 
ATOM     25  C   UNL     1       2.618  16.115  17.888  0.00  0.00    +0.000 A 
ATOM     26  F   UNL     1       3.209  17.175  17.317  0.00  0.00    +0.000 F 
ATOM     27  C   UNL     1       3.179  14.860  17.670  0.00  0.00    +0.000 A 
ATOM     28  C   UNL     1       2.591  13.758  18.265  0.00  0.00    +0.000 A 
ATOM     29  F   UNL     1       3.121  12.544  18.070  0.00  0.00    +0.000 F 
ATOM     30  C   UNL     1       1.470  13.893  19.071  0.00  0.00    +0.000 A 
ATOM     31  C   UNL     1       0.908  15.165  19.299  0.00  0.00    +0.000 A 
ENDBRANCH  19  31
ENDBRANCH   1  21
BRANCH   4  32
ATOM     32  C   UNL     1      -5.464  13.333  23.769  0.00  0.00    +0.000 C 
ATOM     33  C   UNL     1      -6.815  12.890  23.208  0.00  0.00    +0.000 C 
ATOM     34  C   UNL     1      -4.969  12.356  24.838  0.00  0.00    +0.000 C 
ENDBRANCH   4  32
TORSDOF 4
ENDMDL
MODEL 7
REMARK VINA RESULT:      -6.7      3.824      5.656
REMARK  Name = 
REMARK  7 active torsions:
REMARK  status: ('A' for Active; 'I' for Inactive)
REMARK    1  A    between atoms: C_1  and  C_2
REMARK    2  A    between atoms: C_9  and  C_10
REMARK    3  A    between atoms: N_12  and  C_13
REMARK    4  A    between atoms: C_16  and  C_17
REMARK    5  A    between atoms: C_17  and  C_18
REMARK    6  A    between atoms: C_17  and  C_19
REMARK    7  A    between atoms: C_21  and  N_22
REMARK                            x       y       z     vdW  Elec       q    Type
REMARK                         _______ _______ _______ _____ _____    ______ ____
ROOT
ATOM      1  C   UNL     1       1.278  11.487  18.756  0.00  0.00    +0.000 A 
ATOM      2  C   UNL     1       2.213  10.932  17.884  0.00  0.00    +0.000 A 
ATOM      3  C   UNL     1       2.474   9.564  17.942  0.00  0.00    +0.000 A 
ATOM      4  C   UNL     1       1.805   8.730  18.849  0.00  0.00    +0.000 A 
ATOM      5  C   UNL     1       0.878   9.313  19.744  0.00  0.00    +0.000 A 
ATOM      6  C   UNL     1       0.604  10.694  19.719  0.00  0.00    +0.000 A 
ENDROOT
BRANCH   6   7
ATOM      7  N   UNL     1      -0.345  11.322  20.545  0.00  0.00    +0.000 N 
ATOM      8  C   UNL     1      -0.492  10.909  21.961  0.00  0.00    +0.000 C 
ATOM      9  C   UNL     1      -1.268  12.025  22.734  0.00  0.00    +0.000 C 
ATOM     10  N   UNL     1      -2.576  12.238  22.072  0.00  0.00    +0.000 N 
ATOM     11  C   UNL     1      -3.502  13.051  22.735  0.00  0.00    +0.000 A 
ATOM     12  C   UNL     1      -4.867  12.886  22.446  0.00  0.00    +0.000 A 
ATOM     13  N   UNL     1      -5.862  13.627  22.982  0.00  0.00    +0.000 NA
ATOM     14  C   UNL     1      -5.445  14.567  23.855  0.00  0.00    +0.000 A 
ATOM     15  C   UNL     1      -4.105  14.741  24.167  0.00  0.00    +0.000 A 
ATOM     16  N   UNL     1      -3.111  13.989  23.626  0.00  0.00    +0.000 NA
ATOM     17  C   UNL     1      -2.425  12.636  20.654  0.00  0.00    +0.000 C 
ATOM     18  C   UNL     1      -1.674  11.517  19.898  0.00  0.00    +0.000 C 
ENDBRANCH   6   7
BRANCH   1  21
ATOM     19  C   UNL     1       1.725  13.796  19.453  0.00  0.00    +0.000 C 
ATOM     20  O   UNL     1       2.600  13.519  20.269  0.00  0.00    +0.000 OA
ATOM     21  N   UNL     1       0.988  12.880  18.725  0.00  0.00    +0.000 N 
ATOM     22  H   UNL     1       0.626  13.176  17.823  0.00  0.00    +0.000 HD
BRANCH  19  31
ATOM     23  C   UNL     1      -0.088  15.727  20.991  0.00  0.00    +0.000 C 
ATOM     24  C   UNL     1       0.726  16.134  19.799  0.00  0.00    +0.000 A 
ATOM     25  C   UNL     1       0.711  17.479  19.390  0.00  0.00    +0.000 A 
ATOM     26  F   UNL     1      -0.040  18.369  20.054  0.00  0.00    +0.000 F 
ATOM     27  C   UNL     1       1.479  17.940  18.325  0.00  0.00    +0.000 A 
ATOM     28  C   UNL     1       2.273  17.039  17.639  0.00  0.00    +0.000 A 
ATOM     29  F   UNL     1       3.022  17.466  16.615  0.00  0.00    +0.000 F 
ATOM     30  C   UNL     1       2.316  15.700  18.005  0.00  0.00    +0.000 A 
ATOM     31  C   UNL     1       1.545  15.236  19.089  0.00  0.00    +0.000 A 
ENDBRANCH  19  31
ENDBRANCH   1  21
BRANCH   4  32
ATOM     32  C   UNL     1       2.062   7.228  18.774  0.00  0.00    +0.000 C 
ATOM     33  C   UNL     1       3.312   6.869  17.969  0.00  0.00    +0.000 C 
ATOM     34  C   UNL     1       2.107   6.592  20.165  0.00  0.00    +0.000 C 
ENDBRANCH   4  32
TORSDOF 4
ENDMDL
MODEL 8
REMARK VINA RESULT:      -6.6      4.784      9.135
REMARK  Name = 
REMARK  7 active torsions:
REMARK  status: ('A' for Active; 'I' for Inactive)
REMARK    1  A    between atoms: C_1  and  C_2
REMARK    2  A    between atoms: C_9  and  C_10
REMARK    3  A    between atoms: N_12  and  C_13
REMARK    4  A    between atoms: C_16  and  C_17
REMARK    5  A    between atoms: C_17  and  C_18
REMARK    6  A    between atoms: C_17  and  C_19
REMARK    7  A    between atoms: C_21  and  N_22
REMARK                            x       y       z     vdW  Elec       q    Type
REMARK                         _______ _______ _______ _____ _____    ______ ____
ROOT
ATOM      1  C   UNL     1      -0.508  13.910  21.672  0.00  0.00    +0.000 A 
ATOM      2  C   UNL     1      -1.137  14.965  22.327  0.00  0.00    +0.000 A 
ATOM      3  C   UNL     1      -2.404  14.773  22.875  0.00  0.00    +0.000 A 
ATOM      4  C   UNL     1      -3.054  13.533  22.795  0.00  0.00    +0.000 A 
ATOM      5  C   UNL     1      -2.413  12.479  22.103  0.00  0.00    +0.000 A 
ATOM      6  C   UNL     1      -1.139  12.648  21.527  0.00  0.00    +0.000 A 
ENDROOT
BRANCH   6   7
ATOM      7  N   UNL     1      -0.429  11.623  20.877  0.00  0.00    +0.000 N 
ATOM      8  C   UNL     1      -1.009  10.950  19.690  0.00  0.00    +0.000 C 
ATOM      9  C   UNL     1       0.132  10.198  18.929  0.00  0.00    +0.000 C 
ATOM     10  N   UNL     1       0.772   9.241  19.862  0.00  0.00    +0.000 N 
ATOM     11  C   UNL     1       1.680   8.327  19.314  0.00  0.00    +0.000 A 
ATOM     12  C   UNL     1       1.915   7.124  20.000  0.00  0.00    +0.000 A 
ATOM     13  N   UNL     1       2.792   6.173  19.608  0.00  0.00    +0.000 NA
ATOM     14  C   UNL     1       3.444   6.459  18.462  0.00  0.00    +0.000 A 
ATOM     15  C   UNL     1       3.219   7.633  17.759  0.00  0.00    +0.000 A 
ATOM     16  N   UNL     1       2.334   8.583  18.159  0.00  0.00    +0.000 NA
ATOM     17  C   UNL     1       1.338   9.917  21.051  0.00  0.00    +0.000 C 
ATOM     18  C   UNL     1       0.198  10.640  21.804  0.00  0.00    +0.000 C 
ENDBRANCH   6   7
BRANCH   1  21
ATOM     19  C   UNL     1       0.974  14.720  19.892  0.00  0.00    +0.000 C 
ATOM     20  O   UNL     1       0.081  15.109  19.145  0.00  0.00    +0.000 OA
ATOM     21  N   UNL     1       0.785  14.071  21.099  0.00  0.00    +0.000 N 
ATOM     22  H   UNL     1       1.507  14.173  21.806  0.00  0.00    +0.000 HD
BRANCH  19  31
ATOM     23  C   UNL     1       2.851  13.040  18.149  0.00  0.00    +0.000 C 
ATOM     24  C   UNL     1       3.243  14.359  18.749  0.00  0.00    +0.000 A 
ATOM     25  C   UNL     1       4.511  14.890  18.458  0.00  0.00    +0.000 A 
ATOM     26  F   UNL     1       5.355  14.208  17.671  0.00  0.00    +0.000 F 
ATOM     27  C   UNL     1       4.925  16.129  18.937  0.00  0.00    +0.000 A 
ATOM     28  C   UNL     1       4.061  16.854  19.738  0.00  0.00    +0.000 A 
ATOM     29  F   UNL     1       4.441  18.050  20.203  0.00  0.00    +0.000 F 
ATOM     30  C   UNL     1       2.800  16.367  20.055  0.00  0.00    +0.000 A 
ATOM     31  C   UNL     1       2.378  15.116  19.561  0.00  0.00    +0.000 A 
ENDBRANCH  19  31
ENDBRANCH   1  21
BRANCH   4  32
ATOM     32  C   UNL     1      -4.388  13.369  23.516  0.00  0.00    +0.000 C 
ATOM     33  C   UNL     1      -5.533  12.971  22.585  0.00  0.00    +0.000 C 
ATOM     34  C   UNL     1      -4.278  12.399  24.694  0.00  0.00    +0.000 C 
ENDBRANCH   4  32
TORSDOF 4
ENDMDL
MODEL 9
REMARK VINA RESULT:      -6.6      4.405      8.623
REMARK  Name = 
REMARK  7 active torsions:
REMARK  status: ('A' for Active; 'I' for Inactive)
REMARK    1  A    between atoms: C_1  and  C_2
REMARK    2  A    between atoms: C_9  and  C_10
REMARK    3  A    between atoms: N_12  and  C_13
REMARK    4  A    between atoms: C_16  and  C_17
REMARK    5  A    between atoms: C_17  and  C_18
REMARK    6  A    between atoms: C_17  and  C_19
REMARK    7  A    between atoms: C_21  and  N_22
REMARK                            x       y       z     vdW  Elec       q    Type
REMARK                         _______ _______ _______ _____ _____    ______ ____
ROOT
ATOM      1  C   UNL     1      -1.617  14.803  20.998  0.00  0.00    +0.000 A 
ATOM      2  C   UNL     1      -2.306  15.850  21.606  0.00  0.00    +0.000 A 
ATOM      3  C   UNL     1      -3.288  15.565  22.553  0.00  0.00    +0.000 A 
ATOM      4  C   UNL     1      -3.588  14.245  22.920  0.00  0.00    +0.000 A 
ATOM      5  C   UNL     1      -2.898  13.193  22.275  0.00  0.00    +0.000 A 
ATOM      6  C   UNL     1      -1.910  13.450  21.303  0.00  0.00    +0.000 A 
ENDROOT
BRANCH   6   7
ATOM      7  N   UNL     1      -1.153  12.449  20.669  0.00  0.00    +0.000 N 
ATOM      8  C   UNL     1      -1.744  11.650  19.569  0.00  0.00    +0.000 C 
ATOM      9  C   UNL     1      -0.591  10.950  18.778  0.00  0.00    +0.000 C 
ATOM     10  N   UNL     1       0.192  10.117  19.721  0.00  0.00    +0.000 N 
ATOM     11  C   UNL     1       1.142   9.250  19.168  0.00  0.00    +0.000 A 
ATOM     12  C   UNL     1       1.529   8.121  19.908  0.00  0.00    +0.000 A 
ATOM     13  N   UNL     1       2.461   7.225  19.514  0.00  0.00    +0.000 NA
ATOM     14  C   UNL     1       3.011   7.489  18.311  0.00  0.00    +0.000 A 
ATOM     15  C   UNL     1       2.636   8.590  17.555  0.00  0.00    +0.000 A 
ATOM     16  N   UNL     1       1.695   9.484  17.957  0.00  0.00    +0.000 NA
ATOM     17  C   UNL     1       0.769  10.917  20.824  0.00  0.00    +0.000 C 
ATOM     18  C   UNL     1      -0.381  11.588  21.609  0.00  0.00    +0.000 C 
ENDBRANCH   6   7
BRANCH   1  21
ATOM     19  C   UNL     1       0.472  15.879  20.293  0.00  0.00    +0.000 C 
ATOM     20  O   UNL     1       0.622  16.553  21.309  0.00  0.00    +0.000 OA
ATOM     21  N   UNL     1      -0.609  15.058  20.026  0.00  0.00    +0.000 N 
ATOM     22  H   UNL     1      -0.456  14.262  19.415  0.00  0.00    +0.000 HD
BRANCH  19  31
ATOM     23  C   UNL     1       2.663  13.741  20.410  0.00  0.00    +0.000 C 
ATOM     24  C   UNL     1       2.619  14.821  19.369  0.00  0.00    +0.000 A 
ATOM     25  C   UNL     1       3.593  14.829  18.355  0.00  0.00    +0.000 A 
ATOM     26  F   UNL     1       4.552  13.893  18.344  0.00  0.00    +0.000 F 
ATOM     27  C   UNL     1       3.586  15.768  17.328  0.00  0.00    +0.000 A 
ATOM     28  C   UNL     1       2.594  16.732  17.314  0.00  0.00    +0.000 A 
ATOM     29  F   UNL     1       2.571  17.639  16.330  0.00  0.00    +0.000 F 
ATOM     30  C   UNL     1       1.615  16.764  18.297  0.00  0.00    +0.000 A 
ATOM     31  C   UNL     1       1.616  15.808  19.332  0.00  0.00    +0.000 A 
ENDBRANCH  19  31
ENDBRANCH   1  21
BRANCH   4  32
ATOM     32  C   UNL     1      -4.594  14.019  24.043  0.00  0.00    +0.000 C 
ATOM     33  C   UNL     1      -6.042  14.260  23.616  0.00  0.00    +0.000 C 
ATOM     34  C   UNL     1      -4.434  12.635  24.675  0.00  0.00    +0.000 C 
ENDBRANCH   4  32
TORSDOF 4
ENDMDL
