MODEL 1
REMARK VINA RESULT:      -8.7      0.000      0.000
REMARK  Name = 
REMARK  6 active torsions:
REMARK  status: ('A' for Active; 'I' for Inactive)
REMARK    1  A    between atoms: C_2  and  C_20
REMARK    2  A    between atoms: N_3  and  C_4
REMARK    3  A    between atoms: C_9  and  C_10
REMARK    4  A    between atoms: N_12  and  C_13
REMARK    5  A    between atoms: C_22  and  C_23
REMARK    6  A    between atoms: C_28  and  C_29
REMARK                            x       y       z     vdW  Elec       q    Type
REMARK                         _______ _______ _______ _____ _____    ______ ____
ROOT
ATOM      1  O   UNL     1       1.142   6.228  21.093  0.00  0.00    +0.000 OA
ATOM      2  C   UNL     1       1.715   6.756  20.149  0.00  0.00    +0.000 C 
ATOM      3  N   UNL     1       1.806   8.123  19.932  0.00  0.00    +0.000 N 
ATOM      4  H   UNL     1       1.770   8.352  18.942  0.00  0.00    +0.000 HD
ENDROOT
BRANCH   3   5
ATOM      5  C   UNL     1       1.085   9.016  20.759  0.00  0.00    +0.000 A 
ATOM      6  C   UNL     1       1.270   8.877  22.144  0.00  0.00    +0.000 A 
ATOM      7  C   UNL     1       0.534   9.649  23.044  0.00  0.00    +0.000 A 
ATOM      8  C   UNL     1      -0.414  10.547  22.572  0.00  0.00    +0.000 A 
ATOM      9  C   UNL     1      -0.621  10.678  21.199  0.00  0.00    +0.000 A 
ATOM     10  C   UNL     1       0.126   9.922  20.272  0.00  0.00    +0.000 A 
BRANCH  10  11
ATOM     11  C   UNL     1      -0.331  10.039  18.853  0.00  0.00    +0.000 C 
ATOM     12  O   UNL     1       0.546  10.125  17.996  0.00  0.00    +0.000 OA
ATOM     13  N   UNL     1      -1.692  10.028  18.608  0.00  0.00    +0.000 N 
ATOM     14  H   UNL     1      -2.297   9.885  19.406  0.00  0.00    +0.000 HD
BRANCH  13  15
ATOM     15  C   UNL     1      -2.324  10.119  17.346  0.00  0.00    +0.000 A 
ATOM     16  C   UNL     1      -1.908   9.398  16.220  0.00  0.00    +0.000 A 
ATOM     17  C   UNL     1      -2.595   9.498  15.006  0.00  0.00    +0.000 A 
ATOM     18  C   UNL     1      -3.698  10.336  14.903  0.00  0.00    +0.000 A 
ATOM     19 CL   UNL     1      -4.552  10.443  13.413  0.00  0.00    +0.000 Cl
ATOM     20  C   UNL     1      -4.116  11.078  16.005  0.00  0.00    +0.000 A 
ATOM     21  C   UNL     1      -3.437  10.964  17.225  0.00  0.00    +0.000 A 
ENDBRANCH  13  15
ENDBRANCH  10  11
ENDBRANCH   3   5
BRANCH   2  22
ATOM     22  C   UNL     1       2.468   5.917  19.183  0.00  0.00    +0.000 A 
ATOM     23  C   UNL     1       2.297   4.528  19.178  0.00  0.00    +0.000 A 
ATOM     24  C   UNL     1       3.076   3.727  18.327  0.00  0.00    +0.000 A 
ATOM     25  C   UNL     1       4.031   4.340  17.491  0.00  0.00    +0.000 A 
ATOM     26  C   UNL     1       4.226   5.729  17.512  0.00  0.00    +0.000 A 
ATOM     27  C   UNL     1       3.434   6.510  18.363  0.00  0.00    +0.000 A 
BRANCH  24  28
ATOM     28  C   UNL     1       2.915   2.220  18.295  0.00  0.00    +0.000 C 
ATOM     29  F   UNL     1       2.520   1.738  17.089  0.00  0.00    +0.000 F 
ATOM     30  F   UNL     1       4.069   1.571  18.605  0.00  0.00    +0.000 F 
ATOM     31  F   UNL     1       1.989   1.787  19.198  0.00  0.00    +0.000 F 
ENDBRANCH  24  28
BRANCH  26  32
ATOM     32  C   UNL     1       5.284   6.402  16.669  0.00  0.00    +0.000 C 
ATOM     33  F   UNL     1       5.965   7.377  17.326  0.00  0.00    +0.000 F 
ATOM     34  F   UNL     1       6.219   5.517  16.224  0.00  0.00    +0.000 F 
ATOM     35  F   UNL     1       4.758   6.985  15.559  0.00  0.00    +0.000 F 
ENDBRANCH  26  32
ENDBRANCH   2  22
TORSDOF 6
ENDMDL
MODEL 2
REMARK VINA RESULT:      -8.7      0.372      3.195
REMARK  Name = 
REMARK  6 active torsions:
REMARK  status: ('A' for Active; 'I' for Inactive)
REMARK    1  A    between atoms: C_2  and  C_20
REMARK    2  A    between atoms: N_3  and  C_4
REMARK    3  A    between atoms: C_9  and  C_10
REMARK    4  A    between atoms: N_12  and  C_13
REMARK    5  A    between atoms: C_22  and  C_23
REMARK    6  A    between atoms: C_28  and  C_29
REMARK                            x       y       z     vdW  Elec       q    Type
REMARK                         _______ _______ _______ _____ _____    ______ ____
ROOT
ATOM      1  O   UNL     1       1.111   6.258  21.023  0.00  0.00    +0.000 OA
ATOM      2  C   UNL     1       1.761   6.824  20.153  0.00  0.00    +0.000 C 
ATOM      3  N   UNL     1       1.873   8.199  20.006  0.00  0.00    +0.000 N 
ATOM      4  H   UNL     1       1.919   8.471  19.027  0.00  0.00    +0.000 HD
ENDROOT
BRANCH   3   5
ATOM      5  C   UNL     1       1.089   9.058  20.809  0.00  0.00    +0.000 A 
ATOM      6  C   UNL     1       1.281   8.968  22.198  0.00  0.00    +0.000 A 
ATOM      7  C   UNL     1       0.490   9.708  23.078  0.00  0.00    +0.000 A 
ATOM      8  C   UNL     1      -0.520  10.524  22.583  0.00  0.00    +0.000 A 
ATOM      9  C   UNL     1      -0.733  10.604  21.207  0.00  0.00    +0.000 A 
ATOM     10  C   UNL     1       0.068   9.880  20.300  0.00  0.00    +0.000 A 
BRANCH  10  11
ATOM     11  C   UNL     1      -0.394   9.928  18.878  0.00  0.00    +0.000 C 
ATOM     12  O   UNL     1       0.467   9.788  18.013  0.00  0.00    +0.000 OA
ATOM     13  N   UNL     1      -1.744  10.110  18.642  0.00  0.00    +0.000 N 
ATOM     14  H   UNL     1      -2.348  10.145  19.453  0.00  0.00    +0.000 HD
BRANCH  13  15
ATOM     15  C   UNL     1      -2.380  10.175  17.380  0.00  0.00    +0.000 A 
ATOM     16  C   UNL     1      -3.430  11.055  17.089  0.00  0.00    +0.000 A 
ATOM     17  C   UNL     1      -3.996  11.103  15.811  0.00  0.00    +0.000 A 
ATOM     18  C   UNL     1      -3.527  10.257  14.815  0.00  0.00    +0.000 A 
ATOM     19 CL   UNL     1      -4.213  10.331  13.239  0.00  0.00    +0.000 Cl
ATOM     20  C   UNL     1      -2.497   9.361  15.088  0.00  0.00    +0.000 A 
ATOM     21  C   UNL     1      -1.920   9.325  16.364  0.00  0.00    +0.000 A 
ENDBRANCH  13  15
ENDBRANCH  10  11
ENDBRANCH   3   5
BRANCH   2  22
ATOM     22  C   UNL     1       2.589   6.023  19.216  0.00  0.00    +0.000 A 
ATOM     23  C   UNL     1       3.434   6.664  18.303  0.00  0.00    +0.000 A 
ATOM     24  C   UNL     1       4.147   5.911  17.356  0.00  0.00    +0.000 A 
ATOM     25  C   UNL     1       3.993   4.510  17.337  0.00  0.00    +0.000 A 
ATOM     26  C   UNL     1       3.127   3.865  18.232  0.00  0.00    +0.000 A 
ATOM     27  C   UNL     1       2.430   4.634  19.172  0.00  0.00    +0.000 A 
BRANCH  24  28
ATOM     28  C   UNL     1       5.072   6.573  16.354  0.00  0.00    +0.000 C 
ATOM     29  F   UNL     1       5.797   5.695  15.615  0.00  0.00    +0.000 F 
ATOM     30  F   UNL     1       4.397   7.351  15.466  0.00  0.00    +0.000 F 
ATOM     31  F   UNL     1       5.975   7.395  16.961  0.00  0.00    +0.000 F 
ENDBRANCH  24  28
BRANCH  26  32
ATOM     32  C   UNL     1       2.901   2.371  18.191  0.00  0.00    +0.000 C 
ATOM     33  F   UNL     1       1.779   2.009  17.514  0.00  0.00    +0.000 F 
ATOM     34  F   UNL     1       3.934   1.716  17.595  0.00  0.00    +0.000 F 
ATOM     35  F   UNL     1       2.783   1.838  19.436  0.00  0.00    +0.000 F 
ENDBRANCH  26  32
ENDBRANCH   2  22
TORSDOF 6
ENDMDL
MODEL 3
REMARK VINA RESULT:      -8.7      4.243      6.142
REMARK  Name = 
REMARK  6 active torsions:
REMARK  status: ('A' for Active; 'I' for Inactive)
REMARK    1  A    between atoms: C_2  and  C_20
REMARK    2  A    between atoms: N_3  and  C_4
REMARK    3  A    between atoms: C_9  and  C_10
REMARK    4  A    between atoms: N_12  and  C_13
REMARK    5  A    between atoms: C_22  and  C_23
REMARK    6  A    between atoms: C_28  and  C_29
REMARK                            x       y       z     vdW  Elec       q    Type
REMARK                         _______ _______ _______ _____ _____    ______ ____
ROOT
ATOM      1  O   UNL     1       1.239   8.890  20.483  0.00  0.00    +0.000 OA
ATOM      2  C   UNL     1       1.469   8.626  19.310  0.00  0.00    +0.000 C 
ATOM      3  N   UNL     1       1.001   9.346  18.221  0.00  0.00    +0.000 N 
ATOM      4  H   UNL     1       0.785   8.742  17.433  0.00  0.00    +0.000 HD
ENDROOT
BRANCH   3   5
ATOM      5  C   UNL     1       0.072  10.395  18.418  0.00  0.00    +0.000 A 
ATOM      6  C   UNL     1      -1.286  10.065  18.280  0.00  0.00    +0.000 A 
ATOM      7  C   UNL     1      -2.272  11.049  18.366  0.00  0.00    +0.000 A 
ATOM      8  C   UNL     1      -1.912  12.376  18.561  0.00  0.00    +0.000 A 
ATOM      9  C   UNL     1      -0.565  12.717  18.679  0.00  0.00    +0.000 A 
ATOM     10  C   UNL     1       0.446  11.736  18.615  0.00  0.00    +0.000 A 
BRANCH  10  11
ATOM     11  C   UNL     1       1.841  12.274  18.577  0.00  0.00    +0.000 C 
ATOM     12  O   UNL     1       2.678  11.595  17.986  0.00  0.00    +0.000 OA
ATOM     13  N   UNL     1       2.085  13.489  19.189  0.00  0.00    +0.000 N 
ATOM     14  H   UNL     1       1.284  13.970  19.581  0.00  0.00    +0.000 HD
BRANCH  13  15
ATOM     15  C   UNL     1       3.323  14.168  19.257  0.00  0.00    +0.000 A 
ATOM     16  C   UNL     1       3.995  14.431  20.458  0.00  0.00    +0.000 A 
ATOM     17  C   UNL     1       5.237  15.074  20.463  0.00  0.00    +0.000 A 
ATOM     18  C   UNL     1       5.812  15.475  19.264  0.00  0.00    +0.000 A 
ATOM     19 CL   UNL     1       7.348  16.250  19.271  0.00  0.00    +0.000 Cl
ATOM     20  C   UNL     1       5.151  15.243  18.060  0.00  0.00    +0.000 A 
ATOM     21  C   UNL     1       3.915  14.584  18.056  0.00  0.00    +0.000 A 
ENDBRANCH  13  15
ENDBRANCH  10  11
ENDBRANCH   3   5
BRANCH   2  22
ATOM     22  C   UNL     1       2.393   7.513  18.975  0.00  0.00    +0.000 A 
ATOM     23  C   UNL     1       3.268   7.630  17.889  0.00  0.00    +0.000 A 
ATOM     24  C   UNL     1       4.076   6.544  17.517  0.00  0.00    +0.000 A 
ATOM     25  C   UNL     1       3.987   5.341  18.246  0.00  0.00    +0.000 A 
ATOM     26  C   UNL     1       3.092   5.208  19.318  0.00  0.00    +0.000 A 
ATOM     27  C   UNL     1       2.299   6.306  19.677  0.00  0.00    +0.000 A 
BRANCH  24  28
ATOM     28  C   UNL     1       5.036   6.637  16.347  0.00  0.00    +0.000 C 
ATOM     29  F   UNL     1       4.548   7.342  15.294  0.00  0.00    +0.000 F 
ATOM     30  F   UNL     1       6.211   7.229  16.690  0.00  0.00    +0.000 F 
ATOM     31  F   UNL     1       5.365   5.407  15.859  0.00  0.00    +0.000 F 
ENDBRANCH  24  28
BRANCH  26  32
ATOM     32  C   UNL     1       2.936   3.910  20.075  0.00  0.00    +0.000 C 
ATOM     33  F   UNL     1       2.002   3.079  19.544  0.00  0.00    +0.000 F 
ATOM     34  F   UNL     1       4.098   3.202  20.117  0.00  0.00    +0.000 F 
ATOM     35  F   UNL     1       2.573   4.115  21.370  0.00  0.00    +0.000 F 
ENDBRANCH  26  32
ENDBRANCH   2  22
TORSDOF 6
ENDMDL
MODEL 4
REMARK VINA RESULT:      -8.6      0.316      3.174
REMARK  Name = 
REMARK  6 active torsions:
REMARK  status: ('A' for Active; 'I' for Inactive)
REMARK    1  A    between atoms: C_2  and  C_20
REMARK    2  A    between atoms: N_3  and  C_4
REMARK    3  A    between atoms: C_9  and  C_10
REMARK    4  A    between atoms: N_12  and  C_13
REMARK    5  A    between atoms: C_22  and  C_23
REMARK    6  A    between atoms: C_28  and  C_29
REMARK                            x       y       z     vdW  Elec       q    Type
REMARK                         _______ _______ _______ _____ _____    ______ ____
ROOT
ATOM      1  O   UNL     1       1.121   6.277  21.118  0.00  0.00    +0.000 OA
ATOM      2  C   UNL     1       1.722   6.827  20.205  0.00  0.00    +0.000 C 
ATOM      3  N   UNL     1       1.809   8.198  20.015  0.00  0.00    +0.000 N 
ATOM      4  H   UNL     1       1.806   8.444  19.029  0.00  0.00    +0.000 HD
ENDROOT
BRANCH   3   5
ATOM      5  C   UNL     1       1.052   9.069  20.832  0.00  0.00    +0.000 A 
ATOM      6  C   UNL     1       1.255   8.966  22.218  0.00  0.00    +0.000 A 
ATOM      7  C   UNL     1       0.489   9.718  23.110  0.00  0.00    +0.000 A 
ATOM      8  C   UNL     1      -0.507  10.559  22.630  0.00  0.00    +0.000 A 
ATOM      9  C   UNL     1      -0.731  10.653  21.257  0.00  0.00    +0.000 A 
ATOM     10  C   UNL     1       0.045   9.917  20.338  0.00  0.00    +0.000 A 
BRANCH  10  11
ATOM     11  C   UNL     1      -0.430   9.984  18.921  0.00  0.00    +0.000 C 
ATOM     12  O   UNL     1       0.431   9.914  18.046  0.00  0.00    +0.000 OA
ATOM     13  N   UNL     1      -1.789  10.105  18.698  0.00  0.00    +0.000 N 
ATOM     14  H   UNL     1      -2.388  10.084  19.514  0.00  0.00    +0.000 HD
BRANCH  13  15
ATOM     15  C   UNL     1      -2.437  10.176  17.443  0.00  0.00    +0.000 A 
ATOM     16  C   UNL     1      -3.553  10.985  17.194  0.00  0.00    +0.000 A 
ATOM     17  C   UNL     1      -4.130  11.045  15.922  0.00  0.00    +0.000 A 
ATOM     18  C   UNL     1      -3.605  10.281  14.888  0.00  0.00    +0.000 A 
ATOM     19 CL   UNL     1      -4.305  10.370  13.319  0.00  0.00    +0.000 Cl
ATOM     20  C   UNL     1      -2.508   9.454  15.118  0.00  0.00    +0.000 A 
ATOM     21  C   UNL     1      -1.921   9.407  16.389  0.00  0.00    +0.000 A 
ENDBRANCH  13  15
ENDBRANCH  10  11
ENDBRANCH   3   5
BRANCH   2  22
ATOM     22  C   UNL     1       2.516   6.011  19.251  0.00  0.00    +0.000 A 
ATOM     23  C   UNL     1       3.481   6.620  18.441  0.00  0.00    +0.000 A 
ATOM     24  C   UNL     1       4.166   5.865  17.475  0.00  0.00    +0.000 A 
ATOM     25  C   UNL     1       3.863   4.495  17.333  0.00  0.00    +0.000 A 
ATOM     26  C   UNL     1       2.879   3.886  18.124  0.00  0.00    +0.000 A 
ATOM     27  C   UNL     1       2.211   4.655  19.085  0.00  0.00    +0.000 A 
BRANCH  24  28
ATOM     28  C   UNL     1       5.218   6.492  16.582  0.00  0.00    +0.000 C 
ATOM     29  F   UNL     1       5.958   7.449  17.197  0.00  0.00    +0.000 F 
ATOM     30  F   UNL     1       6.102   5.576  16.103  0.00  0.00    +0.000 F 
ATOM     31  F   UNL     1       4.666   7.086  15.485  0.00  0.00    +0.000 F 
ENDBRANCH  24  28
BRANCH  26  32
ATOM     32  C   UNL     1       2.495   2.435  17.948  0.00  0.00    +0.000 C 
ATOM     33  F   UNL     1       3.324   1.571  18.592  0.00  0.00    +0.000 F 
ATOM     34  F   UNL     1       1.242   2.179  18.414  0.00  0.00    +0.000 F 
ATOM     35  F   UNL     1       2.496   2.061  16.641  0.00  0.00    +0.000 F 
ENDBRANCH  26  32
ENDBRANCH   2  22
TORSDOF 6
ENDMDL
MODEL 5
REMARK VINA RESULT:      -8.6      5.155      8.917
REMARK  Name = 
REMARK  6 active torsions:
REMARK  status: ('A' for Active; 'I' for Inactive)
REMARK    1  A    between atoms: C_2  and  C_20
REMARK    2  A    between atoms: N_3  and  C_4
REMARK    3  A    between atoms: C_9  and  C_10
REMARK    4  A    between atoms: N_12  and  C_13
REMARK    5  A    between atoms: C_22  and  C_23
REMARK    6  A    between atoms: C_28  and  C_29
REMARK                            x       y       z     vdW  Elec       q    Type
REMARK                         _______ _______ _______ _____ _____    ______ ____
ROOT
ATOM      1  O   UNL     1       3.794   7.213  16.937  0.00  0.00    +0.000 OA
ATOM      2  C   UNL     1       3.839   6.213  17.642  0.00  0.00    +0.000 C 
ATOM      3  N   UNL     1       4.741   5.170  17.494  0.00  0.00    +0.000 N 
ATOM      4  H   UNL     1       4.319   4.272  17.715  0.00  0.00    +0.000 HD
ENDROOT
BRANCH   3   5
ATOM      5  C   UNL     1       5.608   5.143  16.377  0.00  0.00    +0.000 A 
ATOM      6  C   UNL     1       5.335   4.179  15.393  0.00  0.00    +0.000 A 
ATOM      7  C   UNL     1       6.187   4.014  14.300  0.00  0.00    +0.000 A 
ATOM      8  C   UNL     1       7.334   4.790  14.192  0.00  0.00    +0.000 A 
ATOM      9  C   UNL     1       7.625   5.735  15.174  0.00  0.00    +0.000 A 
ATOM     10  C   UNL     1       6.768   5.932  16.277  0.00  0.00    +0.000 A 
BRANCH  10  11
ATOM     11  C   UNL     1       7.303   6.847  17.332  0.00  0.00    +0.000 C 
ATOM     12  O   UNL     1       7.384   6.390  18.470  0.00  0.00    +0.000 OA
ATOM     13  N   UNL     1       7.676   8.124  16.954  0.00  0.00    +0.000 N 
ATOM     14  H   UNL     1       7.616   8.342  15.968  0.00  0.00    +0.000 HD
BRANCH  13  15
ATOM     15  C   UNL     1       8.208   9.132  17.792  0.00  0.00    +0.000 A 
ATOM     16  C   UNL     1       8.849   8.866  19.009  0.00  0.00    +0.000 A 
ATOM     17  C   UNL     1       9.389   9.900  19.778  0.00  0.00    +0.000 A 
ATOM     18  C   UNL     1       9.279  11.215  19.345  0.00  0.00    +0.000 A 
ATOM     19 CL   UNL     1       9.962  12.484  20.285  0.00  0.00    +0.000 Cl
ATOM     20  C   UNL     1       8.628  11.503  18.148  0.00  0.00    +0.000 A 
ATOM     21  C   UNL     1       8.101  10.465  17.370  0.00  0.00    +0.000 A 
ENDBRANCH  13  15
ENDBRANCH  10  11
ENDBRANCH   3   5
BRANCH   2  22
ATOM     22  C   UNL     1       2.941   6.103  18.820  0.00  0.00    +0.000 A 
ATOM     23  C   UNL     1       2.380   7.254  19.384  0.00  0.00    +0.000 A 
ATOM     24  C   UNL     1       1.606   7.159  20.552  0.00  0.00    +0.000 A 
ATOM     25  C   UNL     1       1.411   5.895  21.145  0.00  0.00    +0.000 A 
ATOM     26  C   UNL     1       1.994   4.742  20.599  0.00  0.00    +0.000 A 
ATOM     27  C   UNL     1       2.757   4.858  19.431  0.00  0.00    +0.000 A 
BRANCH  24  28
ATOM     28  C   UNL     1       0.982   8.385  21.188  0.00  0.00    +0.000 C 
ATOM     29  F   UNL     1       1.619   8.803  22.312  0.00  0.00    +0.000 F 
ATOM     30  F   UNL     1       0.961   9.451  20.344  0.00  0.00    +0.000 F 
ATOM     31  F   UNL     1      -0.316   8.168  21.547  0.00  0.00    +0.000 F 
ENDBRANCH  24  28
BRANCH  26  32
ATOM     32  C   UNL     1       1.848   3.387  21.251  0.00  0.00    +0.000 C 
ATOM     33  F   UNL     1       2.219   3.369  22.558  0.00  0.00    +0.000 F 
ATOM     34  F   UNL     1       0.564   2.938  21.212  0.00  0.00    +0.000 F 
ATOM     35  F   UNL     1       2.599   2.438  20.629  0.00  0.00    +0.000 F 
ENDBRANCH  26  32
ENDBRANCH   2  22
TORSDOF 6
ENDMDL
MODEL 6
REMARK VINA RESULT:      -8.6      5.227      8.557
REMARK  Name = 
REMARK  6 active torsions:
REMARK  status: ('A' for Active; 'I' for Inactive)
REMARK    1  A    between atoms: C_2  and  C_20
REMARK    2  A    between atoms: N_3  and  C_4
REMARK    3  A    between atoms: C_9  and  C_10
REMARK    4  A    between atoms: N_12  and  C_13
REMARK    5  A    between atoms: C_22  and  C_23
REMARK    6  A    between atoms: C_28  and  C_29
REMARK                            x       y       z     vdW  Elec       q    Type
REMARK                         _______ _______ _______ _____ _____    ______ ____
ROOT
ATOM      1  O   UNL     1       3.866   7.028  17.103  0.00  0.00    +0.000 OA
ATOM      2  C   UNL     1       3.987   6.014  17.778  0.00  0.00    +0.000 C 
ATOM      3  N   UNL     1       4.918   5.010  17.556  0.00  0.00    +0.000 N 
ATOM      4  H   UNL     1       4.543   4.091  17.774  0.00  0.00    +0.000 HD
ENDROOT
BRANCH   3   5
ATOM      5  C   UNL     1       5.724   5.046  16.394  0.00  0.00    +0.000 A 
ATOM      6  C   UNL     1       5.437   4.094  15.402  0.00  0.00    +0.000 A 
ATOM      7  C   UNL     1       6.235   3.990  14.261  0.00  0.00    +0.000 A 
ATOM      8  C   UNL     1       7.343   4.814  14.112  0.00  0.00    +0.000 A 
ATOM      9  C   UNL     1       7.649   5.747  15.102  0.00  0.00    +0.000 A 
ATOM     10  C   UNL     1       6.845   5.883  16.253  0.00  0.00    +0.000 A 
BRANCH  10  11
ATOM     11  C   UNL     1       7.399   6.795  17.301  0.00  0.00    +0.000 C 
ATOM     12  O   UNL     1       7.588   6.306  18.413  0.00  0.00    +0.000 OA
ATOM     13  N   UNL     1       7.669   8.103  16.945  0.00  0.00    +0.000 N 
ATOM     14  H   UNL     1       7.526   8.350  15.974  0.00  0.00    +0.000 HD
BRANCH  13  15
ATOM     15  C   UNL     1       8.199   9.114  17.781  0.00  0.00    +0.000 A 
ATOM     16  C   UNL     1       8.853   8.851  18.991  0.00  0.00    +0.000 A 
ATOM     17  C   UNL     1       9.391   9.889  19.759  0.00  0.00    +0.000 A 
ATOM     18  C   UNL     1       9.266  11.204  19.329  0.00  0.00    +0.000 A 
ATOM     19 CL   UNL     1       9.945  12.477  20.266  0.00  0.00    +0.000 Cl
ATOM     20  C   UNL     1       8.602  11.488  18.138  0.00  0.00    +0.000 A 
ATOM     21  C   UNL     1       8.077  10.447  17.362  0.00  0.00    +0.000 A 
ENDBRANCH  13  15
ENDBRANCH  10  11
ENDBRANCH   3   5
BRANCH   2  22
ATOM     22  C   UNL     1       3.158   5.840  18.999  0.00  0.00    +0.000 A 
ATOM     23  C   UNL     1       2.956   4.563  19.533  0.00  0.00    +0.000 A 
ATOM     24  C   UNL     1       2.099   4.388  20.632  0.00  0.00    +0.000 A 
ATOM     25  C   UNL     1       1.446   5.512  21.179  0.00  0.00    +0.000 A 
ATOM     26  C   UNL     1       1.624   6.790  20.630  0.00  0.00    +0.000 A 
ATOM     27  C   UNL     1       2.488   6.943  19.538  0.00  0.00    +0.000 A 
BRANCH  24  28
ATOM     28  C   UNL     1       1.858   3.019  21.237  0.00  0.00    +0.000 C 
ATOM     29  F   UNL     1       2.947   2.495  21.855  0.00  0.00    +0.000 F 
ATOM     30  F   UNL     1       0.864   3.032  22.165  0.00  0.00    +0.000 F 
ATOM     31  F   UNL     1       1.479   2.107  20.296  0.00  0.00    +0.000 F 
ENDBRANCH  24  28
BRANCH  26  32
ATOM     32  C   UNL     1       0.889   7.999  21.161  0.00  0.00    +0.000 C 
ATOM     33  F   UNL     1       1.447   8.526  22.283  0.00  0.00    +0.000 F 
ATOM     34  F   UNL     1       0.842   9.008  20.248  0.00  0.00    +0.000 F 
ATOM     35  F   UNL     1      -0.403   7.713  21.476  0.00  0.00    +0.000 F 
ENDBRANCH  26  32
ENDBRANCH   2  22
TORSDOF 6
ENDMDL
MODEL 7
REMARK VINA RESULT:      -8.5      0.326      1.227
REMARK  Name = 
REMARK  6 active torsions:
REMARK  status: ('A' for Active; 'I' for Inactive)
REMARK    1  A    between atoms: C_2  and  C_20
REMARK    2  A    between atoms: N_3  and  C_4
REMARK    3  A    between atoms: C_9  and  C_10
REMARK    4  A    between atoms: N_12  and  C_13
REMARK    5  A    between atoms: C_22  and  C_23
REMARK    6  A    between atoms: C_28  and  C_29
REMARK                            x       y       z     vdW  Elec       q    Type
REMARK                         _______ _______ _______ _____ _____    ______ ____
ROOT
ATOM      1  O   UNL     1       1.006   6.208  20.737  0.00  0.00    +0.000 OA
ATOM      2  C   UNL     1       1.675   6.770  19.879  0.00  0.00    +0.000 C 
ATOM      3  N   UNL     1       1.857   8.141  19.778  0.00  0.00    +0.000 N 
ATOM      4  H   UNL     1       1.906   8.446  18.810  0.00  0.00    +0.000 HD
ENDROOT
BRANCH   3   5
ATOM      5  C   UNL     1       1.129   9.011  20.623  0.00  0.00    +0.000 A 
ATOM      6  C   UNL     1       1.334   8.862  22.004  0.00  0.00    +0.000 A 
ATOM      7  C   UNL     1       0.594   9.610  22.921  0.00  0.00    +0.000 A 
ATOM      8  C   UNL     1      -0.378  10.494  22.470  0.00  0.00    +0.000 A 
ATOM      9  C   UNL     1      -0.603  10.635  21.101  0.00  0.00    +0.000 A 
ATOM     10  C   UNL     1       0.147   9.903  20.157  0.00  0.00    +0.000 A 
BRANCH  10  11
ATOM     11  C   UNL     1      -0.330  10.026  18.745  0.00  0.00    +0.000 C 
ATOM     12  O   UNL     1       0.535  10.093  17.874  0.00  0.00    +0.000 OA
ATOM     13  N   UNL     1      -1.694  10.041  18.521  0.00  0.00    +0.000 N 
ATOM     14  H   UNL     1      -2.290   9.911  19.329  0.00  0.00    +0.000 HD
BRANCH  13  15
ATOM     15  C   UNL     1      -2.344  10.141  17.269  0.00  0.00    +0.000 A 
ATOM     16  C   UNL     1      -3.246  11.162  16.946  0.00  0.00    +0.000 A 
ATOM     17  C   UNL     1      -3.831  11.233  15.678  0.00  0.00    +0.000 A 
ATOM     18  C   UNL     1      -3.529  10.270  14.723  0.00  0.00    +0.000 A 
ATOM     19 CL   UNL     1      -4.236  10.371  13.157  0.00  0.00    +0.000 Cl
ATOM     20  C   UNL     1      -2.650   9.235  15.029  0.00  0.00    +0.000 A 
ATOM     21  C   UNL     1      -2.053   9.174  16.295  0.00  0.00    +0.000 A 
ENDBRANCH  13  15
ENDBRANCH  10  11
ENDBRANCH   3   5
BRANCH   2  22
ATOM     22  C   UNL     1       2.448   5.962  18.903  0.00  0.00    +0.000 A 
ATOM     23  C   UNL     1       2.292   4.572  18.863  0.00  0.00    +0.000 A 
ATOM     24  C   UNL     1       3.090   3.798  18.003  0.00  0.00    +0.000 A 
ATOM     25  C   UNL     1       4.046   4.442  17.192  0.00  0.00    +0.000 A 
ATOM     26  C   UNL     1       4.226   5.832  17.247  0.00  0.00    +0.000 A 
ATOM     27  C   UNL     1       3.416   6.584  18.107  0.00  0.00    +0.000 A 
BRANCH  24  28
ATOM     28  C   UNL     1       2.946   2.291  17.935  0.00  0.00    +0.000 C 
ATOM     29  F   UNL     1       4.108   1.642  17.667  0.00  0.00    +0.000 F 
ATOM     30  F   UNL     1       2.475   1.764  19.096  0.00  0.00    +0.000 F 
ATOM     31  F   UNL     1       2.066   1.907  16.966  0.00  0.00    +0.000 F 
ENDBRANCH  24  28
BRANCH  26  32
ATOM     32  C   UNL     1       5.285   6.535  16.432  0.00  0.00    +0.000 C 
ATOM     33  F   UNL     1       6.235   5.699  15.936  0.00  0.00    +0.000 F 
ATOM     34  F   UNL     1       4.755   7.188  15.362  0.00  0.00    +0.000 F 
ATOM     35  F   UNL     1       5.947   7.476  17.158  0.00  0.00    +0.000 F 
ENDBRANCH  26  32
ENDBRANCH   2  22
TORSDOF 6
ENDMDL
MODEL 8
REMARK VINA RESULT:      -8.4      4.338      6.220
REMARK  Name = 
REMARK  6 active torsions:
REMARK  status: ('A' for Active; 'I' for Inactive)
REMARK    1  A    between atoms: C_2  and  C_20
REMARK    2  A    between atoms: N_3  and  C_4
REMARK    3  A    between atoms: C_9  and  C_10
REMARK    4  A    between atoms: N_12  and  C_13
REMARK    5  A    between atoms: C_22  and  C_23
REMARK    6  A    between atoms: C_28  and  C_29
REMARK                            x       y       z     vdW  Elec       q    Type
REMARK                         _______ _______ _______ _____ _____    ______ ____
ROOT
ATOM      1  O   UNL     1       0.951   9.052  20.797  0.00  0.00    +0.000 OA
ATOM      2  C   UNL     1       1.231   8.755  19.643  0.00  0.00    +0.000 C 
ATOM      3  N   UNL     1       0.868   9.482  18.518  0.00  0.00    +0.000 N 
ATOM      4  H   UNL     1       0.662   8.877  17.728  0.00  0.00    +0.000 HD
ENDROOT
BRANCH   3   5
ATOM      5  C   UNL     1      -0.007  10.585  18.648  0.00  0.00    +0.000 A 
ATOM      6  C   UNL     1      -1.381  10.312  18.548  0.00  0.00    +0.000 A 
ATOM      7  C   UNL     1      -2.318  11.346  18.571  0.00  0.00    +0.000 A 
ATOM      8  C   UNL     1      -1.893  12.665  18.664  0.00  0.00    +0.000 A 
ATOM      9  C   UNL     1      -0.530  12.948  18.742  0.00  0.00    +0.000 A 
ATOM     10  C   UNL     1       0.433  11.918  18.741  0.00  0.00    +0.000 A 
BRANCH  10  11
ATOM     11  C   UNL     1       1.851  12.384  18.648  0.00  0.00    +0.000 C 
ATOM     12  O   UNL     1       2.637  11.646  18.056  0.00  0.00    +0.000 OA
ATOM     13  N   UNL     1       2.171  13.603  19.215  0.00  0.00    +0.000 N 
ATOM     14  H   UNL     1       1.407  14.134  19.613  0.00  0.00    +0.000 HD
BRANCH  13  15
ATOM     15  C   UNL     1       3.444  14.221  19.229  0.00  0.00    +0.000 A 
ATOM     16  C   UNL     1       4.111  14.640  18.071  0.00  0.00    +0.000 A 
ATOM     17  C   UNL     1       5.351  15.281  18.147  0.00  0.00    +0.000 A 
ATOM     18  C   UNL     1       5.945  15.494  19.384  0.00  0.00    +0.000 A 
ATOM     19 CL   UNL     1       7.463  16.299  19.476  0.00  0.00    +0.000 Cl
ATOM     20  C   UNL     1       5.308  15.067  20.547  0.00  0.00    +0.000 A 
ATOM     21  C   UNL     1       4.058  14.440  20.470  0.00  0.00    +0.000 A 
ENDBRANCH  13  15
ENDBRANCH  10  11
ENDBRANCH   3   5
BRANCH   2  22
ATOM     22  C   UNL     1       2.106   7.585  19.377  0.00  0.00    +0.000 A 
ATOM     23  C   UNL     1       3.007   7.611  18.308  0.00  0.00    +0.000 A 
ATOM     24  C   UNL     1       3.769   6.471  18.000  0.00  0.00    +0.000 A 
ATOM     25  C   UNL     1       3.604   5.307  18.779  0.00  0.00    +0.000 A 
ATOM     26  C   UNL     1       2.682   5.266  19.834  0.00  0.00    +0.000 A 
ATOM     27  C   UNL     1       1.938   6.415  20.127  0.00  0.00    +0.000 A 
BRANCH  24  28
ATOM     28  C   UNL     1       4.755   6.466  16.850  0.00  0.00    +0.000 C 
ATOM     29  F   UNL     1       4.959   5.238  16.309  0.00  0.00    +0.000 F 
ATOM     30  F   UNL     1       4.360   7.271  15.828  0.00  0.00    +0.000 F 
ATOM     31  F   UNL     1       5.983   6.921  17.231  0.00  0.00    +0.000 F 
ENDBRANCH  24  28
BRANCH  26  32
ATOM     32  C   UNL     1       2.447   4.011  20.643  0.00  0.00    +0.000 C 
ATOM     33  F   UNL     1       2.568   4.197  21.984  0.00  0.00    +0.000 F 
ATOM     34  F   UNL     1       1.201   3.501  20.439  0.00  0.00    +0.000 F 
ATOM     35  F   UNL     1       3.319   3.021  20.315  0.00  0.00    +0.000 F 
ENDBRANCH  26  32
ENDBRANCH   2  22
TORSDOF 6
ENDMDL
MODEL 9
REMARK VINA RESULT:      -8.3      4.330      5.547
REMARK  Name = 
REMARK  6 active torsions:
REMARK  status: ('A' for Active; 'I' for Inactive)
REMARK    1  A    between atoms: C_2  and  C_20
REMARK    2  A    between atoms: N_3  and  C_4
REMARK    3  A    between atoms: C_9  and  C_10
REMARK    4  A    between atoms: N_12  and  C_13
REMARK    5  A    between atoms: C_22  and  C_23
REMARK    6  A    between atoms: C_28  and  C_29
REMARK                            x       y       z     vdW  Elec       q    Type
REMARK                         _______ _______ _______ _____ _____    ______ ____
ROOT
ATOM      1  O   UNL     1       1.221   8.936  20.578  0.00  0.00    +0.000 OA
ATOM      2  C   UNL     1       1.388   8.667  19.396  0.00  0.00    +0.000 C 
ATOM      3  N   UNL     1       0.925   9.424  18.330  0.00  0.00    +0.000 N 
ATOM      4  H   UNL     1       0.640   8.841  17.548  0.00  0.00    +0.000 HD
ENDROOT
BRANCH   3   5
ATOM      5  C   UNL     1       0.076  10.529  18.569  0.00  0.00    +0.000 A 
ATOM      6  C   UNL     1      -1.306  10.279  18.527  0.00  0.00    +0.000 A 
ATOM      7  C   UNL     1      -2.224  11.322  18.659  0.00  0.00    +0.000 A 
ATOM      8  C   UNL     1      -1.774  12.627  18.806  0.00  0.00    +0.000 A 
ATOM      9  C   UNL     1      -0.404  12.888  18.828  0.00  0.00    +0.000 A 
ATOM     10  C   UNL     1       0.541  11.848  18.717  0.00  0.00    +0.000 A 
BRANCH  10  11
ATOM     11  C   UNL     1       1.959  12.300  18.576  0.00  0.00    +0.000 C 
ATOM     12  O   UNL     1       2.716  11.558  17.953  0.00  0.00    +0.000 OA
ATOM     13  N   UNL     1       2.311  13.513  19.139  0.00  0.00    +0.000 N 
ATOM     14  H   UNL     1       1.567  14.049  19.566  0.00  0.00    +0.000 HD
BRANCH  13  15
ATOM     15  C   UNL     1       3.589  14.118  19.111  0.00  0.00    +0.000 A 
ATOM     16  C   UNL     1       4.290  14.390  17.928  0.00  0.00    +0.000 A 
ATOM     17  C   UNL     1       5.535  15.025  17.959  0.00  0.00    +0.000 A 
ATOM     18  C   UNL     1       6.100  15.382  19.177  0.00  0.00    +0.000 A 
ATOM     19 CL   UNL     1       7.623  16.180  19.210  0.00  0.00    +0.000 Cl
ATOM     20  C   UNL     1       5.429  15.103  20.365  0.00  0.00    +0.000 A 
ATOM     21  C   UNL     1       4.175  14.481  20.332  0.00  0.00    +0.000 A 
ENDBRANCH  13  15
ENDBRANCH  10  11
ENDBRANCH   3   5
BRANCH   2  22
ATOM     22  C   UNL     1       2.223   7.499  19.019  0.00  0.00    +0.000 A 
ATOM     23  C   UNL     1       2.131   6.306  19.744  0.00  0.00    +0.000 A 
ATOM     24  C   UNL     1       2.986   5.232  19.446  0.00  0.00    +0.000 A 
ATOM     25  C   UNL     1       3.937   5.379  18.415  0.00  0.00    +0.000 A 
ATOM     26  C   UNL     1       4.053   6.581  17.703  0.00  0.00    +0.000 A 
ATOM     27  C   UNL     1       3.186   7.637  18.013  0.00  0.00    +0.000 A 
BRANCH  24  28
ATOM     28  C   UNL     1       2.911   3.926  20.211  0.00  0.00    +0.000 C 
ATOM     29  F   UNL     1       4.079   3.234  20.228  0.00  0.00    +0.000 F 
ATOM     30  F   UNL     1       2.558   4.109  21.511  0.00  0.00    +0.000 F 
ATOM     31  F   UNL     1       1.978   3.081  19.685  0.00  0.00    +0.000 F 
ENDBRANCH  24  28
BRANCH  26  32
ATOM     32  C   UNL     1       5.104   6.782  16.636  0.00  0.00    +0.000 C 
ATOM     33  F   UNL     1       5.680   5.625  16.216  0.00  0.00    +0.000 F 
ATOM     34  F   UNL     1       4.593   7.379  15.524  0.00  0.00    +0.000 F 
ATOM     35  F   UNL     1       6.118   7.581  17.062  0.00  0.00    +0.000 F 
ENDBRANCH  26  32
ENDBRANCH   2  22
TORSDOF 6
ENDMDL
