MODEL 1
REMARK VINA RESULT:      -7.6      0.000      0.000
REMARK  Name = 
REMARK  4 active torsions:
REMARK  status: ('A' for Active; 'I' for Inactive)
REMARK    1  A    between atoms: C_1  and  C_2
REMARK    2  A    between atoms: N_4  and  C_5
REMARK    3  A    between atoms: N_14  and  C_15
REMARK    4  A    between atoms: C_15  and  C_16
REMARK                            x       y       z     vdW  Elec       q    Type
REMARK                         _______ _______ _______ _____ _____    ______ ____
ROOT
ATOM      1  C   UNL     1       6.747   5.915  18.628  0.00  0.00    +0.000 C 
ATOM      2  C   UNL     1       5.860   5.009  17.779  0.00  0.00    +0.000 C 
ATOM      3  C   UNL     1       6.657   4.217  16.736  0.00  0.00    +0.000 C 
ATOM      4  N   UNL     1       6.731   5.106  15.577  0.00  0.00    +0.000 NA
ATOM      5  C   UNL     1       5.449   5.825  15.506  0.00  0.00    +0.000 C 
ATOM      6  C   UNL     1       4.819   5.735  16.900  0.00  0.00    +0.000 C 
ATOM      7  C   UNL     1       4.242   7.072  17.386  0.00  0.00    +0.000 C 
ATOM      8  C   UNL     1       3.064   6.709  18.273  0.00  0.00    +0.000 C 
ATOM      9  N   UNL     1       2.699   5.385  17.846  0.00  0.00    +0.000 N 
ATOM     10  C   UNL     1       3.581   4.846  16.927  0.00  0.00    +0.000 C 
ATOM     11  O   UNL     1       3.458   3.770  16.363  0.00  0.00    +0.000 OA
ENDROOT
BRANCH   4  12
ATOM     12  C   UNL     1       7.143   4.479  14.309  0.00  0.00    +0.000 C 
ATOM     13  C   UNL     1       6.048   3.776  13.518  0.00  0.00    +0.000 C 
ATOM     14  C   UNL     1       6.684   3.601  12.156  0.00  0.00    +0.000 C 
ATOM     15  O   UNL     1       7.539   4.728  11.948  0.00  0.00    +0.000 OA
ATOM     16  C   UNL     1       7.784   5.352  13.218  0.00  0.00    +0.000 C 
ENDBRANCH   4  12
BRANCH   9  17
ATOM     17  C   UNL     1       1.592   4.657  18.433  0.00  0.00    +0.000 C 
BRANCH  17  18
ATOM     18  C   UNL     1       1.996   3.825  19.615  0.00  0.00    +0.000 A 
ATOM     19  C   UNL     1       1.093   3.509  20.634  0.00  0.00    +0.000 A 
ATOM     20  C   UNL     1       1.500   2.716  21.700  0.00  0.00    +0.000 A 
ATOM     21  C   UNL     1       2.804   2.256  21.712  0.00  0.00    +0.000 A 
ATOM     22  N   UNL     1       3.707   2.530  20.744  0.00  0.00    +0.000 NA
ATOM     23  C   UNL     1       3.281   3.303  19.720  0.00  0.00    +0.000 A 
ENDBRANCH  17  18
ENDBRANCH   9  17
TORSDOF 3
ENDMDL
MODEL 2
REMARK VINA RESULT:      -7.4      0.587      1.001
REMARK  Name = 
REMARK  4 active torsions:
REMARK  status: ('A' for Active; 'I' for Inactive)
REMARK    1  A    between atoms: C_1  and  C_2
REMARK    2  A    between atoms: N_4  and  C_5
REMARK    3  A    between atoms: N_14  and  C_15
REMARK    4  A    between atoms: C_15  and  C_16
REMARK                            x       y       z     vdW  Elec       q    Type
REMARK                         _______ _______ _______ _____ _____    ______ ____
ROOT
ATOM      1  C   UNL     1       6.760   5.885  18.672  0.00  0.00    +0.000 C 
ATOM      2  C   UNL     1       5.868   4.982  17.827  0.00  0.00    +0.000 C 
ATOM      3  C   UNL     1       6.659   4.195  16.774  0.00  0.00    +0.000 C 
ATOM      4  N   UNL     1       6.722   5.089  15.619  0.00  0.00    +0.000 NA
ATOM      5  C   UNL     1       5.438   5.806  15.560  0.00  0.00    +0.000 C 
ATOM      6  C   UNL     1       4.819   5.710  16.959  0.00  0.00    +0.000 C 
ATOM      7  C   UNL     1       4.244   7.043  17.455  0.00  0.00    +0.000 C 
ATOM      8  C   UNL     1       3.072   6.675  18.349  0.00  0.00    +0.000 C 
ATOM      9  N   UNL     1       2.707   5.351  17.919  0.00  0.00    +0.000 N 
ATOM     10  C   UNL     1       3.583   4.817  16.992  0.00  0.00    +0.000 C 
ATOM     11  O   UNL     1       3.457   3.743  16.424  0.00  0.00    +0.000 OA
ENDROOT
BRANCH   4  12
ATOM     12  C   UNL     1       7.125   4.468  14.345  0.00  0.00    +0.000 C 
ATOM     13  C   UNL     1       6.021   3.785  13.549  0.00  0.00    +0.000 C 
ATOM     14  C   UNL     1       6.654   3.614  12.185  0.00  0.00    +0.000 C 
ATOM     15  O   UNL     1       7.522   4.732  11.986  0.00  0.00    +0.000 OA
ATOM     16  C   UNL     1       7.776   5.342  13.260  0.00  0.00    +0.000 C 
ENDBRANCH   4  12
BRANCH   9  17
ATOM     17  C   UNL     1       1.605   4.619  18.512  0.00  0.00    +0.000 C 
BRANCH  17  18
ATOM     18  C   UNL     1       2.027   3.756  19.665  0.00  0.00    +0.000 A 
ATOM     19  C   UNL     1       3.291   3.160  19.713  0.00  0.00    +0.000 A 
ATOM     20  C   UNL     1       3.652   2.387  20.810  0.00  0.00    +0.000 A 
ATOM     21  C   UNL     1       2.735   2.239  21.836  0.00  0.00    +0.000 A 
ATOM     22  N   UNL     1       1.508   2.805  21.834  0.00  0.00    +0.000 NA
ATOM     23  C   UNL     1       1.185   3.550  20.753  0.00  0.00    +0.000 A 
ENDBRANCH  17  18
ENDBRANCH   9  17
TORSDOF 3
ENDMDL
MODEL 3
REMARK VINA RESULT:      -7.2      2.977      7.326
REMARK  Name = 
REMARK  4 active torsions:
REMARK  status: ('A' for Active; 'I' for Inactive)
REMARK    1  A    between atoms: C_1  and  C_2
REMARK    2  A    between atoms: N_4  and  C_5
REMARK    3  A    between atoms: N_14  and  C_15
REMARK    4  A    between atoms: C_15  and  C_16
REMARK                            x       y       z     vdW  Elec       q    Type
REMARK                         _______ _______ _______ _____ _____    ______ ____
ROOT
ATOM      1  C   UNL     1       0.942   3.944  20.415  0.00  0.00    +0.000 C 
ATOM      2  C   UNL     1       2.181   4.788  20.135  0.00  0.00    +0.000 C 
ATOM      3  C   UNL     1       2.221   6.071  20.973  0.00  0.00    +0.000 C 
ATOM      4  N   UNL     1       1.470   7.047  20.187  0.00  0.00    +0.000 NA
ATOM      5  C   UNL     1       1.771   6.781  18.770  0.00  0.00    +0.000 C 
ATOM      6  C   UNL     1       2.294   5.343  18.698  0.00  0.00    +0.000 C 
ATOM      7  C   UNL     1       1.683   4.538  17.543  0.00  0.00    +0.000 C 
ATOM      8  C   UNL     1       2.759   3.552  17.118  0.00  0.00    +0.000 C 
ATOM      9  N   UNL     1       3.982   4.146  17.588  0.00  0.00    +0.000 N 
ATOM     10  C   UNL     1       3.780   5.276  18.359  0.00  0.00    +0.000 C 
ATOM     11  O   UNL     1       4.653   5.997  18.816  0.00  0.00    +0.000 OA
ENDROOT
BRANCH   4  12
ATOM     12  C   UNL     1       1.633   8.457  20.584  0.00  0.00    +0.000 C 
ATOM     13  C   UNL     1       0.919   9.488  19.719  0.00  0.00    +0.000 C 
ATOM     14  C   UNL     1       0.956  10.728  20.585  0.00  0.00    +0.000 C 
ATOM     15  O   UNL     1       0.869  10.291  21.943  0.00  0.00    +0.000 OA
ATOM     16  C   UNL     1       1.190   8.892  21.991  0.00  0.00    +0.000 C 
ENDBRANCH   4  12
BRANCH   9  17
ATOM     17  C   UNL     1       5.276   3.528  17.376  0.00  0.00    +0.000 C 
BRANCH  17  18
ATOM     18  C   UNL     1       5.968   4.023  16.139  0.00  0.00    +0.000 A 
ATOM     19  C   UNL     1       5.614   3.565  14.867  0.00  0.00    +0.000 A 
ATOM     20  C   UNL     1       6.262   4.065  13.744  0.00  0.00    +0.000 A 
ATOM     21  C   UNL     1       7.245   5.021  13.929  0.00  0.00    +0.000 A 
ATOM     22  N   UNL     1       7.611   5.499  15.139  0.00  0.00    +0.000 NA
ATOM     23  C   UNL     1       6.963   4.993  16.212  0.00  0.00    +0.000 A 
ENDBRANCH  17  18
ENDBRANCH   9  17
TORSDOF 3
ENDMDL
MODEL 4
REMARK VINA RESULT:      -7.1      1.330      1.671
REMARK  Name = 
REMARK  4 active torsions:
REMARK  status: ('A' for Active; 'I' for Inactive)
REMARK    1  A    between atoms: C_1  and  C_2
REMARK    2  A    between atoms: N_4  and  C_5
REMARK    3  A    between atoms: N_14  and  C_15
REMARK    4  A    between atoms: C_15  and  C_16
REMARK                            x       y       z     vdW  Elec       q    Type
REMARK                         _______ _______ _______ _____ _____    ______ ____
ROOT
ATOM      1  C   UNL     1       7.280   7.836  17.354  0.00  0.00    +0.000 C 
ATOM      2  C   UNL     1       6.694   6.429  17.333  0.00  0.00    +0.000 C 
ATOM      3  C   UNL     1       7.440   5.496  16.372  0.00  0.00    +0.000 C 
ATOM      4  N   UNL     1       6.791   5.705  15.078  0.00  0.00    +0.000 NA
ATOM      5  C   UNL     1       5.357   5.910  15.346  0.00  0.00    +0.000 C 
ATOM      6  C   UNL     1       5.242   6.323  16.817  0.00  0.00    +0.000 C 
ATOM      7  C   UNL     1       4.289   7.506  17.037  0.00  0.00    +0.000 C 
ATOM      8  C   UNL     1       3.688   7.295  18.416  0.00  0.00    +0.000 C 
ATOM      9  N   UNL     1       3.848   5.885  18.655  0.00  0.00    +0.000 N 
ATOM     10  C   UNL     1       4.589   5.246  17.678  0.00  0.00    +0.000 C 
ATOM     11  O   UNL     1       4.807   4.046  17.615  0.00  0.00    +0.000 OA
ENDROOT
BRANCH   4  12
ATOM     12  C   UNL     1       7.073   4.694  14.045  0.00  0.00    +0.000 C 
ATOM     13  C   UNL     1       5.881   3.886  13.548  0.00  0.00    +0.000 C 
ATOM     14  C   UNL     1       6.414   3.258  12.278  0.00  0.00    +0.000 C 
ATOM     15  O   UNL     1       7.332   4.192  11.705  0.00  0.00    +0.000 OA
ATOM     16  C   UNL     1       7.704   5.142  12.715  0.00  0.00    +0.000 C 
ENDBRANCH   4  12
BRANCH   9  17
ATOM     17  C   UNL     1       3.388   5.247  19.873  0.00  0.00    +0.000 C 
BRANCH  17  18
ATOM     18  C   UNL     1       2.392   4.152  19.621  0.00  0.00    +0.000 A 
ATOM     19  C   UNL     1       2.158   3.143  20.560  0.00  0.00    +0.000 A 
ATOM     20  C   UNL     1       1.211   2.160  20.300  0.00  0.00    +0.000 A 
ATOM     21  C   UNL     1       0.516   2.222  19.105  0.00  0.00    +0.000 A 
ATOM     22  N   UNL     1       0.704   3.185  18.175  0.00  0.00    +0.000 NA
ATOM     23  C   UNL     1       1.633   4.126  18.457  0.00  0.00    +0.000 A 
ENDBRANCH  17  18
ENDBRANCH   9  17
TORSDOF 3
ENDMDL
MODEL 5
REMARK VINA RESULT:      -7.0      1.305      1.633
REMARK  Name = 
REMARK  4 active torsions:
REMARK  status: ('A' for Active; 'I' for Inactive)
REMARK    1  A    between atoms: C_1  and  C_2
REMARK    2  A    between atoms: N_4  and  C_5
REMARK    3  A    between atoms: N_14  and  C_15
REMARK    4  A    between atoms: C_15  and  C_16
REMARK                            x       y       z     vdW  Elec       q    Type
REMARK                         _______ _______ _______ _____ _____    ______ ____
ROOT
ATOM      1  C   UNL     1       7.194   7.936  17.322  0.00  0.00    +0.000 C 
ATOM      2  C   UNL     1       6.655   6.509  17.338  0.00  0.00    +0.000 C 
ATOM      3  C   UNL     1       7.415   5.583  16.381  0.00  0.00    +0.000 C 
ATOM      4  N   UNL     1       6.737   5.746  15.096  0.00  0.00    +0.000 NA
ATOM      5  C   UNL     1       5.302   5.907  15.386  0.00  0.00    +0.000 C 
ATOM      6  C   UNL     1       5.199   6.345  16.850  0.00  0.00    +0.000 C 
ATOM      7  C   UNL     1       4.211   7.499  17.065  0.00  0.00    +0.000 C 
ATOM      8  C   UNL     1       3.641   7.295  18.458  0.00  0.00    +0.000 C 
ATOM      9  N   UNL     1       3.853   5.897  18.721  0.00  0.00    +0.000 N 
ATOM     10  C   UNL     1       4.598   5.264  17.743  0.00  0.00    +0.000 C 
ATOM     11  O   UNL     1       4.855   4.071  17.698  0.00  0.00    +0.000 OA
ENDROOT
BRANCH   4  12
ATOM     12  C   UNL     1       7.035   4.725  14.076  0.00  0.00    +0.000 C 
ATOM     13  C   UNL     1       5.854   3.900  13.582  0.00  0.00    +0.000 C 
ATOM     14  C   UNL     1       6.401   3.261  12.323  0.00  0.00    +0.000 C 
ATOM     15  O   UNL     1       7.314   4.196  11.744  0.00  0.00    +0.000 OA
ATOM     16  C   UNL     1       7.670   5.162  12.745  0.00  0.00    +0.000 C 
ENDBRANCH   4  12
BRANCH   9  17
ATOM     17  C   UNL     1       3.436   5.267  19.959  0.00  0.00    +0.000 C 
BRANCH  17  18
ATOM     18  C   UNL     1       2.446   4.158  19.749  0.00  0.00    +0.000 A 
ATOM     19  C   UNL     1       1.565   4.156  18.664  0.00  0.00    +0.000 A 
ATOM     20  C   UNL     1       0.680   3.099  18.491  0.00  0.00    +0.000 A 
ATOM     21  C   UNL     1       0.708   2.066  19.411  0.00  0.00    +0.000 A 
ATOM     22  N   UNL     1       1.549   2.023  20.468  0.00  0.00    +0.000 NA
ATOM     23  C   UNL     1       2.398   3.066  20.609  0.00  0.00    +0.000 A 
ENDBRANCH  17  18
ENDBRANCH   9  17
TORSDOF 3
ENDMDL
MODEL 6
REMARK VINA RESULT:      -7.0      3.569      5.004
REMARK  Name = 
REMARK  4 active torsions:
REMARK  status: ('A' for Active; 'I' for Inactive)
REMARK    1  A    between atoms: C_1  and  C_2
REMARK    2  A    between atoms: N_4  and  C_5
REMARK    3  A    between atoms: N_14  and  C_15
REMARK    4  A    between atoms: C_15  and  C_16
REMARK                            x       y       z     vdW  Elec       q    Type
REMARK                         _______ _______ _______ _____ _____    ______ ____
ROOT
ATOM      1  C   UNL     1       1.260   3.545  18.494  0.00  0.00    +0.000 C 
ATOM      2  C   UNL     1       2.083   4.740  18.025  0.00  0.00    +0.000 C 
ATOM      3  C   UNL     1       3.116   4.359  16.958  0.00  0.00    +0.000 C 
ATOM      4  N   UNL     1       4.293   3.942  17.718  0.00  0.00    +0.000 NA
ATOM      5  C   UNL     1       4.369   4.813  18.903  0.00  0.00    +0.000 C 
ATOM      6  C   UNL     1       2.968   5.400  19.103  0.00  0.00    +0.000 C 
ATOM      7  C   UNL     1       2.505   5.364  20.566  0.00  0.00    +0.000 C 
ATOM      8  C   UNL     1       1.601   6.573  20.738  0.00  0.00    +0.000 C 
ATOM      9  N   UNL     1       1.998   7.460  19.677  0.00  0.00    +0.000 N 
ATOM     10  C   UNL     1       2.913   6.895  18.807  0.00  0.00    +0.000 C 
ATOM     11  O   UNL     1       3.454   7.462  17.870  0.00  0.00    +0.000 OA
ENDROOT
BRANCH   4  12
ATOM     12  C   UNL     1       5.551   3.847  16.957  0.00  0.00    +0.000 C 
ATOM     13  C   UNL     1       5.502   4.324  15.511  0.00  0.00    +0.000 C 
ATOM     14  C   UNL     1       6.967   4.462  15.159  0.00  0.00    +0.000 C 
ATOM     15  O   UNL     1       7.646   4.866  16.351  0.00  0.00    +0.000 OA
ATOM     16  C   UNL     1       6.794   4.591  17.474  0.00  0.00    +0.000 C 
ENDBRANCH   4  12
BRANCH   9  17
ATOM     17  C   UNL     1       1.388   8.760  19.483  0.00  0.00    +0.000 C 
BRANCH  17  18
ATOM     18  C   UNL     1       0.710   9.282  20.716  0.00  0.00    +0.000 A 
ATOM     19  C   UNL     1       1.160   8.949  21.997  0.00  0.00    +0.000 A 
ATOM     20  C   UNL     1       0.520   9.472  23.115  0.00  0.00    +0.000 A 
ATOM     21  C   UNL     1      -0.553  10.323  22.915  0.00  0.00    +0.000 A 
ATOM     22  N   UNL     1      -1.014  10.677  21.695  0.00  0.00    +0.000 NA
ATOM     23  C   UNL     1      -0.371  10.153  20.628  0.00  0.00    +0.000 A 
ENDBRANCH  17  18
ENDBRANCH   9  17
TORSDOF 3
ENDMDL
MODEL 7
REMARK VINA RESULT:      -6.9      3.674      5.504
REMARK  Name = 
REMARK  4 active torsions:
REMARK  status: ('A' for Active; 'I' for Inactive)
REMARK    1  A    between atoms: C_1  and  C_2
REMARK    2  A    between atoms: N_4  and  C_5
REMARK    3  A    between atoms: N_14  and  C_15
REMARK    4  A    between atoms: C_15  and  C_16
REMARK                            x       y       z     vdW  Elec       q    Type
REMARK                         _______ _______ _______ _____ _____    ______ ____
ROOT
ATOM      1  C   UNL     1       1.312   4.134  19.091  0.00  0.00    +0.000 C 
ATOM      2  C   UNL     1       2.077   5.146  18.243  0.00  0.00    +0.000 C 
ATOM      3  C   UNL     1       3.113   4.482  17.329  0.00  0.00    +0.000 C 
ATOM      4  N   UNL     1       4.316   4.375  18.153  0.00  0.00    +0.000 NA
ATOM      5  C   UNL     1       4.367   5.582  18.995  0.00  0.00    +0.000 C 
ATOM      6  C   UNL     1       2.945   6.150  19.031  0.00  0.00    +0.000 C 
ATOM      7  C   UNL     1       2.500   6.568  20.440  0.00  0.00    +0.000 C 
ATOM      8  C   UNL     1       1.547   7.733  20.238  0.00  0.00    +0.000 C 
ATOM      9  N   UNL     1       1.893   8.247  18.940  0.00  0.00    +0.000 N 
ATOM     10  C   UNL     1       2.821   7.468  18.274  0.00  0.00    +0.000 C 
ATOM     11  O   UNL     1       3.326   7.724  17.192  0.00  0.00    +0.000 OA
ENDROOT
BRANCH   4  12
ATOM     12  C   UNL     1       5.568   4.088  17.432  0.00  0.00    +0.000 C 
ATOM     13  C   UNL     1       5.579   4.415  15.944  0.00  0.00    +0.000 C 
ATOM     14  C   UNL     1       7.054   4.383  15.609  0.00  0.00    +0.000 C 
ATOM     15  O   UNL     1       7.754   4.845  16.767  0.00  0.00    +0.000 OA
ATOM     16  C   UNL     1       6.869   4.767  17.894  0.00  0.00    +0.000 C 
ENDBRANCH   4  12
BRANCH   9  17
ATOM     17  C   UNL     1       1.224   9.392  18.355  0.00  0.00    +0.000 C 
BRANCH  17  18
ATOM     18  C   UNL     1       0.690  10.348  19.381  0.00  0.00    +0.000 A 
ATOM     19  C   UNL     1      -0.676  10.432  19.666  0.00  0.00    +0.000 A 
ATOM     20  C   UNL     1      -1.129  11.313  20.640  0.00  0.00    +0.000 A 
ATOM     21  C   UNL     1      -0.195  12.083  21.310  0.00  0.00    +0.000 A 
ATOM     22  N   UNL     1       1.134  12.027  21.073  0.00  0.00    +0.000 NA
ATOM     23  C   UNL     1       1.544  11.161  20.119  0.00  0.00    +0.000 A 
ENDBRANCH  17  18
ENDBRANCH   9  17
TORSDOF 3
ENDMDL
MODEL 8
REMARK VINA RESULT:      -6.9      3.662      5.746
REMARK  Name = 
REMARK  4 active torsions:
REMARK  status: ('A' for Active; 'I' for Inactive)
REMARK    1  A    between atoms: C_1  and  C_2
REMARK    2  A    between atoms: N_4  and  C_5
REMARK    3  A    between atoms: N_14  and  C_15
REMARK    4  A    between atoms: C_15  and  C_16
REMARK                            x       y       z     vdW  Elec       q    Type
REMARK                         _______ _______ _______ _____ _____    ______ ____
ROOT
ATOM      1  C   UNL     1       1.548   4.132  19.011  0.00  0.00    +0.000 C 
ATOM      2  C   UNL     1       2.183   5.279  18.231  0.00  0.00    +0.000 C 
ATOM      3  C   UNL     1       3.276   4.801  17.269  0.00  0.00    +0.000 C 
ATOM      4  N   UNL     1       4.493   4.777  18.078  0.00  0.00    +0.000 NA
ATOM      5  C   UNL     1       4.418   5.922  19.000  0.00  0.00    +0.000 C 
ATOM      6  C   UNL     1       2.941   6.320  19.083  0.00  0.00    +0.000 C 
ATOM      7  C   UNL     1       2.470   6.588  20.519  0.00  0.00    +0.000 C 
ATOM      8  C   UNL     1       1.388   7.648  20.402  0.00  0.00    +0.000 C 
ATOM      9  N   UNL     1       1.657   8.285  19.140  0.00  0.00    +0.000 N 
ATOM     10  C   UNL     1       2.659   7.663  18.418  0.00  0.00    +0.000 C 
ATOM     11  O   UNL     1       3.118   8.048  17.353  0.00  0.00    +0.000 OA
ENDROOT
BRANCH   4  12
ATOM     12  C   UNL     1       5.761   4.684  17.332  0.00  0.00    +0.000 C 
ATOM     13  C   UNL     1       5.661   4.202  15.891  0.00  0.00    +0.000 C 
ATOM     14  C   UNL     1       7.009   4.587  15.320  0.00  0.00    +0.000 C 
ATOM     15  O   UNL     1       7.410   5.793  15.974  0.00  0.00    +0.000 OA
ATOM     16  C   UNL     1       6.622   5.947  17.164  0.00  0.00    +0.000 C 
ENDBRANCH   4  12
BRANCH   9  17
ATOM     17  C   UNL     1       0.855   9.383  18.638  0.00  0.00    +0.000 C 
BRANCH  17  18
ATOM     18  C   UNL     1       1.276  10.716  19.186  0.00  0.00    +0.000 A 
ATOM     19  C   UNL     1       1.983  11.638  18.409  0.00  0.00    +0.000 A 
ATOM     20  C   UNL     1       2.334  12.872  18.944  0.00  0.00    +0.000 A 
ATOM     21  C   UNL     1       1.958  13.149  20.247  0.00  0.00    +0.000 A 
ATOM     22  N   UNL     1       1.267  12.291  21.029  0.00  0.00    +0.000 NA
ATOM     23  C   UNL     1       0.940  11.100  20.480  0.00  0.00    +0.000 A 
ENDBRANCH  17  18
ENDBRANCH   9  17
TORSDOF 3
ENDMDL
MODEL 9
REMARK VINA RESULT:      -6.9      3.529      4.775
REMARK  Name = 
REMARK  4 active torsions:
REMARK  status: ('A' for Active; 'I' for Inactive)
REMARK    1  A    between atoms: C_1  and  C_2
REMARK    2  A    between atoms: N_4  and  C_5
REMARK    3  A    between atoms: N_14  and  C_15
REMARK    4  A    between atoms: C_15  and  C_16
REMARK                            x       y       z     vdW  Elec       q    Type
REMARK                         _______ _______ _______ _____ _____    ______ ____
ROOT
ATOM      1  C   UNL     1       1.661   3.451  18.488  0.00  0.00    +0.000 C 
ATOM      2  C   UNL     1       2.351   4.727  18.015  0.00  0.00    +0.000 C 
ATOM      3  C   UNL     1       3.404   4.460  16.933  0.00  0.00    +0.000 C 
ATOM      4  N   UNL     1       4.627   4.163  17.677  0.00  0.00    +0.000 NA
ATOM      5  C   UNL     1       4.628   5.032  18.866  0.00  0.00    +0.000 C 
ATOM      6  C   UNL     1       3.177   5.471  19.087  0.00  0.00    +0.000 C 
ATOM      7  C   UNL     1       2.738   5.380  20.555  0.00  0.00    +0.000 C 
ATOM      8  C   UNL     1       1.717   6.488  20.745  0.00  0.00    +0.000 C 
ATOM      9  N   UNL     1       2.007   7.416  19.685  0.00  0.00    +0.000 N 
ATOM     10  C   UNL     1       2.963   6.953  18.800  0.00  0.00    +0.000 C 
ATOM     11  O   UNL     1       3.431   7.577  17.860  0.00  0.00    +0.000 OA
ENDROOT
BRANCH   4  12
ATOM     12  C   UNL     1       5.878   4.202  16.900  0.00  0.00    +0.000 C 
ATOM     13  C   UNL     1       5.745   3.992  15.397  0.00  0.00    +0.000 C 
ATOM     14  C   UNL     1       7.085   4.467  14.877  0.00  0.00    +0.000 C 
ATOM     15  O   UNL     1       7.509   5.533  15.731  0.00  0.00    +0.000 OA
ATOM     16  C   UNL     1       6.747   5.471  16.946  0.00  0.00    +0.000 C 
ENDBRANCH   4  12
BRANCH   9  17
ATOM     17  C   UNL     1       1.263   8.647  19.505  0.00  0.00    +0.000 C 
BRANCH  17  18
ATOM     18  C   UNL     1       0.719   9.198  20.792  0.00  0.00    +0.000 A 
ATOM     19  C   UNL     1      -0.505   9.871  20.843  0.00  0.00    +0.000 A 
ATOM     20  C   UNL     1      -0.986  10.345  22.057  0.00  0.00    +0.000 A 
ATOM     21  C   UNL     1      -0.226  10.123  23.192  0.00  0.00    +0.000 A 
ATOM     22  N   UNL     1       0.957   9.470  23.189  0.00  0.00    +0.000 NA
ATOM     23  C   UNL     1       1.398   9.021  21.992  0.00  0.00    +0.000 A 
ENDBRANCH  17  18
ENDBRANCH   9  17
TORSDOF 3
ENDMDL
