MODEL 1
REMARK VINA RESULT:      -8.0      0.000      0.000
REMARK  Name = 
REMARK  7 active torsions:
REMARK  status: ('A' for Active; 'I' for Inactive)
REMARK    1  A    between atoms: C_1  and  O_2
REMARK    2  A    between atoms: O_2  and  C_3
REMARK    3  A    between atoms: C_6  and  C_7
REMARK    4  A    between atoms: C_8  and  C_9
REMARK    5  A    between atoms: C_9  and  C_11
REMARK    6  A    between atoms: C_12  and  C_13
REMARK    7  A    between atoms: C_16  and  N_17
REMARK                            x       y       z     vdW  Elec       q    Type
REMARK                         _______ _______ _______ _____ _____    ______ ____
ROOT
ATOM      1  C   UNL     1       7.534   6.986  17.435  0.00  0.00    +0.000 C 
ATOM      2  O   UNL     1       7.860   6.752  16.278  0.00  0.00    +0.000 OA
ENDROOT
BRANCH   1   4
ATOM      3  C   UNL     1       8.285   9.295  17.841  0.00  0.00    +0.000 C 
ATOM      4  C   UNL     1       8.190   8.028  18.272  0.00  0.00    +0.000 C 
BRANCH   3   8
ATOM      5  C   UNL     1      10.296  12.468  19.922  0.00  0.00    +0.000 A 
ATOM      6  C   UNL     1      10.028  12.557  18.556  0.00  0.00    +0.000 A 
ATOM      7  C   UNL     1       9.354  11.525  17.894  0.00  0.00    +0.000 A 
ATOM      8  C   UNL     1       8.966  10.368  18.583  0.00  0.00    +0.000 A 
ATOM      9  C   UNL     1       9.226  10.294  19.956  0.00  0.00    +0.000 A 
ATOM     10  C   UNL     1       9.895  11.332  20.620  0.00  0.00    +0.000 A 
BRANCH   5  12
ATOM     11  C   UNL     1      11.874  14.192  19.574  0.00  0.00    +0.000 C 
ATOM     12  O   UNL     1      10.984  13.522  20.459  0.00  0.00    +0.000 OA
ENDBRANCH   5  12
ENDBRANCH   3   8
ENDBRANCH   1   4
BRANCH   1  13
ATOM     13  C   UNL     1       6.444   6.252  18.133  0.00  0.00    +0.000 C 
ATOM     14  C   UNL     1       5.443   5.675  17.451  0.00  0.00    +0.000 C 
BRANCH  14  15
ATOM     15  C   UNL     1       4.318   4.976  18.094  0.00  0.00    +0.000 A 
ATOM     16  C   UNL     1       3.516   4.120  17.323  0.00  0.00    +0.000 A 
ATOM     17  C   UNL     1       2.428   3.445  17.892  0.00  0.00    +0.000 A 
ATOM     18  C   UNL     1       2.145   3.616  19.252  0.00  0.00    +0.000 A 
ATOM     19  C   UNL     1       2.946   4.448  20.042  0.00  0.00    +0.000 A 
ATOM     20  C   UNL     1       4.031   5.114  19.462  0.00  0.00    +0.000 A 
BRANCH  18  21
ATOM     21  N   UNL     1       1.003   2.919  19.859  0.00  0.00    +0.000 N 
ATOM     22  O   UNL     1       0.195   2.367  19.098  0.00  0.00    +0.000 OA
ATOM     23  O   UNL     1       0.916   2.925  21.094  0.00  0.00    +0.000 OA
ENDBRANCH  18  21
ENDBRANCH  14  15
ENDBRANCH   1  13
TORSDOF 6
ENDMDL
MODEL 2
REMARK VINA RESULT:      -7.9      0.614      1.045
REMARK  Name = 
REMARK  7 active torsions:
REMARK  status: ('A' for Active; 'I' for Inactive)
REMARK    1  A    between atoms: C_1  and  O_2
REMARK    2  A    between atoms: O_2  and  C_3
REMARK    3  A    between atoms: C_6  and  C_7
REMARK    4  A    between atoms: C_8  and  C_9
REMARK    5  A    between atoms: C_9  and  C_11
REMARK    6  A    between atoms: C_12  and  C_13
REMARK    7  A    between atoms: C_16  and  N_17
REMARK                            x       y       z     vdW  Elec       q    Type
REMARK                         _______ _______ _______ _____ _____    ______ ____
ROOT
ATOM      1  C   UNL     1       7.497   7.036  17.445  0.00  0.00    +0.000 C 
ATOM      2  O   UNL     1       7.886   6.754  16.319  0.00  0.00    +0.000 OA
ENDROOT
BRANCH   1   4
ATOM      3  C   UNL     1       8.296   9.339  17.788  0.00  0.00    +0.000 C 
ATOM      4  C   UNL     1       8.117   8.102  18.278  0.00  0.00    +0.000 C 
BRANCH   3   8
ATOM      5  C   UNL     1      10.214  12.574  19.861  0.00  0.00    +0.000 A 
ATOM      6  C   UNL     1       9.773  12.721  18.546  0.00  0.00    +0.000 A 
ATOM      7  C   UNL     1       9.131  11.665  17.889  0.00  0.00    +0.000 A 
ATOM      8  C   UNL     1       8.950  10.431  18.527  0.00  0.00    +0.000 A 
ATOM      9  C   UNL     1       9.383  10.297  19.851  0.00  0.00    +0.000 A 
ATOM     10  C   UNL     1      10.020  11.358  20.511  0.00  0.00    +0.000 A 
BRANCH   5  12
ATOM     11  C   UNL     1      11.563  14.474  19.469  0.00  0.00    +0.000 C 
ATOM     12  O   UNL     1      10.851  13.660  20.395  0.00  0.00    +0.000 OA
ENDBRANCH   5  12
ENDBRANCH   3   8
ENDBRANCH   1   4
BRANCH   1  13
ATOM     13  C   UNL     1       6.360   6.341  18.106  0.00  0.00    +0.000 C 
ATOM     14  C   UNL     1       5.553   5.514  17.422  0.00  0.00    +0.000 C 
BRANCH  14  15
ATOM     15  C   UNL     1       4.389   4.838  18.017  0.00  0.00    +0.000 A 
ATOM     16  C   UNL     1       4.598   3.726  18.848  0.00  0.00    +0.000 A 
ATOM     17  C   UNL     1       3.518   3.045  19.425  0.00  0.00    +0.000 A 
ATOM     18  C   UNL     1       2.212   3.488  19.180  0.00  0.00    +0.000 A 
ATOM     19  C   UNL     1       1.986   4.606  18.370  0.00  0.00    +0.000 A 
ATOM     20  C   UNL     1       3.073   5.279  17.804  0.00  0.00    +0.000 A 
BRANCH  18  21
ATOM     21  N   UNL     1       1.071   2.777  19.773  0.00  0.00    +0.000 N 
ATOM     22  O   UNL     1       1.007   2.722  21.010  0.00  0.00    +0.000 OA
ATOM     23  O   UNL     1       0.242   2.277  19.002  0.00  0.00    +0.000 OA
ENDBRANCH  18  21
ENDBRANCH  14  15
ENDBRANCH   1  13
TORSDOF 6
ENDMDL
MODEL 3
REMARK VINA RESULT:      -7.7      0.770      1.322
REMARK  Name = 
REMARK  7 active torsions:
REMARK  status: ('A' for Active; 'I' for Inactive)
REMARK    1  A    between atoms: C_1  and  O_2
REMARK    2  A    between atoms: O_2  and  C_3
REMARK    3  A    between atoms: C_6  and  C_7
REMARK    4  A    between atoms: C_8  and  C_9
REMARK    5  A    between atoms: C_9  and  C_11
REMARK    6  A    between atoms: C_12  and  C_13
REMARK    7  A    between atoms: C_16  and  N_17
REMARK                            x       y       z     vdW  Elec       q    Type
REMARK                         _______ _______ _______ _____ _____    ______ ____
ROOT
ATOM      1  C   UNL     1       7.473   6.953  17.293  0.00  0.00    +0.000 C 
ATOM      2  O   UNL     1       7.922   6.681  16.186  0.00  0.00    +0.000 OA
ENDROOT
BRANCH   1   4
ATOM      3  C   UNL     1       8.225   9.273  17.623  0.00  0.00    +0.000 C 
ATOM      4  C   UNL     1       8.005   8.055  18.140  0.00  0.00    +0.000 C 
BRANCH   3   8
ATOM      5  C   UNL     1       9.905  12.497  19.909  0.00  0.00    +0.000 A 
ATOM      6  C   UNL     1       9.892  11.193  20.403  0.00  0.00    +0.000 A 
ATOM      7  C   UNL     1       9.360  10.148  19.639  0.00  0.00    +0.000 A 
ATOM      8  C   UNL     1       8.799  10.397  18.380  0.00  0.00    +0.000 A 
ATOM      9  C   UNL     1       8.829  11.707  17.887  0.00  0.00    +0.000 A 
ATOM     10  C   UNL     1       9.369  12.752  18.649  0.00  0.00    +0.000 A 
BRANCH   5  12
ATOM     11  C   UNL     1      10.804  14.671  20.140  0.00  0.00    +0.000 C 
ATOM     12  O   UNL     1      10.424  13.443  20.751  0.00  0.00    +0.000 OA
ENDBRANCH   5  12
ENDBRANCH   3   8
ENDBRANCH   1   4
BRANCH   1  13
ATOM     13  C   UNL     1       6.344   6.208  17.913  0.00  0.00    +0.000 C 
ATOM     14  C   UNL     1       5.489   5.490  17.169  0.00  0.00    +0.000 C 
BRANCH  14  15
ATOM     15  C   UNL     1       4.330   4.772  17.727  0.00  0.00    +0.000 A 
ATOM     16  C   UNL     1       3.087   5.420  17.780  0.00  0.00    +0.000 A 
ATOM     17  C   UNL     1       1.962   4.779  18.315  0.00  0.00    +0.000 A 
ATOM     18  C   UNL     1       2.077   3.467  18.790  0.00  0.00    +0.000 A 
ATOM     19  C   UNL     1       3.303   2.797  18.726  0.00  0.00    +0.000 A 
ATOM     20  C   UNL     1       4.417   3.448  18.187  0.00  0.00    +0.000 A 
BRANCH  18  21
ATOM     21  N   UNL     1       0.906   2.786  19.359  0.00  0.00    +0.000 N 
ATOM     22  O   UNL     1       0.160   2.174  18.580  0.00  0.00    +0.000 OA
ATOM     23  O   UNL     1       0.735   2.864  20.582  0.00  0.00    +0.000 OA
ENDBRANCH  18  21
ENDBRANCH  14  15
ENDBRANCH   1  13
TORSDOF 6
ENDMDL
MODEL 4
REMARK VINA RESULT:      -7.7      0.479      1.026
REMARK  Name = 
REMARK  7 active torsions:
REMARK  status: ('A' for Active; 'I' for Inactive)
REMARK    1  A    between atoms: C_1  and  O_2
REMARK    2  A    between atoms: O_2  and  C_3
REMARK    3  A    between atoms: C_6  and  C_7
REMARK    4  A    between atoms: C_8  and  C_9
REMARK    5  A    between atoms: C_9  and  C_11
REMARK    6  A    between atoms: C_12  and  C_13
REMARK    7  A    between atoms: C_16  and  N_17
REMARK                            x       y       z     vdW  Elec       q    Type
REMARK                         _______ _______ _______ _____ _____    ______ ____
ROOT
ATOM      1  C   UNL     1       7.473   6.897  17.410  0.00  0.00    +0.000 C 
ATOM      2  O   UNL     1       7.771   6.629  16.253  0.00  0.00    +0.000 OA
ENDROOT
BRANCH   1   4
ATOM      3  C   UNL     1       8.276   9.180  17.857  0.00  0.00    +0.000 C 
ATOM      4  C   UNL     1       8.211   7.894  18.233  0.00  0.00    +0.000 C 
BRANCH   3   8
ATOM      5  C   UNL     1      10.522  12.219  19.897  0.00  0.00    +0.000 A 
ATOM      6  C   UNL     1      10.489  12.159  18.504  0.00  0.00    +0.000 A 
ATOM      7  C   UNL     1       9.737  11.176  17.852  0.00  0.00    +0.000 A 
ATOM      8  C   UNL     1       9.030  10.213  18.585  0.00  0.00    +0.000 A 
ATOM      9  C   UNL     1       9.057  10.290  19.982  0.00  0.00    +0.000 A 
ATOM     10  C   UNL     1       9.805  11.280  20.635  0.00  0.00    +0.000 A 
BRANCH   5  12
ATOM     11  C   UNL     1      11.149  14.497  19.858  0.00  0.00    +0.000 C 
ATOM     12  O   UNL     1      11.311  13.203  20.428  0.00  0.00    +0.000 OA
ENDBRANCH   5  12
ENDBRANCH   3   8
ENDBRANCH   1   4
BRANCH   1  13
ATOM     13  C   UNL     1       6.336   6.252  18.123  0.00  0.00    +0.000 C 
ATOM     14  C   UNL     1       5.620   5.271  17.552  0.00  0.00    +0.000 C 
BRANCH  14  15
ATOM     15  C   UNL     1       4.460   4.631  18.195  0.00  0.00    +0.000 A 
ATOM     16  C   UNL     1       3.751   5.337  19.178  0.00  0.00    +0.000 A 
ATOM     17  C   UNL     1       2.649   4.761  19.824  0.00  0.00    +0.000 A 
ATOM     18  C   UNL     1       2.242   3.468  19.474  0.00  0.00    +0.000 A 
ATOM     19  C   UNL     1       2.924   2.757  18.481  0.00  0.00    +0.000 A 
ATOM     20  C   UNL     1       4.020   3.345  17.842  0.00  0.00    +0.000 A 
BRANCH  18  21
ATOM     21  N   UNL     1       1.092   2.851  20.149  0.00  0.00    +0.000 N 
ATOM     22  O   UNL     1       0.142   2.478  19.445  0.00  0.00    +0.000 OA
ATOM     23  O   UNL     1       1.141   2.740  21.381  0.00  0.00    +0.000 OA
ENDBRANCH  18  21
ENDBRANCH  14  15
ENDBRANCH   1  13
TORSDOF 6
ENDMDL
MODEL 5
REMARK VINA RESULT:      -7.7      0.694      1.422
REMARK  Name = 
REMARK  7 active torsions:
REMARK  status: ('A' for Active; 'I' for Inactive)
REMARK    1  A    between atoms: C_1  and  O_2
REMARK    2  A    between atoms: O_2  and  C_3
REMARK    3  A    between atoms: C_6  and  C_7
REMARK    4  A    between atoms: C_8  and  C_9
REMARK    5  A    between atoms: C_9  and  C_11
REMARK    6  A    between atoms: C_12  and  C_13
REMARK    7  A    between atoms: C_16  and  N_17
REMARK                            x       y       z     vdW  Elec       q    Type
REMARK                         _______ _______ _______ _____ _____    ______ ____
ROOT
ATOM      1  C   UNL     1       7.482   6.881  17.322  0.00  0.00    +0.000 C 
ATOM      2  O   UNL     1       7.859   6.681  16.175  0.00  0.00    +0.000 OA
ENDROOT
BRANCH   1   4
ATOM      3  C   UNL     1       8.246   9.197  17.653  0.00  0.00    +0.000 C 
ATOM      4  C   UNL     1       8.008   7.983  18.173  0.00  0.00    +0.000 C 
BRANCH   3   8
ATOM      5  C   UNL     1       9.906  12.423  19.950  0.00  0.00    +0.000 A 
ATOM      6  C   UNL     1       9.800  11.138  20.483  0.00  0.00    +0.000 A 
ATOM      7  C   UNL     1       9.276  10.091  19.716  0.00  0.00    +0.000 A 
ATOM      8  C   UNL     1       8.817  10.321  18.413  0.00  0.00    +0.000 A 
ATOM      9  C   UNL     1       8.940  11.611  17.882  0.00  0.00    +0.000 A 
ATOM     10  C   UNL     1       9.472  12.657  18.648  0.00  0.00    +0.000 A 
BRANCH   5  12
ATOM     11  C   UNL     1       9.501  13.864  21.779  0.00  0.00    +0.000 C 
ATOM     12  O   UNL     1      10.407  13.374  20.797  0.00  0.00    +0.000 OA
ENDBRANCH   5  12
ENDBRANCH   3   8
ENDBRANCH   1   4
BRANCH   1  13
ATOM     13  C   UNL     1       6.454   6.041  17.994  0.00  0.00    +0.000 C 
ATOM     14  C   UNL     1       5.174   6.044  17.589  0.00  0.00    +0.000 C 
BRANCH  14  15
ATOM     15  C   UNL     1       4.111   5.267  18.246  0.00  0.00    +0.000 A 
ATOM     16  C   UNL     1       3.758   4.014  17.720  0.00  0.00    +0.000 A 
ATOM     17  C   UNL     1       2.743   3.247  18.307  0.00  0.00    +0.000 A 
ATOM     18  C   UNL     1       2.080   3.731  19.442  0.00  0.00    +0.000 A 
ATOM     19  C   UNL     1       2.432   4.968  19.992  0.00  0.00    +0.000 A 
ATOM     20  C   UNL     1       3.450   5.722  19.398  0.00  0.00    +0.000 A 
BRANCH  18  21
ATOM     21  N   UNL     1       1.009   2.939  20.062  0.00  0.00    +0.000 N 
ATOM     22  O   UNL     1       1.046   2.783  21.291  0.00  0.00    +0.000 OA
ATOM     23  O   UNL     1       0.135   2.475  19.319  0.00  0.00    +0.000 OA
ENDBRANCH  18  21
ENDBRANCH  14  15
ENDBRANCH   1  13
TORSDOF 6
ENDMDL
MODEL 6
REMARK VINA RESULT:      -7.6      3.092      9.929
REMARK  Name = 
REMARK  7 active torsions:
REMARK  status: ('A' for Active; 'I' for Inactive)
REMARK    1  A    between atoms: C_1  and  O_2
REMARK    2  A    between atoms: O_2  and  C_3
REMARK    3  A    between atoms: C_6  and  C_7
REMARK    4  A    between atoms: C_8  and  C_9
REMARK    5  A    between atoms: C_9  and  C_11
REMARK    6  A    between atoms: C_12  and  C_13
REMARK    7  A    between atoms: C_16  and  N_17
REMARK                            x       y       z     vdW  Elec       q    Type
REMARK                         _______ _______ _______ _____ _____    ______ ____
ROOT
ATOM      1  C   UNL     1       7.432   6.723  17.287  0.00  0.00    +0.000 C 
ATOM      2  O   UNL     1       7.788   6.494  16.138  0.00  0.00    +0.000 OA
ENDROOT
BRANCH   1   4
ATOM      3  C   UNL     1       5.095   6.226  17.880  0.00  0.00    +0.000 C 
ATOM      4  C   UNL     1       6.396   5.920  17.994  0.00  0.00    +0.000 C 
BRANCH   3   8
ATOM      5  C   UNL     1       1.964   4.084  19.892  0.00  0.00    +0.000 A 
ATOM      6  C   UNL     1       2.834   3.435  19.016  0.00  0.00    +0.000 A 
ATOM      7  C   UNL     1       3.863   4.141  18.383  0.00  0.00    +0.000 A 
ATOM      8  C   UNL     1       4.017   5.518  18.589  0.00  0.00    +0.000 A 
ATOM      9  C   UNL     1       3.148   6.158  19.481  0.00  0.00    +0.000 A 
ATOM     10  C   UNL     1       2.122   5.449  20.121  0.00  0.00    +0.000 A 
BRANCH   5  12
ATOM     11  C   UNL     1       1.322   2.625  21.637  0.00  0.00    +0.000 C 
ATOM     12  O   UNL     1       0.980   3.303  20.433  0.00  0.00    +0.000 OA
ENDBRANCH   5  12
ENDBRANCH   3   8
ENDBRANCH   1   4
BRANCH   1  13
ATOM     13  C   UNL     1       7.996   7.831  18.104  0.00  0.00    +0.000 C 
ATOM     14  C   UNL     1       8.149   9.065  17.596  0.00  0.00    +0.000 C 
BRANCH  14  15
ATOM     15  C   UNL     1       8.742  10.184  18.347  0.00  0.00    +0.000 A 
ATOM     16  C   UNL     1       9.208   9.960  19.651  0.00  0.00    +0.000 A 
ATOM     17  C   UNL     1       9.768  11.000  20.405  0.00  0.00    +0.000 A 
ATOM     18  C   UNL     1       9.876  12.278  19.843  0.00  0.00    +0.000 A 
ATOM     19  C   UNL     1       9.435  12.516  18.537  0.00  0.00    +0.000 A 
ATOM     20  C   UNL     1       8.881  11.468  17.795  0.00  0.00    +0.000 A 
BRANCH  18  21
ATOM     21  N   UNL     1      10.454  13.379  20.627  0.00  0.00    +0.000 N 
ATOM     22  O   UNL     1      11.400  14.006  20.127  0.00  0.00    +0.000 OA
ATOM     23  O   UNL     1       9.963  13.613  21.738  0.00  0.00    +0.000 OA
ENDBRANCH  18  21
ENDBRANCH  14  15
ENDBRANCH   1  13
TORSDOF 6
ENDMDL
MODEL 7
REMARK VINA RESULT:      -7.5      3.124     10.031
REMARK  Name = 
REMARK  7 active torsions:
REMARK  status: ('A' for Active; 'I' for Inactive)
REMARK    1  A    between atoms: C_1  and  O_2
REMARK    2  A    between atoms: O_2  and  C_3
REMARK    3  A    between atoms: C_6  and  C_7
REMARK    4  A    between atoms: C_8  and  C_9
REMARK    5  A    between atoms: C_9  and  C_11
REMARK    6  A    between atoms: C_12  and  C_13
REMARK    7  A    between atoms: C_16  and  N_17
REMARK                            x       y       z     vdW  Elec       q    Type
REMARK                         _______ _______ _______ _____ _____    ______ ____
ROOT
ATOM      1  C   UNL     1       7.161   7.119  17.245  0.00  0.00    +0.000 C 
ATOM      2  O   UNL     1       7.761   6.659  16.283  0.00  0.00    +0.000 OA
ENDROOT
BRANCH   1   4
ATOM      3  C   UNL     1       4.899   6.178  17.488  0.00  0.00    +0.000 C 
ATOM      4  C   UNL     1       6.126   6.360  18.000  0.00  0.00    +0.000 C 
BRANCH   3   8
ATOM      5  C   UNL     1       1.757   4.182  19.628  0.00  0.00    +0.000 A 
ATOM      6  C   UNL     1       2.721   4.934  20.299  0.00  0.00    +0.000 A 
ATOM      7  C   UNL     1       3.728   5.596  19.587  0.00  0.00    +0.000 A 
ATOM      8  C   UNL     1       3.806   5.489  18.193  0.00  0.00    +0.000 A 
ATOM      9  C   UNL     1       2.825   4.744  17.528  0.00  0.00    +0.000 A 
ATOM     10  C   UNL     1       1.813   4.087  18.240  0.00  0.00    +0.000 A 
BRANCH   5  12
ATOM     11  C   UNL     1       1.371   2.701  21.429  0.00  0.00    +0.000 C 
ATOM     12  O   UNL     1       0.837   3.556  20.425  0.00  0.00    +0.000 OA
ENDBRANCH   5  12
ENDBRANCH   3   8
ENDBRANCH   1   4
BRANCH   1  13
ATOM     13  C   UNL     1       7.400   8.491  17.768  0.00  0.00    +0.000 C 
ATOM     14  C   UNL     1       8.642   8.941  18.008  0.00  0.00    +0.000 C 
BRANCH  14  15
ATOM     15  C   UNL     1       8.931  10.273  18.566  0.00  0.00    +0.000 A 
ATOM     16  C   UNL     1       9.335  10.377  19.906  0.00  0.00    +0.000 A 
ATOM     17  C   UNL     1       9.608  11.625  20.480  0.00  0.00    +0.000 A 
ATOM     18  C   UNL     1       9.488  12.784  19.703  0.00  0.00    +0.000 A 
ATOM     19  C   UNL     1       9.107  12.698  18.360  0.00  0.00    +0.000 A 
ATOM     20  C   UNL     1       8.841  11.445  17.798  0.00  0.00    +0.000 A 
BRANCH  18  21
ATOM     21  N   UNL     1       9.765  14.099  20.297  0.00  0.00    +0.000 N 
ATOM     22  O   UNL     1       8.830  14.910  20.361  0.00  0.00    +0.000 OA
ATOM     23  O   UNL     1      10.916  14.318  20.696  0.00  0.00    +0.000 OA
ENDBRANCH  18  21
ENDBRANCH  14  15
ENDBRANCH   1  13
TORSDOF 6
ENDMDL
MODEL 8
REMARK VINA RESULT:      -7.4      3.126     10.007
REMARK  Name = 
REMARK  7 active torsions:
REMARK  status: ('A' for Active; 'I' for Inactive)
REMARK    1  A    between atoms: C_1  and  O_2
REMARK    2  A    between atoms: O_2  and  C_3
REMARK    3  A    between atoms: C_6  and  C_7
REMARK    4  A    between atoms: C_8  and  C_9
REMARK    5  A    between atoms: C_9  and  C_11
REMARK    6  A    between atoms: C_12  and  C_13
REMARK    7  A    between atoms: C_16  and  N_17
REMARK                            x       y       z     vdW  Elec       q    Type
REMARK                         _______ _______ _______ _____ _____    ______ ____
ROOT
ATOM      1  C   UNL     1       7.351   6.765  17.316  0.00  0.00    +0.000 C 
ATOM      2  O   UNL     1       7.657   6.507  16.159  0.00  0.00    +0.000 OA
ENDROOT
BRANCH   1   4
ATOM      3  C   UNL     1       5.046   6.040  17.784  0.00  0.00    +0.000 C 
ATOM      4  C   UNL     1       6.351   5.981  18.091  0.00  0.00    +0.000 C 
BRANCH   3   8
ATOM      5  C   UNL     1       1.966   3.929  19.904  0.00  0.00    +0.000 A 
ATOM      6  C   UNL     1       2.648   3.334  18.843  0.00  0.00    +0.000 A 
ATOM      7  C   UNL     1       3.664   4.026  18.174  0.00  0.00    +0.000 A 
ATOM      8  C   UNL     1       3.991   5.340  18.534  0.00  0.00    +0.000 A 
ATOM      9  C   UNL     1       3.310   5.923  19.609  0.00  0.00    +0.000 A 
ATOM     10  C   UNL     1       2.298   5.227  20.284  0.00  0.00    +0.000 A 
BRANCH   5  12
ATOM     11  C   UNL     1       1.322   2.498  21.672  0.00  0.00    +0.000 C 
ATOM     12  O   UNL     1       0.975   3.172  20.467  0.00  0.00    +0.000 OA
ENDBRANCH   5  12
ENDBRANCH   3   8
ENDBRANCH   1   4
BRANCH   1  13
ATOM     13  C   UNL     1       7.948   7.896  18.077  0.00  0.00    +0.000 C 
ATOM     14  C   UNL     1       8.034   9.127  17.547  0.00  0.00    +0.000 C 
BRANCH  14  15
ATOM     15  C   UNL     1       8.654  10.269  18.239  0.00  0.00    +0.000 A 
ATOM     16  C   UNL     1       8.440  11.564  17.744  0.00  0.00    +0.000 A 
ATOM     17  C   UNL     1       9.021  12.678  18.364  0.00  0.00    +0.000 A 
ATOM     18  C   UNL     1       9.816  12.496  19.502  0.00  0.00    +0.000 A 
ATOM     19  C   UNL     1      10.025  11.215  20.023  0.00  0.00    +0.000 A 
ATOM     20  C   UNL     1       9.435  10.112  19.396  0.00  0.00    +0.000 A 
BRANCH  18  21
ATOM     21  N   UNL     1      10.438  13.656  20.158  0.00  0.00    +0.000 N 
ATOM     22  O   UNL     1      11.676  13.694  20.210  0.00  0.00    +0.000 OA
ATOM     23  O   UNL     1       9.687  14.525  20.618  0.00  0.00    +0.000 OA
ENDBRANCH  18  21
ENDBRANCH  14  15
ENDBRANCH   1  13
TORSDOF 6
ENDMDL
MODEL 9
REMARK VINA RESULT:      -7.4      1.171      1.384
REMARK  Name = 
REMARK  7 active torsions:
REMARK  status: ('A' for Active; 'I' for Inactive)
REMARK    1  A    between atoms: C_1  and  O_2
REMARK    2  A    between atoms: O_2  and  C_3
REMARK    3  A    between atoms: C_6  and  C_7
REMARK    4  A    between atoms: C_8  and  C_9
REMARK    5  A    between atoms: C_9  and  C_11
REMARK    6  A    between atoms: C_12  and  C_13
REMARK    7  A    between atoms: C_16  and  N_17
REMARK                            x       y       z     vdW  Elec       q    Type
REMARK                         _______ _______ _______ _____ _____    ______ ____
ROOT
ATOM      1  C   UNL     1       7.116   7.317  17.186  0.00  0.00    +0.000 C 
ATOM      2  O   UNL     1       7.820   6.773  16.346  0.00  0.00    +0.000 OA
ENDROOT
BRANCH   1   4
ATOM      3  C   UNL     1       8.645   9.025  18.083  0.00  0.00    +0.000 C 
ATOM      4  C   UNL     1       7.399   8.674  17.732  0.00  0.00    +0.000 C 
BRANCH   3   8
ATOM      5  C   UNL     1       9.679  12.851  19.737  0.00  0.00    +0.000 A 
ATOM      6  C   UNL     1       9.345  12.714  18.389  0.00  0.00    +0.000 A 
ATOM      7  C   UNL     1       8.990  11.465  17.868  0.00  0.00    +0.000 A 
ATOM      8  C   UNL     1       8.997  10.323  18.680  0.00  0.00    +0.000 A 
ATOM      9  C   UNL     1       9.320  10.473  20.034  0.00  0.00    +0.000 A 
ATOM     10  C   UNL     1       9.668  11.726  20.558  0.00  0.00    +0.000 A 
BRANCH   5  12
ATOM     11  C   UNL     1       9.005  15.092  20.072  0.00  0.00    +0.000 C 
ATOM     12  O   UNL     1      10.036  14.111  20.132  0.00  0.00    +0.000 OA
ENDBRANCH   5  12
ENDBRANCH   3   8
ENDBRANCH   1   4
BRANCH   1  13
ATOM     13  C   UNL     1       5.897   6.682  17.756  0.00  0.00    +0.000 C 
ATOM     14  C   UNL     1       5.982   5.670  18.633  0.00  0.00    +0.000 C 
BRANCH  14  15
ATOM     15  C   UNL     1       4.809   4.978  19.193  0.00  0.00    +0.000 A 
ATOM     16  C   UNL     1       4.834   3.580  19.309  0.00  0.00    +0.000 A 
ATOM     17  C   UNL     1       3.735   2.880  19.824  0.00  0.00    +0.000 A 
ATOM     18  C   UNL     1       2.601   3.587  20.241  0.00  0.00    +0.000 A 
ATOM     19  C   UNL     1       2.565   4.983  20.151  0.00  0.00    +0.000 A 
ATOM     20  C   UNL     1       3.671   5.669  19.638  0.00  0.00    +0.000 A 
BRANCH  18  21
ATOM     21  N   UNL     1       1.438   2.864  20.776  0.00  0.00    +0.000 N 
ATOM     22  O   UNL     1       1.465   2.536  21.971  0.00  0.00    +0.000 OA
ATOM     23  O   UNL     1       0.503   2.627  20.001  0.00  0.00    +0.000 OA
ENDBRANCH  18  21
ENDBRANCH  14  15
ENDBRANCH   1  13
TORSDOF 6
ENDMDL
