MODEL 1
REMARK VINA RESULT:      -8.0      0.000      0.000
REMARK  Name = 
REMARK  5 active torsions:
REMARK  status: ('A' for Active; 'I' for Inactive)
REMARK    1  A    between atoms: C_1  and  N_2
REMARK    2  A    between atoms: N_9  and  C_10
REMARK    3  A    between atoms: C_19  and  C_20
REMARK    4  A    between atoms: C_20  and  O_22
REMARK    5  A    between atoms: N_24  and  C_25
REMARK                            x       y       z     vdW  Elec       q    Type
REMARK                         _______ _______ _______ _____ _____    ______ ____
ROOT
ATOM      1  C   UNL     1       2.186   6.222  19.342  0.00  0.00    +0.000 A 
ATOM      2  N   UNL     1       1.491   7.061  20.171  0.00  0.00    +0.000 NA
ATOM      3  C   UNL     1       1.397   8.382  19.873  0.00  0.00    +0.000 A 
ATOM      4  C   UNL     1       1.960   8.890  18.692  0.00  0.00    +0.000 A 
ATOM      5  C   UNL     1       2.633   8.045  17.820  0.00  0.00    +0.000 A 
ATOM      6  C   UNL     1       2.749   6.719  18.155  0.00  0.00    +0.000 A 
ATOM      7  F   UNL     1       3.428   5.927  17.313  0.00  0.00    +0.000 F 
ATOM      8  C   UNL     1       1.871  10.327  18.366  0.00  0.00    +0.000 A 
ATOM      9  O   UNL     1       2.352  10.776  17.335  0.00  0.00    +0.000 OA
ATOM     10  C   UNL     1       1.191  11.226  19.313  0.00  0.00    +0.000 A 
ATOM     11  C   UNL     1       0.689  10.652  20.426  0.00  0.00    +0.000 A 
ATOM     12  N   UNL     1       0.775   9.313  20.768  0.00  0.00    +0.000 N 
ENDROOT
BRANCH   1  21
ATOM     13  C   UNL     1       3.555   2.000  17.930  0.00  0.00    +0.000 C 
ATOM     14  N   UNL     1       2.755   2.084  19.152  0.00  0.00    +0.000 NA
ATOM     15  C   UNL     1       1.463   2.785  18.884  0.00  0.00    +0.000 C 
ATOM     16  C   UNL     1       1.228   3.975  19.858  0.00  0.00    +0.000 C 
ATOM     17  C   UNL     1       1.277   3.422  21.293  0.00  0.00    +0.000 C 
ATOM     18  C   UNL     1       2.614   2.689  21.508  0.00  0.00    +0.000 C 
ATOM     19  C   UNL     1       3.488   2.800  20.237  0.00  0.00    +0.000 C 
ATOM     20  C   UNL     1       3.680   4.314  19.926  0.00  0.00    +0.000 C 
ATOM     21  N   UNL     1       2.353   4.911  19.699  0.00  0.00    +0.000 N 
ENDBRANCH   1  21
BRANCH  12  22
ATOM     22  C   UNL     1       0.184   8.847  22.046  0.00  0.00    +0.000 C 
ATOM     23  C   UNL     1       0.650   9.287  23.416  0.00  0.00    +0.000 C 
ATOM     24  C   UNL     1      -0.665   9.771  22.889  0.00  0.00    +0.000 C 
ENDBRANCH  12  22
BRANCH  10  25
ATOM     25  C   UNL     1       1.048  12.680  19.108  0.00  0.00    +0.000 C 
ATOM     26  O   UNL     1       1.353  13.513  19.950  0.00  0.00    +0.000 OA
BRANCH  25  27
ATOM     27  O   UNL     1       0.548  13.032  17.902  0.00  0.00    +0.000 OA
ATOM     28  H   UNL     1       0.506  12.293  17.247  0.00  0.00    +0.000 HD
ENDBRANCH  25  27
ENDBRANCH  10  25
TORSDOF 4
ENDMDL
MODEL 2
REMARK VINA RESULT:      -7.5      3.756      7.836
REMARK  Name = 
REMARK  5 active torsions:
REMARK  status: ('A' for Active; 'I' for Inactive)
REMARK    1  A    between atoms: C_1  and  N_2
REMARK    2  A    between atoms: N_9  and  C_10
REMARK    3  A    between atoms: C_19  and  C_20
REMARK    4  A    between atoms: C_20  and  O_22
REMARK    5  A    between atoms: N_24  and  C_25
REMARK                            x       y       z     vdW  Elec       q    Type
REMARK                         _______ _______ _______ _____ _____    ______ ____
ROOT
ATOM      1  C   UNL     1       1.570   8.363  19.808  0.00  0.00    +0.000 A 
ATOM      2  N   UNL     1       2.421   7.795  18.900  0.00  0.00    +0.000 NA
ATOM      3  C   UNL     1       2.776   6.491  19.027  0.00  0.00    +0.000 A 
ATOM      4  C   UNL     1       2.235   5.700  20.053  0.00  0.00    +0.000 A 
ATOM      5  C   UNL     1       1.338   6.250  20.959  0.00  0.00    +0.000 A 
ATOM      6  C   UNL     1       1.019   7.579  20.836  0.00  0.00    +0.000 A 
ATOM      7  F   UNL     1       0.174   8.097  21.739  0.00  0.00    +0.000 F 
ATOM      8  C   UNL     1       2.623   4.284  20.204  0.00  0.00    +0.000 A 
ATOM      9  O   UNL     1       2.150   3.586  21.090  0.00  0.00    +0.000 OA
ATOM     10  C   UNL     1       3.605   3.716  19.265  0.00  0.00    +0.000 A 
ATOM     11  C   UNL     1       4.078   4.551  18.318  0.00  0.00    +0.000 A 
ATOM     12  N   UNL     1       3.749   5.887  18.164  0.00  0.00    +0.000 N 
ENDROOT
BRANCH   1  21
ATOM     13  C   UNL     1      -1.529  11.710  20.752  0.00  0.00    +0.000 C 
ATOM     14  N   UNL     1      -0.468  12.014  19.791  0.00  0.00    +0.000 NA
ATOM     15  C   UNL     1      -0.476  11.023  18.673  0.00  0.00    +0.000 C 
ATOM     16  C   UNL     1       0.919  10.363  18.465  0.00  0.00    +0.000 C 
ATOM     17  C   UNL     1       1.935  11.489  18.207  0.00  0.00    +0.000 C 
ATOM     18  C   UNL     1       1.884  12.494  19.373  0.00  0.00    +0.000 C 
ATOM     19  C   UNL     1       0.875  12.013  20.442  0.00  0.00    +0.000 C 
ATOM     20  C   UNL     1       1.313  10.590  20.899  0.00  0.00    +0.000 C 
ATOM     21  N   UNL     1       1.291   9.701  19.724  0.00  0.00    +0.000 N 
ENDBRANCH   1  21
BRANCH  12  22
ATOM     22  C   UNL     1       4.380   6.674  17.077  0.00  0.00    +0.000 C 
ATOM     23  C   UNL     1       5.861   6.966  16.979  0.00  0.00    +0.000 C 
ATOM     24  C   UNL     1       5.231   5.999  16.026  0.00  0.00    +0.000 C 
ENDBRANCH  12  22
BRANCH  10  25
ATOM     25  C   UNL     1       4.082   2.321  19.320  0.00  0.00    +0.000 C 
ATOM     26  O   UNL     1       3.542   1.400  18.723  0.00  0.00    +0.000 OA
BRANCH  25  27
ATOM     27  O   UNL     1       5.179   2.131  20.087  0.00  0.00    +0.000 OA
ATOM     28  H   UNL     1       5.304   2.809  20.794  0.00  0.00    +0.000 HD
ENDBRANCH  25  27
ENDBRANCH  10  25
TORSDOF 4
ENDMDL
MODEL 3
REMARK VINA RESULT:      -7.3      3.765      7.740
REMARK  Name = 
REMARK  5 active torsions:
REMARK  status: ('A' for Active; 'I' for Inactive)
REMARK    1  A    between atoms: C_1  and  N_2
REMARK    2  A    between atoms: N_9  and  C_10
REMARK    3  A    between atoms: C_19  and  C_20
REMARK    4  A    between atoms: C_20  and  O_22
REMARK    5  A    between atoms: N_24  and  C_25
REMARK                            x       y       z     vdW  Elec       q    Type
REMARK                         _______ _______ _______ _____ _____    ______ ____
ROOT
ATOM      1  C   UNL     1       1.319   8.358  19.864  0.00  0.00    +0.000 A 
ATOM      2  N   UNL     1       2.253   7.859  18.998  0.00  0.00    +0.000 NA
ATOM      3  C   UNL     1       2.720   6.594  19.162  0.00  0.00    +0.000 A 
ATOM      4  C   UNL     1       2.215   5.772  20.181  0.00  0.00    +0.000 A 
ATOM      5  C   UNL     1       1.238   6.251  21.044  0.00  0.00    +0.000 A 
ATOM      6  C   UNL     1       0.803   7.543  20.885  0.00  0.00    +0.000 A 
ATOM      7  F   UNL     1      -0.120   7.993  21.746  0.00  0.00    +0.000 F 
ATOM      8  C   UNL     1       2.726   4.401  20.373  0.00  0.00    +0.000 A 
ATOM      9  O   UNL     1       2.285   3.675  21.254  0.00  0.00    +0.000 OA
ATOM     10  C   UNL     1       3.790   3.912  19.481  0.00  0.00    +0.000 A 
ATOM     11  C   UNL     1       4.221   4.773  18.536  0.00  0.00    +0.000 A 
ATOM     12  N   UNL     1       3.777   6.070  18.346  0.00  0.00    +0.000 N 
ENDROOT
BRANCH   1  21
ATOM     13  C   UNL     1       2.463  12.598  18.309  0.00  0.00    +0.000 C 
ATOM     14  N   UNL     1       1.363  12.497  19.268  0.00  0.00    +0.000 NA
ATOM     15  C   UNL     1       1.816  11.805  20.513  0.00  0.00    +0.000 C 
ATOM     16  C   UNL     1       0.902  10.600  20.880  0.00  0.00    +0.000 C 
ATOM     17  C   UNL     1      -0.535  11.131  21.026  0.00  0.00    +0.000 C 
ATOM     18  C   UNL     1      -0.942  11.855  19.729  0.00  0.00    +0.000 C 
ATOM     19  C   UNL     1       0.200  11.761  18.691  0.00  0.00    +0.000 C 
ATOM     20  C   UNL     1       0.507  10.251  18.460  0.00  0.00    +0.000 C 
ATOM     21  N   UNL     1       0.922   9.664  19.746  0.00  0.00    +0.000 N 
ENDBRANCH   1  21
BRANCH  12  22
ATOM     22  C   UNL     1       4.374   6.896  17.269  0.00  0.00    +0.000 C 
ATOM     23  C   UNL     1       5.860   7.087  17.060  0.00  0.00    +0.000 C 
ATOM     24  C   UNL     1       5.078   6.250  16.098  0.00  0.00    +0.000 C 
ENDBRANCH  12  22
BRANCH  10  25
ATOM     25  C   UNL     1       4.391   2.567  19.578  0.00  0.00    +0.000 C 
ATOM     26  O   UNL     1       5.141   2.228  20.484  0.00  0.00    +0.000 OA
BRANCH  25  27
ATOM     27  O   UNL     1       4.047   1.723  18.580  0.00  0.00    +0.000 OA
ATOM     28  H   UNL     1       4.059   2.129  17.680  0.00  0.00    +0.000 HD
ENDBRANCH  25  27
ENDBRANCH  10  25
TORSDOF 4
ENDMDL
MODEL 4
REMARK VINA RESULT:      -7.1      2.959      7.135
REMARK  Name = 
REMARK  5 active torsions:
REMARK  status: ('A' for Active; 'I' for Inactive)
REMARK    1  A    between atoms: C_1  and  N_2
REMARK    2  A    between atoms: N_9  and  C_10
REMARK    3  A    between atoms: C_19  and  C_20
REMARK    4  A    between atoms: C_20  and  O_22
REMARK    5  A    between atoms: N_24  and  C_25
REMARK                            x       y       z     vdW  Elec       q    Type
REMARK                         _______ _______ _______ _____ _____    ______ ____
ROOT
ATOM      1  C   UNL     1       1.617   8.990  19.218  0.00  0.00    +0.000 A 
ATOM      2  N   UNL     1       1.736   7.733  19.746  0.00  0.00    +0.000 NA
ATOM      3  C   UNL     1       2.513   6.809  19.126  0.00  0.00    +0.000 A 
ATOM      4  C   UNL     1       3.243   7.145  17.975  0.00  0.00    +0.000 A 
ATOM      5  C   UNL     1       3.166   8.428  17.450  0.00  0.00    +0.000 A 
ATOM      6  C   UNL     1       2.347   9.339  18.070  0.00  0.00    +0.000 A 
ATOM      7  F   UNL     1       2.265  10.563  17.530  0.00  0.00    +0.000 F 
ATOM      8  C   UNL     1       4.082   6.144  17.288  0.00  0.00    +0.000 A 
ATOM      9  O   UNL     1       4.727   6.431  16.290  0.00  0.00    +0.000 OA
ATOM     10  C   UNL     1       4.130   4.774  17.826  0.00  0.00    +0.000 A 
ATOM     11  C   UNL     1       3.390   4.538  18.929  0.00  0.00    +0.000 A 
ATOM     12  N   UNL     1       2.578   5.451  19.581  0.00  0.00    +0.000 N 
ENDROOT
BRANCH   1  21
ATOM     13  C   UNL     1      -0.407  13.169  18.850  0.00  0.00    +0.000 C 
ATOM     14  N   UNL     1      -0.426  12.515  20.158  0.00  0.00    +0.000 NA
ATOM     15  C   UNL     1       0.964  12.186  20.599  0.00  0.00    +0.000 C 
ATOM     16  C   UNL     1       1.118  10.685  20.982  0.00  0.00    +0.000 C 
ATOM     17  C   UNL     1       0.093  10.376  22.087  0.00  0.00    +0.000 C 
ATOM     18  C   UNL     1      -1.315  10.757  21.592  0.00  0.00    +0.000 C 
ATOM     19  C   UNL     1      -1.244  11.266  20.134  0.00  0.00    +0.000 C 
ATOM     20  C   UNL     1      -0.591  10.145  19.273  0.00  0.00    +0.000 C 
ATOM     21  N   UNL     1       0.760   9.885  19.800  0.00  0.00    +0.000 N 
ENDBRANCH   1  21
BRANCH  12  22
ATOM     22  C   UNL     1       1.811   5.022  20.776  0.00  0.00    +0.000 C 
ATOM     23  C   UNL     1       0.913   3.805  20.825  0.00  0.00    +0.000 C 
ATOM     24  C   UNL     1       2.217   3.793  21.557  0.00  0.00    +0.000 C 
ENDBRANCH  12  22
BRANCH  10  25
ATOM     25  C   UNL     1       4.920   3.682  17.224  0.00  0.00    +0.000 C 
ATOM     26  O   UNL     1       4.467   2.568  16.997  0.00  0.00    +0.000 OA
BRANCH  25  27
ATOM     27  O   UNL     1       6.200   4.006  16.936  0.00  0.00    +0.000 OA
ATOM     28  H   UNL     1       6.621   4.621  17.585  0.00  0.00    +0.000 HD
ENDBRANCH  25  27
ENDBRANCH  10  25
TORSDOF 4
ENDMDL
MODEL 5
REMARK VINA RESULT:      -7.0      1.362      2.095
REMARK  Name = 
REMARK  5 active torsions:
REMARK  status: ('A' for Active; 'I' for Inactive)
REMARK    1  A    between atoms: C_1  and  N_2
REMARK    2  A    between atoms: N_9  and  C_10
REMARK    3  A    between atoms: C_19  and  C_20
REMARK    4  A    between atoms: C_20  and  O_22
REMARK    5  A    between atoms: N_24  and  C_25
REMARK                            x       y       z     vdW  Elec       q    Type
REMARK                         _______ _______ _______ _____ _____    ______ ____
ROOT
ATOM      1  C   UNL     1       2.114   7.632  18.863  0.00  0.00    +0.000 A 
ATOM      2  N   UNL     1       1.314   8.167  19.835  0.00  0.00    +0.000 NA
ATOM      3  C   UNL     1       1.018   9.491  19.816  0.00  0.00    +0.000 A 
ATOM      4  C   UNL     1       1.480  10.312  18.775  0.00  0.00    +0.000 A 
ATOM      5  C   UNL     1       2.260   9.776  17.758  0.00  0.00    +0.000 A 
ATOM      6  C   UNL     1       2.579   8.443  17.814  0.00  0.00    +0.000 A 
ATOM      7  F   UNL     1       3.356   7.953  16.838  0.00  0.00    +0.000 F 
ATOM      8  C   UNL     1       1.172  11.755  18.752  0.00  0.00    +0.000 A 
ATOM      9  O   UNL     1       1.564  12.475  17.844  0.00  0.00    +0.000 OA
ATOM     10  C   UNL     1       0.378  12.326  19.853  0.00  0.00    +0.000 A 
ATOM     11  C   UNL     1      -0.016  11.466  20.814  0.00  0.00    +0.000 A 
ATOM     12  N   UNL     1       0.276  10.113  20.873  0.00  0.00    +0.000 N 
ENDROOT
BRANCH   1  21
ATOM     13  C   UNL     1       0.732   3.314  19.930  0.00  0.00    +0.000 C 
ATOM     14  N   UNL     1       2.169   3.563  19.825  0.00  0.00    +0.000 NA
ATOM     15  C   UNL     1       2.578   4.667  20.745  0.00  0.00    +0.000 C 
ATOM     16  C   UNL     1       3.357   5.791  20.003  0.00  0.00    +0.000 C 
ATOM     17  C   UNL     1       4.579   5.146  19.327  0.00  0.00    +0.000 C 
ATOM     18  C   UNL     1       4.106   4.001  18.413  0.00  0.00    +0.000 C 
ATOM     19  C   UNL     1       2.562   3.915  18.428  0.00  0.00    +0.000 C 
ATOM     20  C   UNL     1       2.007   5.301  17.986  0.00  0.00    +0.000 C 
ATOM     21  N   UNL     1       2.482   6.315  18.943  0.00  0.00    +0.000 N 
ENDBRANCH   1  21
BRANCH  12  22
ATOM     22  C   UNL     1      -0.219   9.309  22.017  0.00  0.00    +0.000 C 
ATOM     23  C   UNL     1       0.417   9.288  23.389  0.00  0.00    +0.000 C 
ATOM     24  C   UNL     1      -0.899   9.972  23.193  0.00  0.00    +0.000 C 
ENDBRANCH  12  22
BRANCH  10  25
ATOM     25  C   UNL     1       0.014  13.753  19.950  0.00  0.00    +0.000 C 
ATOM     26  O   UNL     1       0.333  14.467  20.891  0.00  0.00    +0.000 OA
BRANCH  25  27
ATOM     27  O   UNL     1      -0.706  14.223  18.907  0.00  0.00    +0.000 OA
ATOM     28  H   UNL     1      -0.590  15.188  18.734  0.00  0.00    +0.000 HD
ENDBRANCH  25  27
ENDBRANCH  10  25
TORSDOF 4
ENDMDL
MODEL 6
REMARK VINA RESULT:      -6.9      1.299      1.499
REMARK  Name = 
REMARK  5 active torsions:
REMARK  status: ('A' for Active; 'I' for Inactive)
REMARK    1  A    between atoms: C_1  and  N_2
REMARK    2  A    between atoms: N_9  and  C_10
REMARK    3  A    between atoms: C_19  and  C_20
REMARK    4  A    between atoms: C_20  and  O_22
REMARK    5  A    between atoms: N_24  and  C_25
REMARK                            x       y       z     vdW  Elec       q    Type
REMARK                         _______ _______ _______ _____ _____    ______ ____
ROOT
ATOM      1  C   UNL     1       2.138   7.578  18.961  0.00  0.00    +0.000 A 
ATOM      2  N   UNL     1       1.330   8.192  19.879  0.00  0.00    +0.000 NA
ATOM      3  C   UNL     1       1.110   9.530  19.800  0.00  0.00    +0.000 A 
ATOM      4  C   UNL     1       1.661  10.284  18.751  0.00  0.00    +0.000 A 
ATOM      5  C   UNL     1       2.450   9.668  17.789  0.00  0.00    +0.000 A 
ATOM      6  C   UNL     1       2.690   8.322  17.905  0.00  0.00    +0.000 A 
ATOM      7  F   UNL     1       3.478   7.754  16.982  0.00  0.00    +0.000 F 
ATOM      8  C   UNL     1       1.436  11.739  18.664  0.00  0.00    +0.000 A 
ATOM      9  O   UNL     1       1.905  12.402  17.749  0.00  0.00    +0.000 OA
ATOM     10  C   UNL     1       0.631  12.394  19.709  0.00  0.00    +0.000 A 
ATOM     11  C   UNL     1       0.150  11.594  20.682  0.00  0.00    +0.000 A 
ATOM     12  N   UNL     1       0.362  10.231  20.802  0.00  0.00    +0.000 N 
ENDROOT
BRANCH   1  21
ATOM     13  C   UNL     1       4.504   3.952  17.241  0.00  0.00    +0.000 C 
ATOM     14  N   UNL     1       3.420   3.675  18.184  0.00  0.00    +0.000 NA
ATOM     15  C   UNL     1       2.138   4.269  17.697  0.00  0.00    +0.000 C 
ATOM     16  C   UNL     1       1.471   5.180  18.768  0.00  0.00    +0.000 C 
ATOM     17  C   UNL     1       1.249   4.332  20.032  0.00  0.00    +0.000 C 
ATOM     18  C   UNL     1       2.593   3.723  20.475  0.00  0.00    +0.000 C 
ATOM     19  C   UNL     1       3.727   4.210  19.543  0.00  0.00    +0.000 C 
ATOM     20  C   UNL     1       3.735   5.767  19.581  0.00  0.00    +0.000 C 
ATOM     21  N   UNL     1       2.427   6.247  19.104  0.00  0.00    +0.000 N 
ENDBRANCH   1  21
BRANCH  12  22
ATOM     22  C   UNL     1      -0.224   9.499  21.951  0.00  0.00    +0.000 C 
ATOM     23  C   UNL     1       0.290   9.580  23.371  0.00  0.00    +0.000 C 
ATOM     24  C   UNL     1      -1.010  10.230  23.015  0.00  0.00    +0.000 C 
ENDBRANCH  12  22
BRANCH  10  25
ATOM     25  C   UNL     1       0.345  13.842  19.740  0.00  0.00    +0.000 C 
ATOM     26  O   UNL     1       0.595  14.557  20.700  0.00  0.00    +0.000 OA
BRANCH  25  27
ATOM     27  O   UNL     1      -0.220  14.328  18.612  0.00  0.00    +0.000 OA
ATOM     28  H   UNL     1      -1.207  14.348  18.627  0.00  0.00    +0.000 HD
ENDBRANCH  25  27
ENDBRANCH  10  25
TORSDOF 4
ENDMDL
MODEL 7
REMARK VINA RESULT:      -6.6      2.908      7.056
REMARK  Name = 
REMARK  5 active torsions:
REMARK  status: ('A' for Active; 'I' for Inactive)
REMARK    1  A    between atoms: C_1  and  N_2
REMARK    2  A    between atoms: N_9  and  C_10
REMARK    3  A    between atoms: C_19  and  C_20
REMARK    4  A    between atoms: C_20  and  O_22
REMARK    5  A    between atoms: N_24  and  C_25
REMARK                            x       y       z     vdW  Elec       q    Type
REMARK                         _______ _______ _______ _____ _____    ______ ____
ROOT
ATOM      1  C   UNL     1       1.710   8.437  19.795  0.00  0.00    +0.000 A 
ATOM      2  N   UNL     1       1.931   7.154  20.216  0.00  0.00    +0.000 NA
ATOM      3  C   UNL     1       2.643   6.300  19.437  0.00  0.00    +0.000 A 
ATOM      4  C   UNL     1       3.203   6.734  18.225  0.00  0.00    +0.000 A 
ATOM      5  C   UNL     1       3.022   8.045  17.804  0.00  0.00    +0.000 A 
ATOM      6  C   UNL     1       2.269   8.884  18.587  0.00  0.00    +0.000 A 
ATOM      7  F   UNL     1       2.083  10.137  18.147  0.00  0.00    +0.000 F 
ATOM      8  C   UNL     1       3.968   5.809  17.368  0.00  0.00    +0.000 A 
ATOM      9  O   UNL     1       4.466   6.183  16.315  0.00  0.00    +0.000 OA
ATOM     10  C   UNL     1       4.124   4.410  17.800  0.00  0.00    +0.000 A 
ATOM     11  C   UNL     1       3.546   4.079  18.972  0.00  0.00    +0.000 A 
ATOM     12  N   UNL     1       2.805   4.919  19.787  0.00  0.00    +0.000 N 
ENDROOT
BRANCH   1  21
ATOM     13  C   UNL     1      -0.581  12.491  19.922  0.00  0.00    +0.000 C 
ATOM     14  N   UNL     1      -0.340  11.804  21.191  0.00  0.00    +0.000 NA
ATOM     15  C   UNL     1       1.121  11.550  21.379  0.00  0.00    +0.000 C 
ATOM     16  C   UNL     1       1.423  10.053  21.677  0.00  0.00    +0.000 C 
ATOM     17  C   UNL     1       0.620   9.653  22.927  0.00  0.00    +0.000 C 
ATOM     18  C   UNL     1      -0.870   9.958  22.690  0.00  0.00    +0.000 C 
ATOM     19  C   UNL     1      -1.078  10.509  21.260  0.00  0.00    +0.000 C 
ATOM     20  C   UNL     1      -0.519   9.452  20.262  0.00  0.00    +0.000 C 
ATOM     21  N   UNL     1       0.915   9.263  20.544  0.00  0.00    +0.000 N 
ENDBRANCH   1  21
BRANCH  12  22
ATOM     22  C   UNL     1       2.216   4.387  21.040  0.00  0.00    +0.000 C 
ATOM     23  C   UNL     1       1.132   3.333  21.098  0.00  0.00    +0.000 C 
ATOM     24  C   UNL     1       2.528   2.984  21.508  0.00  0.00    +0.000 C 
ENDBRANCH  12  22
BRANCH  10  25
ATOM     25  C   UNL     1       4.855   3.387  17.027  0.00  0.00    +0.000 C 
ATOM     26  O   UNL     1       5.750   3.652  16.236  0.00  0.00    +0.000 OA
BRANCH  25  27
ATOM     27  O   UNL     1       4.459   2.116  17.260  0.00  0.00    +0.000 OA
ATOM     28  H   UNL     1       3.940   1.997  18.092  0.00  0.00    +0.000 HD
ENDBRANCH  25  27
ENDBRANCH  10  25
TORSDOF 4
ENDMDL
MODEL 8
REMARK VINA RESULT:      -6.6      2.945      6.887
REMARK  Name = 
REMARK  5 active torsions:
REMARK  status: ('A' for Active; 'I' for Inactive)
REMARK    1  A    between atoms: C_1  and  N_2
REMARK    2  A    between atoms: N_9  and  C_10
REMARK    3  A    between atoms: C_19  and  C_20
REMARK    4  A    between atoms: C_20  and  O_22
REMARK    5  A    between atoms: N_24  and  C_25
REMARK                            x       y       z     vdW  Elec       q    Type
REMARK                         _______ _______ _______ _____ _____    ______ ____
ROOT
ATOM      1  C   UNL     1       1.815   8.725  19.323  0.00  0.00    +0.000 A 
ATOM      2  N   UNL     1       2.141   7.470  19.759  0.00  0.00    +0.000 NA
ATOM      3  C   UNL     1       2.969   6.690  19.018  0.00  0.00    +0.000 A 
ATOM      4  C   UNL     1       3.539   7.177  17.832  0.00  0.00    +0.000 A 
ATOM      5  C   UNL     1       3.250   8.463  17.396  0.00  0.00    +0.000 A 
ATOM      6  C   UNL     1       2.383   9.225  18.140  0.00  0.00    +0.000 A 
ATOM      7  F   UNL     1       2.096  10.453  17.685  0.00  0.00    +0.000 F 
ATOM      8  C   UNL     1       4.430   6.331  17.015  0.00  0.00    +0.000 A 
ATOM      9  O   UNL     1       4.937   6.751  15.984  0.00  0.00    +0.000 OA
ATOM     10  C   UNL     1       4.702   4.954  17.460  0.00  0.00    +0.000 A 
ATOM     11  C   UNL     1       4.105   4.568  18.606  0.00  0.00    +0.000 A 
ATOM     12  N   UNL     1       3.248   5.331  19.381  0.00  0.00    +0.000 N 
ENDROOT
BRANCH   1  21
ATOM     13  C   UNL     1       0.020   9.614  23.529  0.00  0.00    +0.000 C 
ATOM     14  N   UNL     1      -0.723  10.080  22.358  0.00  0.00    +0.000 NA
ATOM     15  C   UNL     1      -1.019   8.940  21.438  0.00  0.00    +0.000 C 
ATOM     16  C   UNL     1      -0.541   9.221  19.984  0.00  0.00    +0.000 C 
ATOM     17  C   UNL     1      -1.224  10.515  19.508  0.00  0.00    +0.000 C 
ATOM     18  C   UNL     1      -0.910  11.648  20.502  0.00  0.00    +0.000 C 
ATOM     19  C   UNL     1       0.033  11.131  21.613  0.00  0.00    +0.000 C 
ATOM     20  C   UNL     1       1.311  10.568  20.925  0.00  0.00    +0.000 C 
ATOM     21  N   UNL     1       0.908   9.469  20.030  0.00  0.00    +0.000 N 
ENDBRANCH   1  21
BRANCH  12  22
ATOM     22  C   UNL     1       2.657   4.745  20.609  0.00  0.00    +0.000 C 
ATOM     23  C   UNL     1       1.308   4.063  20.668  0.00  0.00    +0.000 C 
ATOM     24  C   UNL     1       2.556   3.246  20.781  0.00  0.00    +0.000 C 
ENDBRANCH  12  22
BRANCH  10  25
ATOM     25  C   UNL     1       5.565   4.008  16.726  0.00  0.00    +0.000 C 
ATOM     26  O   UNL     1       5.153   3.263  15.848  0.00  0.00    +0.000 OA
BRANCH  25  27
ATOM     27  O   UNL     1       6.864   4.026  17.099  0.00  0.00    +0.000 OA
ATOM     28  H   UNL     1       7.024   3.748  18.033  0.00  0.00    +0.000 HD
ENDBRANCH  25  27
ENDBRANCH  10  25
TORSDOF 4
ENDMDL
MODEL 9
REMARK VINA RESULT:      -6.5      0.852      1.771
REMARK  Name = 
REMARK  5 active torsions:
REMARK  status: ('A' for Active; 'I' for Inactive)
REMARK    1  A    between atoms: C_1  and  N_2
REMARK    2  A    between atoms: N_9  and  C_10
REMARK    3  A    between atoms: C_19  and  C_20
REMARK    4  A    between atoms: C_20  and  O_22
REMARK    5  A    between atoms: N_24  and  C_25
REMARK                            x       y       z     vdW  Elec       q    Type
REMARK                         _______ _______ _______ _____ _____    ______ ____
ROOT
ATOM      1  C   UNL     1       2.440   6.589  18.791  0.00  0.00    +0.000 A 
ATOM      2  N   UNL     1       1.692   7.301  19.689  0.00  0.00    +0.000 NA
ATOM      3  C   UNL     1       1.560   8.644  19.545  0.00  0.00    +0.000 A 
ATOM      4  C   UNL     1       2.138   9.306  18.450  0.00  0.00    +0.000 A 
ATOM      5  C   UNL     1       2.865   8.592  17.508  0.00  0.00    +0.000 A 
ATOM      6  C   UNL     1       3.019   7.240  17.689  0.00  0.00    +0.000 A 
ATOM      7  F   UNL     1       3.749   6.575  16.783  0.00  0.00    +0.000 F 
ATOM      8  C   UNL     1       2.008  10.768  18.293  0.00  0.00    +0.000 A 
ATOM      9  O   UNL     1       2.502  11.351  17.338  0.00  0.00    +0.000 OA
ATOM     10  C   UNL     1       1.269  11.526  19.316  0.00  0.00    +0.000 A 
ATOM     11  C   UNL     1       0.755  10.809  20.337  0.00  0.00    +0.000 A 
ATOM     12  N   UNL     1       0.879   9.443  20.522  0.00  0.00    +0.000 N 
ENDROOT
BRANCH   1  21
ATOM     13  C   UNL     1       1.178   2.843  21.256  0.00  0.00    +0.000 C 
ATOM     14  N   UNL     1       2.432   2.776  20.507  0.00  0.00    +0.000 NA
ATOM     15  C   UNL     1       3.341   3.894  20.906  0.00  0.00    +0.000 C 
ATOM     16  C   UNL     1       3.831   4.716  19.679  0.00  0.00    +0.000 C 
ATOM     17  C   UNL     1       4.532   3.744  18.714  0.00  0.00    +0.000 C 
ATOM     18  C   UNL     1       3.564   2.601  18.356  0.00  0.00    +0.000 C 
ATOM     19  C   UNL     1       2.194   2.835  19.035  0.00  0.00    +0.000 C 
ATOM     20  C   UNL     1       1.670   4.228  18.573  0.00  0.00    +0.000 C 
ATOM     21  N   UNL     1       2.643   5.250  18.996  0.00  0.00    +0.000 N 
ENDBRANCH   1  21
BRANCH  12  22
ATOM     22  C   UNL     1       0.269   8.810  21.716  0.00  0.00    +0.000 C 
ATOM     23  C   UNL     1       0.614   9.166  23.146  0.00  0.00    +0.000 C 
ATOM     24  C   UNL     1      -0.711   9.570  22.580  0.00  0.00    +0.000 C 
ENDBRANCH  12  22
BRANCH  10  25
ATOM     25  C   UNL     1       1.080  12.989  19.278  0.00  0.00    +0.000 C 
ATOM     26  O   UNL     1       0.006  13.536  19.489  0.00  0.00    +0.000 OA
BRANCH  25  27
ATOM     27  O   UNL     1       2.197  13.694  18.990  0.00  0.00    +0.000 OA
ATOM     28  H   UNL     1       2.216  14.073  18.078  0.00  0.00    +0.000 HD
ENDBRANCH  25  27
ENDBRANCH  10  25
TORSDOF 4
ENDMDL
