MODEL 1
REMARK VINA RESULT:      -6.3      0.000      0.000
REMARK  Name = 
REMARK  18 active torsions:
REMARK  status: ('A' for Active; 'I' for Inactive)
REMARK    1  A    between atoms: C_1  and  C_2
REMARK    2  A    between atoms: C_2  and  C_3
REMARK    3  A    between atoms: C_3  and  C_4
REMARK    4  A    between atoms: C_4  and  C_5
REMARK    5  A    between atoms: C_5  and  C_6
REMARK    6  A    between atoms: C_6  and  O_7
REMARK    7  A    between atoms: C_6  and  C_8
REMARK    8  A    between atoms: C_9  and  C_10
REMARK    9  A    between atoms: C_15  and  C_16
REMARK   10  A    between atoms: C_16  and  C_17
REMARK   11  A    between atoms: C_17  and  C_18
REMARK   12  A    between atoms: C_18  and  C_19
REMARK   13  A    between atoms: C_19  and  C_20
REMARK   14  A    between atoms: C_20  and  C_21
REMARK   15  A    between atoms: C_21  and  C_22
REMARK   16  A    between atoms: C_22  and  C_23
REMARK   17  A    between atoms: C_23  and  C_24
REMARK   18  A    between atoms: C_24  and  O_26
REMARK                            x       y       z     vdW  Elec       q    Type
REMARK                         _______ _______ _______ _____ _____    ______ ____
ROOT
ATOM      1  C   UNL     1       2.081   7.261  18.018  0.00  0.00    +0.000 C 
ATOM      2  C   UNL     1       1.609   8.703  17.758  0.00  0.00    +0.000 C 
ATOM      3  C   UNL     1       1.835   9.468  19.053  0.00  0.00    +0.000 C 
ATOM      4  C   UNL     1       1.736   8.390  20.095  0.00  0.00    +0.000 C 
ATOM      5  O   UNL     1       1.673   8.645  21.292  0.00  0.00    +0.000 OA
ATOM      6  C   UNL     1       1.695   6.992  19.493  0.00  0.00    +0.000 C 
ENDROOT
BRANCH   1   8
ATOM      7  C   UNL     1       4.043   6.166  16.868  0.00  0.00    +0.000 C 
ATOM      8  C   UNL     1       3.541   7.153  17.638  0.00  0.00    +0.000 C 
BRANCH   7   9
ATOM      9  C   UNL     1       5.394   6.263  16.222  0.00  0.00    +0.000 C 
BRANCH   9  10
ATOM     10  C   UNL     1       6.121   4.936  15.912  0.00  0.00    +0.000 C 
ATOM     11  C   UNL     1       7.307   4.977  14.888  0.00  0.00    +0.000 C 
ATOM     12  C   UNL     1       6.359   4.449  13.801  0.00  0.00    +0.000 C 
ATOM     13  C   UNL     1       5.412   3.960  14.917  0.00  0.00    +0.000 C 
BRANCH  10  14
ATOM     14  C   UNL     1       6.574   4.233  17.226  0.00  0.00    +0.000 C 
BRANCH  14  15
ATOM     15  C   UNL     1       7.973   4.676  17.666  0.00  0.00    +0.000 C 
BRANCH  15  17
ATOM     16  C   UNL     1       6.552   5.607  19.498  0.00  0.00    +0.000 C 
ATOM     17  C   UNL     1       7.980   5.345  19.039  0.00  0.00    +0.000 C 
ENDBRANCH  15  17
ENDBRANCH  14  15
ENDBRANCH  10  14
ENDBRANCH   9  10
BRANCH   9  18
ATOM     18  O   UNL     1       5.231   7.015  15.020  0.00  0.00    +0.000 OA
ATOM     19  H   UNL     1       5.755   6.584  14.325  0.00  0.00    +0.000 HD
ENDBRANCH   9  18
ENDBRANCH   7   9
ENDBRANCH   1   8
BRANCH   6  20
ATOM     20  C   UNL     1       2.573   5.963  20.214  0.00  0.00    +0.000 C 
BRANCH  20  21
ATOM     21  C   UNL     1       1.769   4.968  21.065  0.00  0.00    +0.000 C 
BRANCH  21  22
ATOM     22  C   UNL     1       0.688   4.209  20.286  0.00  0.00    +0.000 C 
BRANCH  22  23
ATOM     23  C   UNL     1       0.971   2.709  20.143  0.00  0.00    +0.000 C 
BRANCH  23  24
ATOM     24  C   UNL     1       1.051   2.298  18.673  0.00  0.00    +0.000 C 
BRANCH  24  25
ATOM     25  C   UNL     1       2.080   3.132  17.902  0.00  0.00    +0.000 C 
BRANCH  25  26
ATOM     26  C   UNL     1       3.471   2.509  18.016  0.00  0.00    +0.000 C 
BRANCH  26  27
ATOM     27  C   UNL     1       4.274   3.090  19.179  0.00  0.00    +0.000 C 
BRANCH  27  28
ATOM     28  C   UNL     1       4.481   2.067  20.270  0.00  0.00    +0.000 C 
ATOM     29  O   UNL     1       4.050   2.142  21.411  0.00  0.00    +0.000 OA
BRANCH  28  30
ATOM     30  O   UNL     1       5.218   1.010  19.853  0.00  0.00    +0.000 OA
ATOM     31  H   UNL     1       5.825   0.661  20.532  0.00  0.00    +0.000 HD
ENDBRANCH  28  30
ENDBRANCH  27  28
ENDBRANCH  26  27
ENDBRANCH  25  26
ENDBRANCH  24  25
ENDBRANCH  23  24
ENDBRANCH  22  23
ENDBRANCH  21  22
ENDBRANCH  20  21
ENDBRANCH   6  20
TORSDOF 17
ENDMDL
MODEL 2
REMARK VINA RESULT:      -6.2      3.951      7.969
REMARK  Name = 
REMARK  18 active torsions:
REMARK  status: ('A' for Active; 'I' for Inactive)
REMARK    1  A    between atoms: C_1  and  C_2
REMARK    2  A    between atoms: C_2  and  C_3
REMARK    3  A    between atoms: C_3  and  C_4
REMARK    4  A    between atoms: C_4  and  C_5
REMARK    5  A    between atoms: C_5  and  C_6
REMARK    6  A    between atoms: C_6  and  O_7
REMARK    7  A    between atoms: C_6  and  C_8
REMARK    8  A    between atoms: C_9  and  C_10
REMARK    9  A    between atoms: C_15  and  C_16
REMARK   10  A    between atoms: C_16  and  C_17
REMARK   11  A    between atoms: C_17  and  C_18
REMARK   12  A    between atoms: C_18  and  C_19
REMARK   13  A    between atoms: C_19  and  C_20
REMARK   14  A    between atoms: C_20  and  C_21
REMARK   15  A    between atoms: C_21  and  C_22
REMARK   16  A    between atoms: C_22  and  C_23
REMARK   17  A    between atoms: C_23  and  C_24
REMARK   18  A    between atoms: C_24  and  O_26
REMARK                            x       y       z     vdW  Elec       q    Type
REMARK                         _______ _______ _______ _____ _____    ______ ____
ROOT
ATOM      1  C   UNL     1       5.589   6.481  16.364  0.00  0.00    +0.000 C 
ATOM      2  C   UNL     1       5.247   5.190  15.598  0.00  0.00    +0.000 C 
ATOM      3  C   UNL     1       6.117   4.094  16.194  0.00  0.00    +0.000 C 
ATOM      4  C   UNL     1       7.310   4.856  16.697  0.00  0.00    +0.000 C 
ATOM      5  O   UNL     1       8.329   4.294  17.078  0.00  0.00    +0.000 OA
ATOM      6  C   UNL     1       7.107   6.365  16.649  0.00  0.00    +0.000 C 
ENDROOT
BRANCH   1   8
ATOM      7  C   UNL     1       3.334   6.344  17.488  0.00  0.00    +0.000 C 
ATOM      8  C   UNL     1       4.655   6.606  17.547  0.00  0.00    +0.000 C 
BRANCH   7   9
ATOM      9  C   UNL     1       2.504   6.135  18.720  0.00  0.00    +0.000 C 
BRANCH   9  10
ATOM     10  C   UNL     1       2.462   4.706  19.304  0.00  0.00    +0.000 C 
ATOM     11  C   UNL     1       1.106   3.923  19.216  0.00  0.00    +0.000 C 
ATOM     12  C   UNL     1       0.825   4.285  20.681  0.00  0.00    +0.000 C 
ATOM     13  C   UNL     1       2.329   4.582  20.858  0.00  0.00    +0.000 C 
BRANCH  10  14
ATOM     14  C   UNL     1       3.618   3.838  18.727  0.00  0.00    +0.000 C 
BRANCH  14  15
ATOM     15  C   UNL     1       4.491   3.232  19.831  0.00  0.00    +0.000 C 
BRANCH  15  17
ATOM     16  C   UNL     1       3.716   1.189  18.619  0.00  0.00    +0.000 C 
ATOM     17  C   UNL     1       4.452   1.705  19.848  0.00  0.00    +0.000 C 
ENDBRANCH  15  17
ENDBRANCH  14  15
ENDBRANCH  10  14
ENDBRANCH   9  10
BRANCH   9  18
ATOM     18  O   UNL     1       2.985   7.045  19.709  0.00  0.00    +0.000 OA
ATOM     19  H   UNL     1       2.456   6.919  20.513  0.00  0.00    +0.000 HD
ENDBRANCH   9  18
ENDBRANCH   7   9
ENDBRANCH   1   8
BRANCH   6  20
ATOM     20  C   UNL     1       7.590   7.112  17.897  0.00  0.00    +0.000 C 
BRANCH  20  21
ATOM     21  C   UNL     1       7.890   8.597  17.638  0.00  0.00    +0.000 C 
BRANCH  21  22
ATOM     22  C   UNL     1       8.724   9.267  18.736  0.00  0.00    +0.000 C 
BRANCH  22  23
ATOM     23  C   UNL     1       9.328  10.612  18.316  0.00  0.00    +0.000 C 
BRANCH  23  24
ATOM     24  C   UNL     1       9.132  11.670  19.401  0.00  0.00    +0.000 C 
BRANCH  24  25
ATOM     25  C   UNL     1      10.251  11.631  20.447  0.00  0.00    +0.000 C 
BRANCH  25  26
ATOM     26  C   UNL     1       9.746  12.152  21.794  0.00  0.00    +0.000 C 
BRANCH  26  27
ATOM     27  C   UNL     1       8.245  12.436  21.780  0.00  0.00    +0.000 C 
BRANCH  27  28
ATOM     28  C   UNL     1       7.564  11.853  22.995  0.00  0.00    +0.000 C 
ATOM     29  O   UNL     1       8.082  11.112  23.817  0.00  0.00    +0.000 OA
BRANCH  28  30
ATOM     30  O   UNL     1       6.270  12.242  23.098  0.00  0.00    +0.000 OA
ATOM     31  H   UNL     1       5.636  11.603  22.721  0.00  0.00    +0.000 HD
ENDBRANCH  28  30
ENDBRANCH  27  28
ENDBRANCH  26  27
ENDBRANCH  25  26
ENDBRANCH  24  25
ENDBRANCH  23  24
ENDBRANCH  22  23
ENDBRANCH  21  22
ENDBRANCH  20  21
ENDBRANCH   6  20
TORSDOF 17
ENDMDL
MODEL 3
REMARK VINA RESULT:      -6.2      3.049      6.681
REMARK  Name = 
REMARK  18 active torsions:
REMARK  status: ('A' for Active; 'I' for Inactive)
REMARK    1  A    between atoms: C_1  and  C_2
REMARK    2  A    between atoms: C_2  and  C_3
REMARK    3  A    between atoms: C_3  and  C_4
REMARK    4  A    between atoms: C_4  and  C_5
REMARK    5  A    between atoms: C_5  and  C_6
REMARK    6  A    between atoms: C_6  and  O_7
REMARK    7  A    between atoms: C_6  and  C_8
REMARK    8  A    between atoms: C_9  and  C_10
REMARK    9  A    between atoms: C_15  and  C_16
REMARK   10  A    between atoms: C_16  and  C_17
REMARK   11  A    between atoms: C_17  and  C_18
REMARK   12  A    between atoms: C_18  and  C_19
REMARK   13  A    between atoms: C_19  and  C_20
REMARK   14  A    between atoms: C_20  and  C_21
REMARK   15  A    between atoms: C_21  and  C_22
REMARK   16  A    between atoms: C_22  and  C_23
REMARK   17  A    between atoms: C_23  and  C_24
REMARK   18  A    between atoms: C_24  and  O_26
REMARK                            x       y       z     vdW  Elec       q    Type
REMARK                         _______ _______ _______ _____ _____    ______ ____
ROOT
ATOM      1  C   UNL     1       2.672   4.445  20.480  0.00  0.00    +0.000 C 
ATOM      2  C   UNL     1       2.465   2.993  20.948  0.00  0.00    +0.000 C 
ATOM      3  C   UNL     1       2.109   2.190  19.708  0.00  0.00    +0.000 C 
ATOM      4  C   UNL     1       1.468   3.219  18.820  0.00  0.00    +0.000 C 
ATOM      5  O   UNL     1       0.870   2.913  17.795  0.00  0.00    +0.000 OA
ATOM      6  C   UNL     1       1.626   4.636  19.354  0.00  0.00    +0.000 C 
ENDROOT
BRANCH   1   8
ATOM      7  C   UNL     1       4.740   4.031  19.094  0.00  0.00    +0.000 C 
ATOM      8  C   UNL     1       4.130   4.641  20.131  0.00  0.00    +0.000 C 
BRANCH   7   9
ATOM      9  C   UNL     1       6.062   4.495  18.558  0.00  0.00    +0.000 C 
BRANCH   9  10
ATOM     10  C   UNL     1       6.035   5.390  17.300  0.00  0.00    +0.000 C 
ATOM     11  C   UNL     1       7.410   5.845  16.699  0.00  0.00    +0.000 C 
ATOM     12  C   UNL     1       7.241   7.204  17.393  0.00  0.00    +0.000 C 
ATOM     13  C   UNL     1       5.732   6.909  17.522  0.00  0.00    +0.000 C 
BRANCH  10  14
ATOM     14  C   UNL     1       5.150   4.756  16.187  0.00  0.00    +0.000 C 
BRANCH  14  15
ATOM     15  C   UNL     1       5.699   5.032  14.784  0.00  0.00    +0.000 C 
BRANCH  15  17
ATOM     16  C   UNL     1       5.705   3.611  12.728  0.00  0.00    +0.000 C 
ATOM     17  C   UNL     1       6.292   3.789  14.123  0.00  0.00    +0.000 C 
ENDBRANCH  15  17
ENDBRANCH  14  15
ENDBRANCH  10  14
ENDBRANCH   9  10
BRANCH   9  18
ATOM     18  O   UNL     1       6.729   5.177  19.619  0.00  0.00    +0.000 OA
ATOM     19  H   UNL     1       6.157   5.904  19.913  0.00  0.00    +0.000 HD
ENDBRANCH   9  18
ENDBRANCH   7   9
ENDBRANCH   1   8
BRANCH   6  20
ATOM     20  C   UNL     1       2.000   5.677  18.293  0.00  0.00    +0.000 C 
BRANCH  20  21
ATOM     21  C   UNL     1       2.175   7.092  18.866  0.00  0.00    +0.000 C 
BRANCH  21  22
ATOM     22  C   UNL     1       2.468   8.163  17.808  0.00  0.00    +0.000 C 
BRANCH  22  23
ATOM     23  C   UNL     1       1.913   9.547  18.164  0.00  0.00    +0.000 C 
BRANCH  23  24
ATOM     24  C   UNL     1       0.453   9.686  17.734  0.00  0.00    +0.000 C 
BRANCH  24  25
ATOM     25  C   UNL     1      -0.405  10.333  18.827  0.00  0.00    +0.000 C 
BRANCH  25  26
ATOM     26  C   UNL     1      -1.880  10.334  18.422  0.00  0.00    +0.000 C 
BRANCH  26  27
ATOM     27  C   UNL     1      -2.084   9.893  16.973  0.00  0.00    +0.000 C 
BRANCH  27  28
ATOM     28  C   UNL     1      -2.890  10.908  16.199  0.00  0.00    +0.000 C 
ATOM     29  O   UNL     1      -3.097  10.887  14.994  0.00  0.00    +0.000 OA
BRANCH  28  30
ATOM     30  O   UNL     1      -3.388  11.886  16.992  0.00  0.00    +0.000 OA
ATOM     31  H   UNL     1      -3.499  12.742  16.538  0.00  0.00    +0.000 HD
ENDBRANCH  28  30
ENDBRANCH  27  28
ENDBRANCH  26  27
ENDBRANCH  25  26
ENDBRANCH  24  25
ENDBRANCH  23  24
ENDBRANCH  22  23
ENDBRANCH  21  22
ENDBRANCH  20  21
ENDBRANCH   6  20
TORSDOF 17
ENDMDL
MODEL 4
REMARK VINA RESULT:      -6.2      0.872      1.111
REMARK  Name = 
REMARK  18 active torsions:
REMARK  status: ('A' for Active; 'I' for Inactive)
REMARK    1  A    between atoms: C_1  and  C_2
REMARK    2  A    between atoms: C_2  and  C_3
REMARK    3  A    between atoms: C_3  and  C_4
REMARK    4  A    between atoms: C_4  and  C_5
REMARK    5  A    between atoms: C_5  and  C_6
REMARK    6  A    between atoms: C_6  and  O_7
REMARK    7  A    between atoms: C_6  and  C_8
REMARK    8  A    between atoms: C_9  and  C_10
REMARK    9  A    between atoms: C_15  and  C_16
REMARK   10  A    between atoms: C_16  and  C_17
REMARK   11  A    between atoms: C_17  and  C_18
REMARK   12  A    between atoms: C_18  and  C_19
REMARK   13  A    between atoms: C_19  and  C_20
REMARK   14  A    between atoms: C_20  and  C_21
REMARK   15  A    between atoms: C_21  and  C_22
REMARK   16  A    between atoms: C_22  and  C_23
REMARK   17  A    between atoms: C_23  and  C_24
REMARK   18  A    between atoms: C_24  and  O_26
REMARK                            x       y       z     vdW  Elec       q    Type
REMARK                         _______ _______ _______ _____ _____    ______ ____
ROOT
ATOM      1  C   UNL     1       1.974   7.550  17.975  0.00  0.00    +0.000 C 
ATOM      2  C   UNL     1       1.474   8.994  17.785  0.00  0.00    +0.000 C 
ATOM      3  C   UNL     1       1.678   9.697  19.118  0.00  0.00    +0.000 C 
ATOM      4  C   UNL     1       1.594   8.567  20.104  0.00  0.00    +0.000 C 
ATOM      5  O   UNL     1       1.521   8.760  21.311  0.00  0.00    +0.000 OA
ATOM      6  C   UNL     1       1.585   7.200  19.433  0.00  0.00    +0.000 C 
ENDROOT
BRANCH   1   8
ATOM      7  C   UNL     1       3.990   6.476  16.903  0.00  0.00    +0.000 C 
ATOM      8  C   UNL     1       3.437   7.489  17.600  0.00  0.00    +0.000 C 
BRANCH   7   9
ATOM      9  C   UNL     1       5.334   6.594  16.247  0.00  0.00    +0.000 C 
BRANCH   9  10
ATOM     10  C   UNL     1       6.178   5.305  16.138  0.00  0.00    +0.000 C 
ATOM     11  C   UNL     1       6.819   4.970  14.747  0.00  0.00    +0.000 C 
ATOM     12  C   UNL     1       5.679   3.976  14.483  0.00  0.00    +0.000 C 
ATOM     13  C   UNL     1       5.393   3.959  16.000  0.00  0.00    +0.000 C 
BRANCH  10  14
ATOM     14  C   UNL     1       7.264   5.258  17.253  0.00  0.00    +0.000 C 
BRANCH  14  15
ATOM     15  C   UNL     1       7.706   6.658  17.689  0.00  0.00    +0.000 C 
BRANCH  15  17
ATOM     16  C   UNL     1       8.102   5.318  19.760  0.00  0.00    +0.000 C 
ATOM     17  C   UNL     1       8.168   6.709  19.144  0.00  0.00    +0.000 C 
ENDBRANCH  15  17
ENDBRANCH  14  15
ENDBRANCH  10  14
ENDBRANCH   9  10
BRANCH   9  18
ATOM     18  O   UNL     1       5.120   7.141  14.946  0.00  0.00    +0.000 OA
ATOM     19  H   UNL     1       4.705   8.012  15.053  0.00  0.00    +0.000 HD
ENDBRANCH   9  18
ENDBRANCH   7   9
ENDBRANCH   1   8
BRANCH   6  20
ATOM     20  C   UNL     1       2.478   6.153  20.107  0.00  0.00    +0.000 C 
BRANCH  20  21
ATOM     21  C   UNL     1       1.750   5.333  21.182  0.00  0.00    +0.000 C 
BRANCH  21  22
ATOM     22  C   UNL     1       2.362   3.951  21.436  0.00  0.00    +0.000 C 
BRANCH  22  23
ATOM     23  C   UNL     1       1.406   2.789  21.139  0.00  0.00    +0.000 C 
BRANCH  23  24
ATOM     24  C   UNL     1       0.689   2.990  19.804  0.00  0.00    +0.000 C 
BRANCH  24  25
ATOM     25  C   UNL     1       1.245   2.069  18.712  0.00  0.00    +0.000 C 
BRANCH  25  26
ATOM     26  C   UNL     1       2.574   2.608  18.182  0.00  0.00    +0.000 C 
BRANCH  26  27
ATOM     27  C   UNL     1       3.732   1.639  18.424  0.00  0.00    +0.000 C 
BRANCH  27  28
ATOM     28  C   UNL     1       4.651   2.143  19.510  0.00  0.00    +0.000 C 
ATOM     29  O   UNL     1       4.937   1.546  20.538  0.00  0.00    +0.000 OA
BRANCH  28  30
ATOM     30  O   UNL     1       5.155   3.369  19.232  0.00  0.00    +0.000 OA
ATOM     31  H   UNL     1       5.804   3.685  19.888  0.00  0.00    +0.000 HD
ENDBRANCH  28  30
ENDBRANCH  27  28
ENDBRANCH  26  27
ENDBRANCH  25  26
ENDBRANCH  24  25
ENDBRANCH  23  24
ENDBRANCH  22  23
ENDBRANCH  21  22
ENDBRANCH  20  21
ENDBRANCH   6  20
TORSDOF 17
ENDMDL
MODEL 5
REMARK VINA RESULT:      -6.1      2.544      6.702
REMARK  Name = 
REMARK  18 active torsions:
REMARK  status: ('A' for Active; 'I' for Inactive)
REMARK    1  A    between atoms: C_1  and  C_2
REMARK    2  A    between atoms: C_2  and  C_3
REMARK    3  A    between atoms: C_3  and  C_4
REMARK    4  A    between atoms: C_4  and  C_5
REMARK    5  A    between atoms: C_5  and  C_6
REMARK    6  A    between atoms: C_6  and  O_7
REMARK    7  A    between atoms: C_6  and  C_8
REMARK    8  A    between atoms: C_9  and  C_10
REMARK    9  A    between atoms: C_15  and  C_16
REMARK   10  A    between atoms: C_16  and  C_17
REMARK   11  A    between atoms: C_17  and  C_18
REMARK   12  A    between atoms: C_18  and  C_19
REMARK   13  A    between atoms: C_19  and  C_20
REMARK   14  A    between atoms: C_20  and  C_21
REMARK   15  A    between atoms: C_21  and  C_22
REMARK   16  A    between atoms: C_22  and  C_23
REMARK   17  A    between atoms: C_23  and  C_24
REMARK   18  A    between atoms: C_24  and  O_26
REMARK                            x       y       z     vdW  Elec       q    Type
REMARK                         _______ _______ _______ _____ _____    ______ ____
ROOT
ATOM      1  C   UNL     1       2.462   6.759  19.911  0.00  0.00    +0.000 C 
ATOM      2  C   UNL     1       2.814   7.453  18.582  0.00  0.00    +0.000 C 
ATOM      3  C   UNL     1       1.947   6.802  17.516  0.00  0.00    +0.000 C 
ATOM      4  C   UNL     1       1.714   5.426  18.075  0.00  0.00    +0.000 C 
ATOM      5  O   UNL     1       1.212   4.529  17.408  0.00  0.00    +0.000 OA
ATOM      6  C   UNL     1       2.192   5.287  19.514  0.00  0.00    +0.000 C 
ENDROOT
BRANCH   1   8
ATOM      7  C   UNL     1       1.540   8.626  21.338  0.00  0.00    +0.000 C 
ATOM      8  C   UNL     1       1.344   7.528  20.579  0.00  0.00    +0.000 C 
BRANCH   7   9
ATOM      9  C   UNL     1       0.422   9.561  21.695  0.00  0.00    +0.000 C 
BRANCH   9  10
ATOM     10  C   UNL     1       0.042  10.631  20.648  0.00  0.00    +0.000 C 
ATOM     11  C   UNL     1       1.193  11.234  19.771  0.00  0.00    +0.000 C 
ATOM     12  C   UNL     1       1.219  12.466  20.687  0.00  0.00    +0.000 C 
ATOM     13  C   UNL     1      -0.193  12.085  21.178  0.00  0.00    +0.000 C 
BRANCH  10  14
ATOM     14  C   UNL     1      -1.116  10.128  19.737  0.00  0.00    +0.000 C 
BRANCH  14  15
ATOM     15  C   UNL     1      -0.683   9.997  18.273  0.00  0.00    +0.000 C 
BRANCH  15  17
ATOM     16  C   UNL     1      -3.091   9.672  17.686  0.00  0.00    +0.000 C 
ATOM     17  C   UNL     1      -1.793  10.364  17.290  0.00  0.00    +0.000 C 
ENDBRANCH  15  17
ENDBRANCH  14  15
ENDBRANCH  10  14
ENDBRANCH   9  10
BRANCH   9  18
ATOM     18  O   UNL     1      -0.718   8.758  21.997  0.00  0.00    +0.000 OA
ATOM     19  H   UNL     1      -1.029   9.002  22.883  0.00  0.00    +0.000 HD
ENDBRANCH   9  18
ENDBRANCH   7   9
ENDBRANCH   1   8
BRANCH   6  20
ATOM     20  C   UNL     1       1.225   4.536  20.435  0.00  0.00    +0.000 C 
BRANCH  20  21
ATOM     21  C   UNL     1       1.923   3.514  21.346  0.00  0.00    +0.000 C 
BRANCH  21  22
ATOM     22  C   UNL     1       2.916   2.601  20.616  0.00  0.00    +0.000 C 
BRANCH  22  23
ATOM     23  C   UNL     1       2.321   1.901  19.388  0.00  0.00    +0.000 C 
BRANCH  23  24
ATOM     24  C   UNL     1       3.336   1.826  18.248  0.00  0.00    +0.000 C 
BRANCH  24  25
ATOM     25  C   UNL     1       4.455   2.861  18.410  0.00  0.00    +0.000 C 
BRANCH  25  26
ATOM     26  C   UNL     1       4.650   3.648  17.113  0.00  0.00    +0.000 C 
BRANCH  26  27
ATOM     27  C   UNL     1       5.519   4.889  17.313  0.00  0.00    +0.000 C 
BRANCH  27  28
ATOM     28  C   UNL     1       6.970   4.599  17.014  0.00  0.00    +0.000 C 
ATOM     29  O   UNL     1       7.501   4.667  15.915  0.00  0.00    +0.000 OA
BRANCH  28  30
ATOM     30  O   UNL     1       7.663   4.239  18.121  0.00  0.00    +0.000 OA
ATOM     31  H   UNL     1       8.559   4.624  18.166  0.00  0.00    +0.000 HD
ENDBRANCH  28  30
ENDBRANCH  27  28
ENDBRANCH  26  27
ENDBRANCH  25  26
ENDBRANCH  24  25
ENDBRANCH  23  24
ENDBRANCH  22  23
ENDBRANCH  21  22
ENDBRANCH  20  21
ENDBRANCH   6  20
TORSDOF 17
ENDMDL
MODEL 6
REMARK VINA RESULT:      -6.1      2.858      7.679
REMARK  Name = 
REMARK  18 active torsions:
REMARK  status: ('A' for Active; 'I' for Inactive)
REMARK    1  A    between atoms: C_1  and  C_2
REMARK    2  A    between atoms: C_2  and  C_3
REMARK    3  A    between atoms: C_3  and  C_4
REMARK    4  A    between atoms: C_4  and  C_5
REMARK    5  A    between atoms: C_5  and  C_6
REMARK    6  A    between atoms: C_6  and  O_7
REMARK    7  A    between atoms: C_6  and  C_8
REMARK    8  A    between atoms: C_9  and  C_10
REMARK    9  A    between atoms: C_15  and  C_16
REMARK   10  A    between atoms: C_16  and  C_17
REMARK   11  A    between atoms: C_17  and  C_18
REMARK   12  A    between atoms: C_18  and  C_19
REMARK   13  A    between atoms: C_19  and  C_20
REMARK   14  A    between atoms: C_20  and  C_21
REMARK   15  A    between atoms: C_21  and  C_22
REMARK   16  A    between atoms: C_22  and  C_23
REMARK   17  A    between atoms: C_23  and  C_24
REMARK   18  A    between atoms: C_24  and  O_26
REMARK                            x       y       z     vdW  Elec       q    Type
REMARK                         _______ _______ _______ _____ _____    ______ ____
ROOT
ATOM      1  C   UNL     1       3.214   5.483  17.887  0.00  0.00    +0.000 C 
ATOM      2  C   UNL     1       1.865   4.762  17.713  0.00  0.00    +0.000 C 
ATOM      3  C   UNL     1       1.947   3.493  18.547  0.00  0.00    +0.000 C 
ATOM      4  C   UNL     1       3.420   3.199  18.557  0.00  0.00    +0.000 C 
ATOM      5  O   UNL     1       3.870   2.138  18.973  0.00  0.00    +0.000 OA
ATOM      6  C   UNL     1       4.251   4.337  17.979  0.00  0.00    +0.000 C 
ENDROOT
BRANCH   1   8
ATOM      7  C   UNL     1       2.265   7.488  19.091  0.00  0.00    +0.000 C 
ATOM      8  C   UNL     1       3.109   6.437  19.057  0.00  0.00    +0.000 C 
BRANCH   7   9
ATOM      9  C   UNL     1       1.925   8.199  20.368  0.00  0.00    +0.000 C 
BRANCH   9  10
ATOM     10  C   UNL     1       0.752   9.203  20.321  0.00  0.00    +0.000 C 
ATOM     11  C   UNL     1       0.920  10.556  21.095  0.00  0.00    +0.000 C 
ATOM     12  C   UNL     1       0.081   9.978  22.244  0.00  0.00    +0.000 C 
ATOM     13  C   UNL     1      -0.462   8.915  21.265  0.00  0.00    +0.000 C 
BRANCH  10  14
ATOM     14  C   UNL     1       0.319   9.480  18.851  0.00  0.00    +0.000 C 
BRANCH  14  15
ATOM     15  C   UNL     1      -0.206  10.907  18.662  0.00  0.00    +0.000 C 
BRANCH  15  17
ATOM     16  C   UNL     1      -2.331  12.022  19.359  0.00  0.00    +0.000 C 
ATOM     17  C   UNL     1      -1.718  10.962  18.454  0.00  0.00    +0.000 C 
ENDBRANCH  15  17
ENDBRANCH  14  15
ENDBRANCH  10  14
ENDBRANCH   9  10
BRANCH   9  18
ATOM     18  O   UNL     1       1.660   7.197  21.349  0.00  0.00    +0.000 OA
ATOM     19  H   UNL     1       0.700   7.159  21.486  0.00  0.00    +0.000 HD
ENDBRANCH   9  18
ENDBRANCH   7   9
ENDBRANCH   1   8
BRANCH   6  20
ATOM     20  C   UNL     1       5.516   4.671  18.778  0.00  0.00    +0.000 C 
BRANCH  20  21
ATOM     21  C   UNL     1       6.796   4.642  17.930  0.00  0.00    +0.000 C 
BRANCH  21  22
ATOM     22  C   UNL     1       6.808   5.656  16.780  0.00  0.00    +0.000 C 
BRANCH  22  23
ATOM     23  C   UNL     1       7.066   5.027  15.406  0.00  0.00    +0.000 C 
BRANCH  23  24
ATOM     24  C   UNL     1       5.820   5.090  14.524  0.00  0.00    +0.000 C 
BRANCH  24  25
ATOM     25  C   UNL     1       5.468   3.720  13.933  0.00  0.00    +0.000 C 
BRANCH  25  26
ATOM     26  C   UNL     1       6.095   3.556  12.548  0.00  0.00    +0.000 C 
BRANCH  26  27
ATOM     27  C   UNL     1       5.469   2.406  11.759  0.00  0.00    +0.000 C 
BRANCH  27  28
ATOM     28  C   UNL     1       6.514   1.412  11.314  0.00  0.00    +0.000 C 
ATOM     29  O   UNL     1       7.661   1.680  10.987  0.00  0.00    +0.000 OA
BRANCH  28  30
ATOM     30  O   UNL     1       6.048   0.140  11.310  0.00  0.00    +0.000 OA
ATOM     31  H   UNL     1       6.750  -0.536  11.263  0.00  0.00    +0.000 HD
ENDBRANCH  28  30
ENDBRANCH  27  28
ENDBRANCH  26  27
ENDBRANCH  25  26
ENDBRANCH  24  25
ENDBRANCH  23  24
ENDBRANCH  22  23
ENDBRANCH  21  22
ENDBRANCH  20  21
ENDBRANCH   6  20
TORSDOF 17
ENDMDL
MODEL 7
REMARK VINA RESULT:      -6.1      4.571      8.605
REMARK  Name = 
REMARK  18 active torsions:
REMARK  status: ('A' for Active; 'I' for Inactive)
REMARK    1  A    between atoms: C_1  and  C_2
REMARK    2  A    between atoms: C_2  and  C_3
REMARK    3  A    between atoms: C_3  and  C_4
REMARK    4  A    between atoms: C_4  and  C_5
REMARK    5  A    between atoms: C_5  and  C_6
REMARK    6  A    between atoms: C_6  and  O_7
REMARK    7  A    between atoms: C_6  and  C_8
REMARK    8  A    between atoms: C_9  and  C_10
REMARK    9  A    between atoms: C_15  and  C_16
REMARK   10  A    between atoms: C_16  and  C_17
REMARK   11  A    between atoms: C_17  and  C_18
REMARK   12  A    between atoms: C_18  and  C_19
REMARK   13  A    between atoms: C_19  and  C_20
REMARK   14  A    between atoms: C_20  and  C_21
REMARK   15  A    between atoms: C_21  and  C_22
REMARK   16  A    between atoms: C_22  and  C_23
REMARK   17  A    between atoms: C_23  and  C_24
REMARK   18  A    between atoms: C_24  and  O_26
REMARK                            x       y       z     vdW  Elec       q    Type
REMARK                         _______ _______ _______ _____ _____    ______ ____
ROOT
ATOM      1  C   UNL     1       5.645   6.833  16.516  0.00  0.00    +0.000 C 
ATOM      2  C   UNL     1       5.331   5.878  15.350  0.00  0.00    +0.000 C 
ATOM      3  C   UNL     1       6.027   4.565  15.673  0.00  0.00    +0.000 C 
ATOM      4  C   UNL     1       7.183   5.005  16.525  0.00  0.00    +0.000 C 
ATOM      5  O   UNL     1       8.096   4.245  16.828  0.00  0.00    +0.000 OA
ATOM      6  C   UNL     1       7.094   6.471  16.927  0.00  0.00    +0.000 C 
ENDROOT
BRANCH   1   8
ATOM      7  C   UNL     1       3.244   6.652  17.270  0.00  0.00    +0.000 C 
ATOM      8  C   UNL     1       4.560   6.700  17.560  0.00  0.00    +0.000 C 
BRANCH   7   9
ATOM      9  C   UNL     1       2.222   6.176  18.261  0.00  0.00    +0.000 C 
BRANCH   9  10
ATOM     10  C   UNL     1       2.325   4.705  18.721  0.00  0.00    +0.000 C 
ATOM     11  C   UNL     1       3.388   3.793  18.016  0.00  0.00    +0.000 C 
ATOM     12  C   UNL     1       2.272   3.204  17.142  0.00  0.00    +0.000 C 
ATOM     13  C   UNL     1       1.244   3.716  18.172  0.00  0.00    +0.000 C 
BRANCH  10  14
ATOM     14  C   UNL     1       2.489   4.619  20.268  0.00  0.00    +0.000 C 
BRANCH  14  15
ATOM     15  C   UNL     1       3.334   3.413  20.693  0.00  0.00    +0.000 C 
BRANCH  15  17
ATOM     16  C   UNL     1       1.127   2.736  21.648  0.00  0.00    +0.000 C 
ATOM     17  C   UNL     1       2.634   2.532  21.725  0.00  0.00    +0.000 C 
ENDBRANCH  15  17
ENDBRANCH  14  15
ENDBRANCH  10  14
ENDBRANCH   9  10
BRANCH   9  18
ATOM     18  O   UNL     1       2.300   7.041  19.393  0.00  0.00    +0.000 OA
ATOM     19  H   UNL     1       2.984   6.694  19.988  0.00  0.00    +0.000 HD
ENDBRANCH   9  18
ENDBRANCH   7   9
ENDBRANCH   1   8
BRANCH   6  20
ATOM     20  C   UNL     1       7.439   6.752  18.393  0.00  0.00    +0.000 C 
BRANCH  20  21
ATOM     21  C   UNL     1       8.647   7.686  18.565  0.00  0.00    +0.000 C 
BRANCH  21  22
ATOM     22  C   UNL     1       8.352   9.156  18.244  0.00  0.00    +0.000 C 
BRANCH  22  23
ATOM     23  C   UNL     1       8.965  10.140  19.246  0.00  0.00    +0.000 C 
BRANCH  23  24
ATOM     24  C   UNL     1      10.081  10.962  18.603  0.00  0.00    +0.000 C 
BRANCH  24  25
ATOM     25  C   UNL     1      10.783  11.869  19.621  0.00  0.00    +0.000 C 
BRANCH  25  26
ATOM     26  C   UNL     1      12.071  12.442  19.030  0.00  0.00    +0.000 C 
BRANCH  26  27
ATOM     27  C   UNL     1      11.905  13.890  18.569  0.00  0.00    +0.000 C 
BRANCH  27  28
ATOM     28  C   UNL     1      11.270  13.961  17.201  0.00  0.00    +0.000 C 
ATOM     29  O   UNL     1      11.603  13.307  16.224  0.00  0.00    +0.000 OA
BRANCH  28  30
ATOM     30  O   UNL     1      10.253  14.854  17.151  0.00  0.00    +0.000 OA
ATOM     31  H   UNL     1       9.706  14.783  16.346  0.00  0.00    +0.000 HD
ENDBRANCH  28  30
ENDBRANCH  27  28
ENDBRANCH  26  27
ENDBRANCH  25  26
ENDBRANCH  24  25
ENDBRANCH  23  24
ENDBRANCH  22  23
ENDBRANCH  21  22
ENDBRANCH  20  21
ENDBRANCH   6  20
TORSDOF 17
ENDMDL
MODEL 8
REMARK VINA RESULT:      -6.1      4.777      8.819
REMARK  Name = 
REMARK  18 active torsions:
REMARK  status: ('A' for Active; 'I' for Inactive)
REMARK    1  A    between atoms: C_1  and  C_2
REMARK    2  A    between atoms: C_2  and  C_3
REMARK    3  A    between atoms: C_3  and  C_4
REMARK    4  A    between atoms: C_4  and  C_5
REMARK    5  A    between atoms: C_5  and  C_6
REMARK    6  A    between atoms: C_6  and  O_7
REMARK    7  A    between atoms: C_6  and  C_8
REMARK    8  A    between atoms: C_9  and  C_10
REMARK    9  A    between atoms: C_15  and  C_16
REMARK   10  A    between atoms: C_16  and  C_17
REMARK   11  A    between atoms: C_17  and  C_18
REMARK   12  A    between atoms: C_18  and  C_19
REMARK   13  A    between atoms: C_19  and  C_20
REMARK   14  A    between atoms: C_20  and  C_21
REMARK   15  A    between atoms: C_21  and  C_22
REMARK   16  A    between atoms: C_22  and  C_23
REMARK   17  A    between atoms: C_23  and  C_24
REMARK   18  A    between atoms: C_24  and  O_26
REMARK                            x       y       z     vdW  Elec       q    Type
REMARK                         _______ _______ _______ _____ _____    ______ ____
ROOT
ATOM      1  C   UNL     1       5.676   6.401  16.399  0.00  0.00    +0.000 C 
ATOM      2  C   UNL     1       5.356   5.073  15.689  0.00  0.00    +0.000 C 
ATOM      3  C   UNL     1       6.128   3.993  16.431  0.00  0.00    +0.000 C 
ATOM      4  C   UNL     1       7.298   4.750  16.993  0.00  0.00    +0.000 C 
ATOM      5  O   UNL     1       8.257   4.182  17.501  0.00  0.00    +0.000 OA
ATOM      6  C   UNL     1       7.156   6.258  16.830  0.00  0.00    +0.000 C 
ENDROOT
BRANCH   1   8
ATOM      7  C   UNL     1       3.397   6.121  17.449  0.00  0.00    +0.000 C 
ATOM      8  C   UNL     1       4.644   6.634  17.481  0.00  0.00    +0.000 C 
BRANCH   7   9
ATOM      9  C   UNL     1       2.522   6.068  18.666  0.00  0.00    +0.000 C 
BRANCH   9  10
ATOM     10  C   UNL     1       2.573   4.776  19.511  0.00  0.00    +0.000 C 
ATOM     11  C   UNL     1       1.448   3.709  19.280  0.00  0.00    +0.000 C 
ATOM     12  C   UNL     1       0.726   4.229  20.531  0.00  0.00    +0.000 C 
ATOM     13  C   UNL     1       2.053   4.875  20.983  0.00  0.00    +0.000 C 
BRANCH  10  14
ATOM     14  C   UNL     1       3.975   4.104  19.411  0.00  0.00    +0.000 C 
BRANCH  14  15
ATOM     15  C   UNL     1       4.007   2.732  20.093  0.00  0.00    +0.000 C 
BRANCH  15  17
ATOM     16  C   UNL     1       3.608   1.550  17.928  0.00  0.00    +0.000 C 
ATOM     17  C   UNL     1       4.492   1.619  19.166  0.00  0.00    +0.000 C 
ENDBRANCH  15  17
ENDBRANCH  14  15
ENDBRANCH  10  14
ENDBRANCH   9  10
BRANCH   9  18
ATOM     18  O   UNL     1       2.867   7.188  19.480  0.00  0.00    +0.000 OA
ATOM     19  H   UNL     1       2.498   7.984  19.064  0.00  0.00    +0.000 HD
ENDBRANCH   9  18
ENDBRANCH   7   9
ENDBRANCH   1   8
BRANCH   6  20
ATOM     20  C   UNL     1       7.552   7.071  18.067  0.00  0.00    +0.000 C 
BRANCH  20  21
ATOM     21  C   UNL     1       7.698   8.574  17.785  0.00  0.00    +0.000 C 
BRANCH  21  22
ATOM     22  C   UNL     1       8.961   9.203  18.386  0.00  0.00    +0.000 C 
BRANCH  22  23
ATOM     23  C   UNL     1       8.719  10.571  19.035  0.00  0.00    +0.000 C 
BRANCH  23  24
ATOM     24  C   UNL     1       9.997  11.119  19.666  0.00  0.00    +0.000 C 
BRANCH  24  25
ATOM     25  C   UNL     1      11.006  11.579  18.608  0.00  0.00    +0.000 C 
BRANCH  25  26
ATOM     26  C   UNL     1      10.332  12.496  17.587  0.00  0.00    +0.000 C 
BRANCH  26  27
ATOM     27  C   UNL     1      10.252  13.944  18.071  0.00  0.00    +0.000 C 
BRANCH  27  28
ATOM     28  C   UNL     1      11.186  14.837  17.290  0.00  0.00    +0.000 C 
ATOM     29  O   UNL     1      12.326  14.556  16.951  0.00  0.00    +0.000 OA
BRANCH  28  30
ATOM     30  O   UNL     1      10.622  16.030  16.985  0.00  0.00    +0.000 OA
ATOM     31  H   UNL     1       9.680  15.969  16.739  0.00  0.00    +0.000 HD
ENDBRANCH  28  30
ENDBRANCH  27  28
ENDBRANCH  26  27
ENDBRANCH  25  26
ENDBRANCH  24  25
ENDBRANCH  23  24
ENDBRANCH  22  23
ENDBRANCH  21  22
ENDBRANCH  20  21
ENDBRANCH   6  20
TORSDOF 17
ENDMDL
MODEL 9
REMARK VINA RESULT:      -6.0      2.294      5.683
REMARK  Name = 
REMARK  18 active torsions:
REMARK  status: ('A' for Active; 'I' for Inactive)
REMARK    1  A    between atoms: C_1  and  C_2
REMARK    2  A    between atoms: C_2  and  C_3
REMARK    3  A    between atoms: C_3  and  C_4
REMARK    4  A    between atoms: C_4  and  C_5
REMARK    5  A    between atoms: C_5  and  C_6
REMARK    6  A    between atoms: C_6  and  O_7
REMARK    7  A    between atoms: C_6  and  C_8
REMARK    8  A    between atoms: C_9  and  C_10
REMARK    9  A    between atoms: C_15  and  C_16
REMARK   10  A    between atoms: C_16  and  C_17
REMARK   11  A    between atoms: C_17  and  C_18
REMARK   12  A    between atoms: C_18  and  C_19
REMARK   13  A    between atoms: C_19  and  C_20
REMARK   14  A    between atoms: C_20  and  C_21
REMARK   15  A    between atoms: C_21  and  C_22
REMARK   16  A    between atoms: C_22  and  C_23
REMARK   17  A    between atoms: C_23  and  C_24
REMARK   18  A    between atoms: C_24  and  O_26
REMARK                            x       y       z     vdW  Elec       q    Type
REMARK                         _______ _______ _______ _____ _____    ______ ____
ROOT
ATOM      1  C   UNL     1       3.713   4.054  19.420  0.00  0.00    +0.000 C 
ATOM      2  C   UNL     1       3.677   2.560  19.787  0.00  0.00    +0.000 C 
ATOM      3  C   UNL     1       2.559   1.942  18.961  0.00  0.00    +0.000 C 
ATOM      4  C   UNL     1       1.627   3.101  18.748  0.00  0.00    +0.000 C 
ATOM      5  O   UNL     1       0.503   2.956  18.283  0.00  0.00    +0.000 OA
ATOM      6  C   UNL     1       2.227   4.428  19.194  0.00  0.00    +0.000 C 
ENDROOT
BRANCH   1   8
ATOM      7  C   UNL     1       6.014   4.281  18.409  0.00  0.00    +0.000 C 
ATOM      8  C   UNL     1       4.674   4.249  18.268  0.00  0.00    +0.000 C 
BRANCH   7   9
ATOM      9  C   UNL     1       6.945   4.124  17.243  0.00  0.00    +0.000 C 
BRANCH   9  10
ATOM     10  C   UNL     1       6.812   5.149  16.096  0.00  0.00    +0.000 C 
ATOM     11  C   UNL     1       5.375   5.434  15.537  0.00  0.00    +0.000 C 
ATOM     12  C   UNL     1       5.670   4.495  14.358  0.00  0.00    +0.000 C 
ATOM     13  C   UNL     1       7.175   4.650  14.658  0.00  0.00    +0.000 C 
BRANCH  10  14
ATOM     14  C   UNL     1       7.517   6.488  16.464  0.00  0.00    +0.000 C 
BRANCH  14  15
ATOM     15  C   UNL     1       6.556   7.484  17.123  0.00  0.00    +0.000 C 
BRANCH  15  17
ATOM     16  C   UNL     1       8.534   8.206  18.468  0.00  0.00    +0.000 C 
ATOM     17  C   UNL     1       7.275   8.676  17.751  0.00  0.00    +0.000 C 
ENDBRANCH  15  17
ENDBRANCH  14  15
ENDBRANCH  10  14
ENDBRANCH   9  10
BRANCH   9  18
ATOM     18  O   UNL     1       8.275   4.151  17.761  0.00  0.00    +0.000 OA
ATOM     19  H   UNL     1       8.833   4.629  17.126  0.00  0.00    +0.000 HD
ENDBRANCH   9  18
ENDBRANCH   7   9
ENDBRANCH   1   8
BRANCH   6  20
ATOM     20  C   UNL     1       1.992   5.591  18.224  0.00  0.00    +0.000 C 
BRANCH  20  21
ATOM     21  C   UNL     1       2.527   6.934  18.744  0.00  0.00    +0.000 C 
BRANCH  21  22
ATOM     22  C   UNL     1       2.714   7.997  17.654  0.00  0.00    +0.000 C 
BRANCH  22  23
ATOM     23  C   UNL     1       2.043   9.336  17.979  0.00  0.00    +0.000 C 
BRANCH  23  24
ATOM     24  C   UNL     1       1.276   9.266  19.299  0.00  0.00    +0.000 C 
BRANCH  24  25
ATOM     25  C   UNL     1       0.045  10.180  19.294  0.00  0.00    +0.000 C 
BRANCH  25  26
ATOM     26  C   UNL     1      -0.681  10.111  20.638  0.00  0.00    +0.000 C 
BRANCH  26  27
ATOM     27  C   UNL     1       0.002   9.158  21.618  0.00  0.00    +0.000 C 
BRANCH  27  28
ATOM     28  C   UNL     1      -0.100   9.662  23.037  0.00  0.00    +0.000 C 
ATOM     29  O   UNL     1       0.796   9.645  23.868  0.00  0.00    +0.000 OA
BRANCH  28  30
ATOM     30  O   UNL     1      -1.328  10.159  23.321  0.00  0.00    +0.000 OA
ATOM     31  H   UNL     1      -2.014   9.903  22.676  0.00  0.00    +0.000 HD
ENDBRANCH  28  30
ENDBRANCH  27  28
ENDBRANCH  26  27
ENDBRANCH  25  26
ENDBRANCH  24  25
ENDBRANCH  23  24
ENDBRANCH  22  23
ENDBRANCH  21  22
ENDBRANCH  20  21
ENDBRANCH   6  20
TORSDOF 17
ENDMDL
