MODEL 1
REMARK VINA RESULT:      -7.4      0.000      0.000
REMARK  Name = 
REMARK  12 active torsions:
REMARK  status: ('A' for Active; 'I' for Inactive)
REMARK    1  A    between atoms: C_1  and  C_2
REMARK    2  A    between atoms: C_2  and  N_3
REMARK    3  A    between atoms: N_3  and  C_4
REMARK    4  A    between atoms: C_4  and  C_5
REMARK    5  A    between atoms: N_7  and  C_8
REMARK    6  A    between atoms: C_8  and  C_9
REMARK    7  A    between atoms: C_14  and  C_16
REMARK    8  A    between atoms: C_20  and  S_21
REMARK    9  A    between atoms: S_21  and  N_24
REMARK   10  A    between atoms: N_24  and  C_25
REMARK   11  A    between atoms: N_24  and  C_27
REMARK   12  A    between atoms: C_25  and  C_26
REMARK                            x       y       z     vdW  Elec       q    Type
REMARK                         _______ _______ _______ _____ _____    ______ ____
ROOT
ATOM      1  C   UNL     1       1.845   7.368  19.470  0.00  0.00    +0.000 A 
ATOM      2  C   UNL     1       2.602   7.541  18.301  0.00  0.00    +0.000 A 
ATOM      3  C   UNL     1       2.614   8.769  17.623  0.00  0.00    +0.000 A 
ATOM      4  C   UNL     1       1.916   9.868  18.133  0.00  0.00    +0.000 A 
ATOM      5  C   UNL     1       1.194   9.715  19.302  0.00  0.00    +0.000 A 
ATOM      6  C   UNL     1       1.069   8.442  19.889  0.00  0.00    +0.000 A 
ENDROOT
BRANCH   1   8
ATOM      7  N   UNL     1       2.044   4.819  19.536  0.00  0.00    +0.000 N 
ATOM      8  C   UNL     1       1.959   6.061  20.196  0.00  0.00    +0.000 C 
ATOM      9  O   UNL     1       1.870   6.125  21.432  0.00  0.00    +0.000 OA
BRANCH   7  11
ATOM     10  C   UNL     1       1.107   2.521  19.631  0.00  0.00    +0.000 C 
ATOM     11  C   UNL     1       1.853   3.627  20.376  0.00  0.00    +0.000 C 
ENDBRANCH   7  11
BRANCH   7  12
ATOM     12  C   UNL     1       2.185   4.562  18.086  0.00  0.00    +0.000 C 
BRANCH  12  13
ATOM     13  C   UNL     1       3.643   4.260  17.631  0.00  0.00    +0.000 C 
ATOM     14  O   UNL     1       3.911   3.825  16.516  0.00  0.00    +0.000 OA
ATOM     15  N   UNL     1       4.627   4.567  18.566  0.00  0.00    +0.000 N 
ATOM     16  H   UNL     1       4.393   4.889  19.500  0.00  0.00    +0.000 HD
BRANCH  15  17
ATOM     17  C   UNL     1       6.033   4.416  18.222  0.00  0.00    +0.000 C 
BRANCH  17  18
ATOM     18  C   UNL     1       6.740   5.741  18.172  0.00  0.00    +0.000 A 
ATOM     19  C   UNL     1       7.854   6.153  18.879  0.00  0.00    +0.000 A 
ATOM     20  C   UNL     1       8.291   7.462  18.527  0.00  0.00    +0.000 A 
ATOM     21  C   UNL     1       7.529   7.999  17.516  0.00  0.00    +0.000 A 
ATOM     22  S   UNL     1       6.267   6.946  17.041  0.00  0.00    +0.000 S 
ENDBRANCH  17  18
ENDBRANCH  15  17
ENDBRANCH  12  13
ENDBRANCH   7  12
ENDBRANCH   1   8
BRANCH   5  23
ATOM     23  S   UNL     1       0.355  11.011  20.171  0.00  0.00    +0.000 S 
ATOM     24  O   UNL     1      -0.651  10.294  20.920  0.00  0.00    +0.000 OA
ATOM     25  O   UNL     1       1.397  11.748  20.867  0.00  0.00    +0.000 OA
BRANCH  23  26
ATOM     26  N   UNL     1      -0.455  12.117  19.103  0.00  0.00    +0.000 N 
BRANCH  26  27
ATOM     27  C   UNL     1      -1.705  11.497  18.640  0.00  0.00    +0.000 A 
ATOM     28  C   UNL     1      -1.713  10.448  17.705  0.00  0.00    +0.000 A 
ATOM     29  C   UNL     1      -2.921   9.938  17.220  0.00  0.00    +0.000 A 
ATOM     30  C   UNL     1      -4.126  10.499  17.633  0.00  0.00    +0.000 A 
ATOM     31  C   UNL     1      -4.126  11.569  18.527  0.00  0.00    +0.000 A 
ATOM     32  C   UNL     1      -2.919  12.066  19.029  0.00  0.00    +0.000 A 
ENDBRANCH  26  27
BRANCH  26  33
ATOM     33  C   UNL     1      -0.680  13.527  19.576  0.00  0.00    +0.000 C 
ATOM     34  C   UNL     1       0.229  14.527  18.892  0.00  0.00    +0.000 C 
ENDBRANCH  26  33
ENDBRANCH  23  26
ENDBRANCH   5  23
TORSDOF 10
ENDMDL
MODEL 2
REMARK VINA RESULT:      -7.3      2.669      9.066
REMARK  Name = 
REMARK  12 active torsions:
REMARK  status: ('A' for Active; 'I' for Inactive)
REMARK    1  A    between atoms: C_1  and  C_2
REMARK    2  A    between atoms: C_2  and  N_3
REMARK    3  A    between atoms: N_3  and  C_4
REMARK    4  A    between atoms: C_4  and  C_5
REMARK    5  A    between atoms: N_7  and  C_8
REMARK    6  A    between atoms: C_8  and  C_9
REMARK    7  A    between atoms: C_14  and  C_16
REMARK    8  A    between atoms: C_20  and  S_21
REMARK    9  A    between atoms: S_21  and  N_24
REMARK   10  A    between atoms: N_24  and  C_25
REMARK   11  A    between atoms: N_24  and  C_27
REMARK   12  A    between atoms: C_25  and  C_26
REMARK                            x       y       z     vdW  Elec       q    Type
REMARK                         _______ _______ _______ _____ _____    ______ ____
ROOT
ATOM      1  C   UNL     1       1.198   8.728  19.937  0.00  0.00    +0.000 A 
ATOM      2  C   UNL     1       1.234   9.619  18.853  0.00  0.00    +0.000 A 
ATOM      3  C   UNL     1       1.978   9.326  17.700  0.00  0.00    +0.000 A 
ATOM      4  C   UNL     1       2.654   8.108  17.582  0.00  0.00    +0.000 A 
ATOM      5  C   UNL     1       2.597   7.210  18.632  0.00  0.00    +0.000 A 
ATOM      6  C   UNL     1       1.974   7.579  19.839  0.00  0.00    +0.000 A 
ENDROOT
BRANCH   1   8
ATOM      7  N   UNL     1       0.217  10.350  21.653  0.00  0.00    +0.000 N 
ATOM      8  C   UNL     1       0.304   9.060  21.093  0.00  0.00    +0.000 C 
ATOM      9  O   UNL     1      -0.291   8.098  21.604  0.00  0.00    +0.000 OA
BRANCH   7  11
ATOM     10  C   UNL     1      -1.676  11.382  22.886  0.00  0.00    +0.000 C 
ATOM     11  C   UNL     1      -0.470  10.445  22.950  0.00  0.00    +0.000 C 
ENDBRANCH   7  11
BRANCH   7  12
ATOM     12  C   UNL     1       0.829  11.603  21.161  0.00  0.00    +0.000 C 
BRANCH  12  13
ATOM     13  C   UNL     1      -0.123  12.482  20.299  0.00  0.00    +0.000 C 
ATOM     14  O   UNL     1      -1.011  12.006  19.599  0.00  0.00    +0.000 OA
ATOM     15  N   UNL     1       0.071  13.855  20.421  0.00  0.00    +0.000 N 
ATOM     16  H   UNL     1       0.833  14.238  20.972  0.00  0.00    +0.000 HD
BRANCH  15  17
ATOM     17  C   UNL     1      -0.818  14.782  19.737  0.00  0.00    +0.000 C 
BRANCH  17  18
ATOM     18  C   UNL     1      -0.054  15.827  18.974  0.00  0.00    +0.000 A 
ATOM     19  C   UNL     1      -0.539  16.929  18.295  0.00  0.00    +0.000 A 
ATOM     20  C   UNL     1       0.488  17.745  17.739  0.00  0.00    +0.000 A 
ATOM     21  C   UNL     1       1.741  17.272  18.054  0.00  0.00    +0.000 A 
ATOM     22  S   UNL     1       1.665  15.827  18.968  0.00  0.00    +0.000 S 
ENDBRANCH  17  18
ENDBRANCH  15  17
ENDBRANCH  12  13
ENDBRANCH   7  12
ENDBRANCH   1   8
BRANCH   5  23
ATOM     23  S   UNL     1       3.274   5.573  18.625  0.00  0.00    +0.000 S 
ATOM     24  O   UNL     1       4.025   5.533  19.858  0.00  0.00    +0.000 OA
ATOM     25  O   UNL     1       2.139   4.686  18.430  0.00  0.00    +0.000 OA
BRANCH  23  26
ATOM     26  N   UNL     1       4.382   5.314  17.311  0.00  0.00    +0.000 N 
BRANCH  26  27
ATOM     27  C   UNL     1       5.701   5.842  17.694  0.00  0.00    +0.000 A 
ATOM     28  C   UNL     1       6.495   5.217  18.670  0.00  0.00    +0.000 A 
ATOM     29  C   UNL     1       7.705   5.791  19.074  0.00  0.00    +0.000 A 
ATOM     30  C   UNL     1       8.106   7.012  18.539  0.00  0.00    +0.000 A 
ATOM     31  C   UNL     1       7.301   7.660  17.603  0.00  0.00    +0.000 A 
ATOM     32  C   UNL     1       6.102   7.076  17.182  0.00  0.00    +0.000 A 
ENDBRANCH  26  27
BRANCH  26  33
ATOM     33  C   UNL     1       4.488   3.930  16.731  0.00  0.00    +0.000 C 
ATOM     34  C   UNL     1       5.372   3.874  15.504  0.00  0.00    +0.000 C 
ENDBRANCH  26  33
ENDBRANCH  23  26
ENDBRANCH   5  23
TORSDOF 10
ENDMDL
MODEL 3
REMARK VINA RESULT:      -7.2      2.755      8.696
REMARK  Name = 
REMARK  12 active torsions:
REMARK  status: ('A' for Active; 'I' for Inactive)
REMARK    1  A    between atoms: C_1  and  C_2
REMARK    2  A    between atoms: C_2  and  N_3
REMARK    3  A    between atoms: N_3  and  C_4
REMARK    4  A    between atoms: C_4  and  C_5
REMARK    5  A    between atoms: N_7  and  C_8
REMARK    6  A    between atoms: C_8  and  C_9
REMARK    7  A    between atoms: C_14  and  C_16
REMARK    8  A    between atoms: C_20  and  S_21
REMARK    9  A    between atoms: S_21  and  N_24
REMARK   10  A    between atoms: N_24  and  C_25
REMARK   11  A    between atoms: N_24  and  C_27
REMARK   12  A    between atoms: C_25  and  C_26
REMARK                            x       y       z     vdW  Elec       q    Type
REMARK                         _______ _______ _______ _____ _____    ______ ____
ROOT
ATOM      1  C   UNL     1       1.242   8.855  20.018  0.00  0.00    +0.000 A 
ATOM      2  C   UNL     1       1.248   9.738  18.927  0.00  0.00    +0.000 A 
ATOM      3  C   UNL     1       1.940   9.426  17.748  0.00  0.00    +0.000 A 
ATOM      4  C   UNL     1       2.593   8.198  17.613  0.00  0.00    +0.000 A 
ATOM      5  C   UNL     1       2.566   7.308  18.670  0.00  0.00    +0.000 A 
ATOM      6  C   UNL     1       1.996   7.694  19.899  0.00  0.00    +0.000 A 
ENDROOT
BRANCH   1   8
ATOM      7  N   UNL     1      -0.138  10.494  21.415  0.00  0.00    +0.000 N 
ATOM      8  C   UNL     1       0.399   9.208  21.207  0.00  0.00    +0.000 C 
ATOM      9  O   UNL     1       0.283   8.318  22.065  0.00  0.00    +0.000 OA
BRANCH   7  11
ATOM     10  C   UNL     1      -1.913  11.663  22.699  0.00  0.00    +0.000 C 
ATOM     11  C   UNL     1      -0.684  10.756  22.755  0.00  0.00    +0.000 C 
ENDBRANCH   7  11
BRANCH   7  12
ATOM     12  C   UNL     1      -0.119  11.652  20.495  0.00  0.00    +0.000 C 
BRANCH  12  13
ATOM     13  C   UNL     1       0.942  12.733  20.854  0.00  0.00    +0.000 C 
ATOM     14  O   UNL     1       2.052  12.451  21.295  0.00  0.00    +0.000 OA
ATOM     15  N   UNL     1       0.560  14.045  20.588  0.00  0.00    +0.000 N 
ATOM     16  H   UNL     1      -0.374  14.271  20.260  0.00  0.00    +0.000 HD
BRANCH  15  17
ATOM     17  C   UNL     1       1.500  15.135  20.794  0.00  0.00    +0.000 C 
BRANCH  17  18
ATOM     18  C   UNL     1       2.191  15.524  19.517  0.00  0.00    +0.000 A 
ATOM     19  C   UNL     1       2.915  14.729  18.649  0.00  0.00    +0.000 A 
ATOM     20  C   UNL     1       3.375  15.428  17.496  0.00  0.00    +0.000 A 
ATOM     21  C   UNL     1       2.943  16.734  17.486  0.00  0.00    +0.000 A 
ATOM     22  S   UNL     1       2.036  17.116  18.886  0.00  0.00    +0.000 S 
ENDBRANCH  17  18
ENDBRANCH  15  17
ENDBRANCH  12  13
ENDBRANCH   7  12
ENDBRANCH   1   8
BRANCH   5  23
ATOM     23  S   UNL     1       3.218   5.661  18.648  0.00  0.00    +0.000 S 
ATOM     24  O   UNL     1       3.983   5.604  19.873  0.00  0.00    +0.000 OA
ATOM     25  O   UNL     1       2.068   4.792  18.464  0.00  0.00    +0.000 OA
BRANCH  23  26
ATOM     26  N   UNL     1       4.306   5.391  17.320  0.00  0.00    +0.000 N 
BRANCH  26  27
ATOM     27  C   UNL     1       5.644   5.871  17.700  0.00  0.00    +0.000 A 
ATOM     28  C   UNL     1       6.422   5.212  18.667  0.00  0.00    +0.000 A 
ATOM     29  C   UNL     1       7.652   5.742  19.069  0.00  0.00    +0.000 A 
ATOM     30  C   UNL     1       8.092   6.953  18.541  0.00  0.00    +0.000 A 
ATOM     31  C   UNL     1       7.304   7.635  17.615  0.00  0.00    +0.000 A 
ATOM     32  C   UNL     1       6.084   7.096  17.196  0.00  0.00    +0.000 A 
ENDBRANCH  26  27
BRANCH  26  33
ATOM     33  C   UNL     1       4.364   4.015  16.716  0.00  0.00    +0.000 C 
ATOM     34  C   UNL     1       5.191   3.965  15.449  0.00  0.00    +0.000 C 
ENDBRANCH  26  33
ENDBRANCH  23  26
ENDBRANCH   5  23
TORSDOF 10
ENDMDL
MODEL 4
REMARK VINA RESULT:      -7.1      2.793      4.931
REMARK  Name = 
REMARK  12 active torsions:
REMARK  status: ('A' for Active; 'I' for Inactive)
REMARK    1  A    between atoms: C_1  and  C_2
REMARK    2  A    between atoms: C_2  and  N_3
REMARK    3  A    between atoms: N_3  and  C_4
REMARK    4  A    between atoms: C_4  and  C_5
REMARK    5  A    between atoms: N_7  and  C_8
REMARK    6  A    between atoms: C_8  and  C_9
REMARK    7  A    between atoms: C_14  and  C_16
REMARK    8  A    between atoms: C_20  and  S_21
REMARK    9  A    between atoms: S_21  and  N_24
REMARK   10  A    between atoms: N_24  and  C_25
REMARK   11  A    between atoms: N_24  and  C_27
REMARK   12  A    between atoms: C_25  and  C_26
REMARK                            x       y       z     vdW  Elec       q    Type
REMARK                         _______ _______ _______ _____ _____    ______ ____
ROOT
ATOM      1  C   UNL     1       4.294   6.905  17.697  0.00  0.00    +0.000 A 
ATOM      2  C   UNL     1       4.000   5.937  18.671  0.00  0.00    +0.000 A 
ATOM      3  C   UNL     1       2.950   6.124  19.582  0.00  0.00    +0.000 A 
ATOM      4  C   UNL     1       2.132   7.255  19.500  0.00  0.00    +0.000 A 
ATOM      5  C   UNL     1       2.394   8.197  18.523  0.00  0.00    +0.000 A 
ATOM      6  C   UNL     1       3.540   8.071  17.715  0.00  0.00    +0.000 A 
ENDROOT
BRANCH   1   8
ATOM      7  N   UNL     1       5.424   5.378  15.984  0.00  0.00    +0.000 N 
ATOM      8  C   UNL     1       5.365   6.593  16.695  0.00  0.00    +0.000 C 
ATOM      9  O   UNL     1       6.269   7.437  16.598  0.00  0.00    +0.000 OA
BRANCH   7  11
ATOM     10  C   UNL     1       6.452   4.261  14.019  0.00  0.00    +0.000 C 
ATOM     11  C   UNL     1       6.681   5.109  15.270  0.00  0.00    +0.000 C 
ENDBRANCH   7  11
BRANCH   7  12
ATOM     12  C   UNL     1       4.428   4.285  15.959  0.00  0.00    +0.000 C 
BRANCH  12  13
ATOM     13  C   UNL     1       4.509   3.320  17.178  0.00  0.00    +0.000 C 
ATOM     14  O   UNL     1       5.425   3.361  17.994  0.00  0.00    +0.000 OA
ATOM     15  N   UNL     1       3.438   2.441  17.306  0.00  0.00    +0.000 N 
ATOM     16  H   UNL     1       2.705   2.389  16.605  0.00  0.00    +0.000 HD
BRANCH  15  17
ATOM     17  C   UNL     1       3.354   1.555  18.457  0.00  0.00    +0.000 C 
BRANCH  17  18
ATOM     18  C   UNL     1       2.640   2.204  19.609  0.00  0.00    +0.000 A 
ATOM     19  C   UNL     1       3.134   2.533  20.857  0.00  0.00    +0.000 A 
ATOM     20  C   UNL     1       2.182   3.201  21.681  0.00  0.00    +0.000 A 
ATOM     21  C   UNL     1       0.996   3.413  21.019  0.00  0.00    +0.000 A 
ATOM     22  S   UNL     1       1.023   2.761  19.437  0.00  0.00    +0.000 S 
ENDBRANCH  17  18
ENDBRANCH  15  17
ENDBRANCH  12  13
ENDBRANCH   7  12
ENDBRANCH   1   8
BRANCH   5  23
ATOM     23  S   UNL     1       1.404   9.624  18.176  0.00  0.00    +0.000 S 
ATOM     24  O   UNL     1       2.327  10.494  17.486  0.00  0.00    +0.000 OA
ATOM     25  O   UNL     1       0.224   9.120  17.493  0.00  0.00    +0.000 OA
BRANCH  23  26
ATOM     26  N   UNL     1       0.874  10.437  19.619  0.00  0.00    +0.000 N 
BRANCH  26  27
ATOM     27  C   UNL     1       0.843  11.884  19.361  0.00  0.00    +0.000 A 
ATOM     28  C   UNL     1       1.794  12.758  19.915  0.00  0.00    +0.000 A 
ATOM     29  C   UNL     1       1.687  14.138  19.722  0.00  0.00    +0.000 A 
ATOM     30  C   UNL     1       0.608  14.658  19.012  0.00  0.00    +0.000 A 
ATOM     31  C   UNL     1      -0.364  13.801  18.498  0.00  0.00    +0.000 A 
ATOM     32  C   UNL     1      -0.246  12.419  18.672  0.00  0.00    +0.000 A 
ENDBRANCH  26  27
BRANCH  26  33
ATOM     33  C   UNL     1      -0.395   9.966  20.276  0.00  0.00    +0.000 C 
ATOM     34  C   UNL     1      -0.145   9.254  21.589  0.00  0.00    +0.000 C 
ENDBRANCH  26  33
ENDBRANCH  23  26
ENDBRANCH   5  23
TORSDOF 10
ENDMDL
MODEL 5
REMARK VINA RESULT:      -7.1      2.799      9.347
REMARK  Name = 
REMARK  12 active torsions:
REMARK  status: ('A' for Active; 'I' for Inactive)
REMARK    1  A    between atoms: C_1  and  C_2
REMARK    2  A    between atoms: C_2  and  N_3
REMARK    3  A    between atoms: N_3  and  C_4
REMARK    4  A    between atoms: C_4  and  C_5
REMARK    5  A    between atoms: N_7  and  C_8
REMARK    6  A    between atoms: C_8  and  C_9
REMARK    7  A    between atoms: C_14  and  C_16
REMARK    8  A    between atoms: C_20  and  S_21
REMARK    9  A    between atoms: S_21  and  N_24
REMARK   10  A    between atoms: N_24  and  C_25
REMARK   11  A    between atoms: N_24  and  C_27
REMARK   12  A    between atoms: C_25  and  C_26
REMARK                            x       y       z     vdW  Elec       q    Type
REMARK                         _______ _______ _______ _____ _____    ______ ____
ROOT
ATOM      1  C   UNL     1       2.033   7.999  18.967  0.00  0.00    +0.000 A 
ATOM      2  C   UNL     1       1.536   7.498  20.180  0.00  0.00    +0.000 A 
ATOM      3  C   UNL     1       2.087   6.349  20.767  0.00  0.00    +0.000 A 
ATOM      4  C   UNL     1       3.185   5.711  20.183  0.00  0.00    +0.000 A 
ATOM      5  C   UNL     1       3.701   6.217  19.005  0.00  0.00    +0.000 A 
ATOM      6  C   UNL     1       3.047   7.278  18.350  0.00  0.00    +0.000 A 
ENDROOT
BRANCH   1   8
ATOM      7  N   UNL     1       0.432   9.989  19.104  0.00  0.00    +0.000 N 
ATOM      8  C   UNL     1       1.463   9.286  18.450  0.00  0.00    +0.000 C 
ATOM      9  O   UNL     1       1.885   9.653  17.342  0.00  0.00    +0.000 OA
BRANCH   7  11
ATOM     10  C   UNL     1      -1.565  10.621  17.770  0.00  0.00    +0.000 C 
ATOM     11  C   UNL     1      -0.212  11.060  18.329  0.00  0.00    +0.000 C 
ENDBRANCH   7  11
BRANCH   7  12
ATOM     12  C   UNL     1      -0.165   9.713  20.429  0.00  0.00    +0.000 C 
BRANCH  12  13
ATOM     13  C   UNL     1      -0.029  10.884  21.446  0.00  0.00    +0.000 C 
ATOM     14  O   UNL     1       1.054  11.376  21.748  0.00  0.00    +0.000 OA
ATOM     15  N   UNL     1      -1.232  11.368  21.951  0.00  0.00    +0.000 N 
ATOM     16  H   UNL     1      -2.120  10.928  21.725  0.00  0.00    +0.000 HD
BRANCH  15  17
ATOM     17  C   UNL     1      -1.241  12.521  22.838  0.00  0.00    +0.000 C 
BRANCH  17  18
ATOM     18  C   UNL     1      -2.638  12.923  23.217  0.00  0.00    +0.000 A 
ATOM     19  C   UNL     1      -3.572  12.216  23.952  0.00  0.00    +0.000 A 
ATOM     20  C   UNL     1      -4.779  12.939  24.173  0.00  0.00    +0.000 A 
ATOM     21  C   UNL     1      -4.718  14.207  23.644  0.00  0.00    +0.000 A 
ATOM     22  S   UNL     1      -3.232  14.492  22.844  0.00  0.00    +0.000 S 
ENDBRANCH  17  18
ENDBRANCH  15  17
ENDBRANCH  12  13
ENDBRANCH   7  12
ENDBRANCH   1   8
BRANCH   5  23
ATOM     23  S   UNL     1       5.158   5.633  18.183  0.00  0.00    +0.000 S 
ATOM     24  O   UNL     1       5.402   6.660  17.197  0.00  0.00    +0.000 OA
ATOM     25  O   UNL     1       6.126   5.388  19.240  0.00  0.00    +0.000 OA
BRANCH  23  26
ATOM     26  N   UNL     1       4.896   4.133  17.345  0.00  0.00    +0.000 N 
BRANCH  26  27
ATOM     27  C   UNL     1       3.700   3.483  17.902  0.00  0.00    +0.000 A 
ATOM     28  C   UNL     1       3.789   2.424  18.821  0.00  0.00    +0.000 A 
ATOM     29  C   UNL     1       2.636   1.771  19.265  0.00  0.00    +0.000 A 
ATOM     30  C   UNL     1       1.391   2.141  18.763  0.00  0.00    +0.000 A 
ATOM     31  C   UNL     1       1.298   3.162  17.817  0.00  0.00    +0.000 A 
ATOM     32  C   UNL     1       2.449   3.830  17.388  0.00  0.00    +0.000 A 
ENDBRANCH  26  27
BRANCH  26  33
ATOM     33  C   UNL     1       4.864   4.154  15.841  0.00  0.00    +0.000 C 
ATOM     34  C   UNL     1       6.223   3.908  15.222  0.00  0.00    +0.000 C 
ENDBRANCH  26  33
ENDBRANCH  23  26
ENDBRANCH   5  23
TORSDOF 10
ENDMDL
MODEL 6
REMARK VINA RESULT:      -7.1      2.556      9.526
REMARK  Name = 
REMARK  12 active torsions:
REMARK  status: ('A' for Active; 'I' for Inactive)
REMARK    1  A    between atoms: C_1  and  C_2
REMARK    2  A    between atoms: C_2  and  N_3
REMARK    3  A    between atoms: N_3  and  C_4
REMARK    4  A    between atoms: C_4  and  C_5
REMARK    5  A    between atoms: N_7  and  C_8
REMARK    6  A    between atoms: C_8  and  C_9
REMARK    7  A    between atoms: C_14  and  C_16
REMARK    8  A    between atoms: C_20  and  S_21
REMARK    9  A    between atoms: S_21  and  N_24
REMARK   10  A    between atoms: N_24  and  C_25
REMARK   11  A    between atoms: N_24  and  C_27
REMARK   12  A    between atoms: C_25  and  C_26
REMARK                            x       y       z     vdW  Elec       q    Type
REMARK                         _______ _______ _______ _____ _____    ______ ____
ROOT
ATOM      1  C   UNL     1       2.323   7.062  18.917  0.00  0.00    +0.000 A 
ATOM      2  C   UNL     1       1.766   6.806  20.180  0.00  0.00    +0.000 A 
ATOM      3  C   UNL     1       1.958   5.571  20.817  0.00  0.00    +0.000 A 
ATOM      4  C   UNL     1       2.759   4.586  20.230  0.00  0.00    +0.000 A 
ATOM      5  C   UNL     1       3.337   4.843  19.001  0.00  0.00    +0.000 A 
ATOM      6  C   UNL     1       3.016   6.024  18.307  0.00  0.00    +0.000 A 
ENDROOT
BRANCH   1   8
ATOM      7  N   UNL     1       1.399   9.446  18.962  0.00  0.00    +0.000 N 
ATOM      8  C   UNL     1       2.163   8.437  18.342  0.00  0.00    +0.000 C 
ATOM      9  O   UNL     1       2.664   8.611  17.220  0.00  0.00    +0.000 OA
BRANCH   7  11
ATOM     10  C   UNL     1       2.280  11.597  18.084  0.00  0.00    +0.000 C 
ATOM     11  C   UNL     1       1.099  10.627  18.138  0.00  0.00    +0.000 C 
ENDBRANCH   7  11
BRANCH   7  12
ATOM     12  C   UNL     1       0.761   9.420  20.296  0.00  0.00    +0.000 C 
BRANCH  12  13
ATOM     13  C   UNL     1       0.435  10.828  20.874  0.00  0.00    +0.000 C 
ATOM     14  O   UNL     1       1.276  11.523  21.437  0.00  0.00    +0.000 OA
ATOM     15  N   UNL     1      -0.868  11.266  20.660  0.00  0.00    +0.000 N 
ATOM     16  H   UNL     1      -1.566  10.668  20.229  0.00  0.00    +0.000 HD
BRANCH  15  17
ATOM     17  C   UNL     1      -1.267  12.603  21.072  0.00  0.00    +0.000 C 
BRANCH  17  18
ATOM     18  C   UNL     1      -2.437  12.571  22.014  0.00  0.00    +0.000 A 
ATOM     19  C   UNL     1      -2.464  12.204  23.347  0.00  0.00    +0.000 A 
ATOM     20  C   UNL     1      -3.747  12.360  23.947  0.00  0.00    +0.000 A 
ATOM     21  C   UNL     1      -4.660  12.895  23.068  0.00  0.00    +0.000 A 
ATOM     22  S   UNL     1      -3.978  13.152  21.520  0.00  0.00    +0.000 S 
ENDBRANCH  17  18
ENDBRANCH  15  17
ENDBRANCH  12  13
ENDBRANCH   7  12
ENDBRANCH   1   8
BRANCH   5  23
ATOM     23  S   UNL     1       4.481   3.783  18.160  0.00  0.00    +0.000 S 
ATOM     24  O   UNL     1       5.464   3.500  19.180  0.00  0.00    +0.000 OA
ATOM     25  O   UNL     1       3.675   2.709  17.603  0.00  0.00    +0.000 OA
BRANCH  23  26
ATOM     26  N   UNL     1       5.286   4.581  16.842  0.00  0.00    +0.000 N 
BRANCH  26  27
ATOM     27  C   UNL     1       6.313   5.479  17.391  0.00  0.00    +0.000 A 
ATOM     28  C   UNL     1       7.150   5.091  18.450  0.00  0.00    +0.000 A 
ATOM     29  C   UNL     1       8.057   5.998  19.007  0.00  0.00    +0.000 A 
ATOM     30  C   UNL     1       8.104   7.308  18.539  0.00  0.00    +0.000 A 
ATOM     31  C   UNL     1       7.244   7.714  17.518  0.00  0.00    +0.000 A 
ATOM     32  C   UNL     1       6.352   6.802  16.946  0.00  0.00    +0.000 A 
ENDBRANCH  26  27
BRANCH  26  33
ATOM     33  C   UNL     1       5.832   3.734  15.725  0.00  0.00    +0.000 C 
ATOM     34  C   UNL     1       5.575   4.331  14.357  0.00  0.00    +0.000 C 
ENDBRANCH  26  33
ENDBRANCH  23  26
ENDBRANCH   5  23
TORSDOF 10
ENDMDL
MODEL 7
REMARK VINA RESULT:      -7.0      2.772      4.974
REMARK  Name = 
REMARK  12 active torsions:
REMARK  status: ('A' for Active; 'I' for Inactive)
REMARK    1  A    between atoms: C_1  and  C_2
REMARK    2  A    between atoms: C_2  and  N_3
REMARK    3  A    between atoms: N_3  and  C_4
REMARK    4  A    between atoms: C_4  and  C_5
REMARK    5  A    between atoms: N_7  and  C_8
REMARK    6  A    between atoms: C_8  and  C_9
REMARK    7  A    between atoms: C_14  and  C_16
REMARK    8  A    between atoms: C_20  and  S_21
REMARK    9  A    between atoms: S_21  and  N_24
REMARK   10  A    between atoms: N_24  and  C_25
REMARK   11  A    between atoms: N_24  and  C_27
REMARK   12  A    between atoms: C_25  and  C_26
REMARK                            x       y       z     vdW  Elec       q    Type
REMARK                         _______ _______ _______ _____ _____    ______ ____
ROOT
ATOM      1  C   UNL     1       4.272   6.896  17.747  0.00  0.00    +0.000 A 
ATOM      2  C   UNL     1       3.960   5.907  18.694  0.00  0.00    +0.000 A 
ATOM      3  C   UNL     1       2.900   6.079  19.596  0.00  0.00    +0.000 A 
ATOM      4  C   UNL     1       2.092   7.218  19.533  0.00  0.00    +0.000 A 
ATOM      5  C   UNL     1       2.372   8.182  18.582  0.00  0.00    +0.000 A 
ATOM      6  C   UNL     1       3.526   8.067  17.784  0.00  0.00    +0.000 A 
ENDROOT
BRANCH   1   8
ATOM      7  N   UNL     1       5.358   5.449  15.940  0.00  0.00    +0.000 N 
ATOM      8  C   UNL     1       5.352   6.601  16.750  0.00  0.00    +0.000 C 
ATOM      9  O   UNL     1       6.310   7.390  16.749  0.00  0.00    +0.000 OA
BRANCH   7  11
ATOM     10  C   UNL     1       6.410   4.187  14.076  0.00  0.00    +0.000 C 
ATOM     11  C   UNL     1       6.618   5.159  15.238  0.00  0.00    +0.000 C 
ENDBRANCH   7  11
BRANCH   7  12
ATOM     12  C   UNL     1       4.298   4.427  15.795  0.00  0.00    +0.000 C 
BRANCH  12  13
ATOM     13  C   UNL     1       4.299   3.344  16.912  0.00  0.00    +0.000 C 
ATOM     14  O   UNL     1       5.275   3.129  17.625  0.00  0.00    +0.000 OA
ATOM     15  N   UNL     1       3.093   2.670  17.081  0.00  0.00    +0.000 N 
ATOM     16  H   UNL     1       2.304   2.827  16.461  0.00  0.00    +0.000 HD
BRANCH  15  17
ATOM     17  C   UNL     1       2.943   1.700  18.155  0.00  0.00    +0.000 C 
BRANCH  17  18
ATOM     18  C   UNL     1       2.429   2.339  19.415  0.00  0.00    +0.000 A 
ATOM     19  C   UNL     1       1.148   2.772  19.704  0.00  0.00    +0.000 A 
ATOM     20  C   UNL     1       1.010   3.272  21.031  0.00  0.00    +0.000 A 
ATOM     21  C   UNL     1       2.181   3.159  21.743  0.00  0.00    +0.000 A 
ATOM     22  S   UNL     1       3.445   2.504  20.792  0.00  0.00    +0.000 S 
ENDBRANCH  17  18
ENDBRANCH  15  17
ENDBRANCH  12  13
ENDBRANCH   7  12
ENDBRANCH   1   8
BRANCH   5  23
ATOM     23  S   UNL     1       1.396   9.624  18.258  0.00  0.00    +0.000 S 
ATOM     24  O   UNL     1       2.337  10.510  17.613  0.00  0.00    +0.000 OA
ATOM     25  O   UNL     1       0.228   9.147  17.537  0.00  0.00    +0.000 OA
BRANCH  23  26
ATOM     26  N   UNL     1       0.841  10.396  19.714  0.00  0.00    +0.000 N 
BRANCH  26  27
ATOM     27  C   UNL     1       0.753  11.845  19.476  0.00  0.00    +0.000 A 
ATOM     28  C   UNL     1      -0.247  12.405  18.663  0.00  0.00    +0.000 A 
ATOM     29  C   UNL     1      -0.251  13.775  18.387  0.00  0.00    +0.000 A 
ATOM     30  C   UNL     1       0.765  14.587  18.884  0.00  0.00    +0.000 A 
ATOM     31  C   UNL     1       1.785  14.031  19.654  0.00  0.00    +0.000 A 
ATOM     32  C   UNL     1       1.779  12.664  19.949  0.00  0.00    +0.000 A 
ENDBRANCH  26  27
BRANCH  26  33
ATOM     33  C   UNL     1      -0.406   9.867  20.369  0.00  0.00    +0.000 C 
ATOM     34  C   UNL     1      -0.135   9.223  21.712  0.00  0.00    +0.000 C 
ENDBRANCH  26  33
ENDBRANCH  23  26
ENDBRANCH   5  23
TORSDOF 10
ENDMDL
MODEL 8
REMARK VINA RESULT:      -7.0      2.667      9.479
REMARK  Name = 
REMARK  12 active torsions:
REMARK  status: ('A' for Active; 'I' for Inactive)
REMARK    1  A    between atoms: C_1  and  C_2
REMARK    2  A    between atoms: C_2  and  N_3
REMARK    3  A    between atoms: N_3  and  C_4
REMARK    4  A    between atoms: C_4  and  C_5
REMARK    5  A    between atoms: N_7  and  C_8
REMARK    6  A    between atoms: C_8  and  C_9
REMARK    7  A    between atoms: C_14  and  C_16
REMARK    8  A    between atoms: C_20  and  S_21
REMARK    9  A    between atoms: S_21  and  N_24
REMARK   10  A    between atoms: N_24  and  C_25
REMARK   11  A    between atoms: N_24  and  C_27
REMARK   12  A    between atoms: C_25  and  C_26
REMARK                            x       y       z     vdW  Elec       q    Type
REMARK                         _______ _______ _______ _____ _____    ______ ____
ROOT
ATOM      1  C   UNL     1       2.187   7.084  19.013  0.00  0.00    +0.000 A 
ATOM      2  C   UNL     1       1.786   6.870  20.342  0.00  0.00    +0.000 A 
ATOM      3  C   UNL     1       2.073   5.664  20.998  0.00  0.00    +0.000 A 
ATOM      4  C   UNL     1       2.818   4.669  20.359  0.00  0.00    +0.000 A 
ATOM      5  C   UNL     1       3.245   4.885  19.062  0.00  0.00    +0.000 A 
ATOM      6  C   UNL     1       2.823   6.033  18.366  0.00  0.00    +0.000 A 
ENDROOT
BRANCH   1   8
ATOM      7  N   UNL     1       1.147   9.421  19.034  0.00  0.00    +0.000 N 
ATOM      8  C   UNL     1       1.934   8.433  18.410  0.00  0.00    +0.000 C 
ATOM      9  O   UNL     1       2.381   8.600  17.264  0.00  0.00    +0.000 OA
BRANCH   7  11
ATOM     10  C   UNL     1      -0.702  10.462  17.742  0.00  0.00    +0.000 C 
ATOM     11  C   UNL     1       0.756  10.562  18.193  0.00  0.00    +0.000 C 
ENDBRANCH   7  11
BRANCH   7  12
ATOM     12  C   UNL     1       0.565   9.401  20.394  0.00  0.00    +0.000 C 
BRANCH  12  13
ATOM     13  C   UNL     1       0.603  10.776  21.123  0.00  0.00    +0.000 C 
ATOM     14  O   UNL     1       1.646  11.285  21.521  0.00  0.00    +0.000 OA
ATOM     15  N   UNL     1      -0.629  11.411  21.246  0.00  0.00    +0.000 N 
ATOM     16  H   UNL     1      -1.491  10.964  20.949  0.00  0.00    +0.000 HD
BRANCH  15  17
ATOM     17  C   UNL     1      -0.709  12.743  21.826  0.00  0.00    +0.000 C 
BRANCH  17  18
ATOM     18  C   UNL     1      -1.914  12.894  22.712  0.00  0.00    +0.000 A 
ATOM     19  C   UNL     1      -2.691  11.908  23.290  0.00  0.00    +0.000 A 
ATOM     20  C   UNL     1      -3.722  12.423  24.128  0.00  0.00    +0.000 A 
ATOM     21  C   UNL     1      -3.673  13.795  24.212  0.00  0.00    +0.000 A 
ATOM     22  S   UNL     1      -2.424  14.449  23.242  0.00  0.00    +0.000 S 
ENDBRANCH  17  18
ENDBRANCH  15  17
ENDBRANCH  12  13
ENDBRANCH   7  12
ENDBRANCH   1   8
BRANCH   5  23
ATOM     23  S   UNL     1       4.302   3.808  18.133  0.00  0.00    +0.000 S 
ATOM     24  O   UNL     1       5.280   3.397  19.113  0.00  0.00    +0.000 OA
ATOM     25  O   UNL     1       3.418   2.828  17.525  0.00  0.00    +0.000 OA
BRANCH  23  26
ATOM     26  N   UNL     1       5.138   4.635  16.852  0.00  0.00    +0.000 N 
BRANCH  26  27
ATOM     27  C   UNL     1       6.089   5.586  17.446  0.00  0.00    +0.000 A 
ATOM     28  C   UNL     1       6.081   6.951  17.113  0.00  0.00    +0.000 A 
ATOM     29  C   UNL     1       7.052   7.814  17.628  0.00  0.00    +0.000 A 
ATOM     30  C   UNL     1       8.063   7.312  18.444  0.00  0.00    +0.000 A 
ATOM     31  C   UNL     1       8.104   5.951  18.744  0.00  0.00    +0.000 A 
ATOM     32  C   UNL     1       7.120   5.091  18.247  0.00  0.00    +0.000 A 
ENDBRANCH  26  27
BRANCH  26  33
ATOM     33  C   UNL     1       5.784   3.808  15.775  0.00  0.00    +0.000 C 
ATOM     34  C   UNL     1       5.940   4.562  14.471  0.00  0.00    +0.000 C 
ENDBRANCH  26  33
ENDBRANCH  23  26
ENDBRANCH   5  23
TORSDOF 10
ENDMDL
MODEL 9
REMARK VINA RESULT:      -7.0      2.941      4.838
REMARK  Name = 
REMARK  12 active torsions:
REMARK  status: ('A' for Active; 'I' for Inactive)
REMARK    1  A    between atoms: C_1  and  C_2
REMARK    2  A    between atoms: C_2  and  N_3
REMARK    3  A    between atoms: N_3  and  C_4
REMARK    4  A    between atoms: C_4  and  C_5
REMARK    5  A    between atoms: N_7  and  C_8
REMARK    6  A    between atoms: C_8  and  C_9
REMARK    7  A    between atoms: C_14  and  C_16
REMARK    8  A    between atoms: C_20  and  S_21
REMARK    9  A    between atoms: S_21  and  N_24
REMARK   10  A    between atoms: N_24  and  C_25
REMARK   11  A    between atoms: N_24  and  C_27
REMARK   12  A    between atoms: C_25  and  C_26
REMARK                            x       y       z     vdW  Elec       q    Type
REMARK                         _______ _______ _______ _____ _____    ______ ____
ROOT
ATOM      1  C   UNL     1       4.222   5.243  18.563  0.00  0.00    +0.000 A 
ATOM      2  C   UNL     1       3.693   4.505  19.634  0.00  0.00    +0.000 A 
ATOM      3  C   UNL     1       2.661   5.024  20.429  0.00  0.00    +0.000 A 
ATOM      4  C   UNL     1       2.095   6.267  20.135  0.00  0.00    +0.000 A 
ATOM      5  C   UNL     1       2.588   6.987  19.062  0.00  0.00    +0.000 A 
ATOM      6  C   UNL     1       3.720   6.523  18.366  0.00  0.00    +0.000 A 
ENDROOT
BRANCH   1   8
ATOM      7  N   UNL     1       6.585   5.037  17.606  0.00  0.00    +0.000 N 
ATOM      8  C   UNL     1       5.253   4.586  17.695  0.00  0.00    +0.000 C 
ATOM      9  O   UNL     1       4.837   3.669  16.969  0.00  0.00    +0.000 OA
BRANCH   7  11
ATOM     10  C   UNL     1       6.894   4.972  15.142  0.00  0.00    +0.000 C 
ATOM     11  C   UNL     1       7.383   4.479  16.504  0.00  0.00    +0.000 C 
ENDBRANCH   7  11
BRANCH   7  12
ATOM     12  C   UNL     1       7.250   6.086  18.408  0.00  0.00    +0.000 C 
BRANCH  12  13
ATOM     13  C   UNL     1       7.284   7.485  17.725  0.00  0.00    +0.000 C 
ATOM     14  O   UNL     1       6.509   7.802  16.829  0.00  0.00    +0.000 OA
ATOM     15  N   UNL     1       8.227   8.369  18.241  0.00  0.00    +0.000 N 
ATOM     16  H   UNL     1       8.890   8.084  18.955  0.00  0.00    +0.000 HD
BRANCH  15  17
ATOM     17  C   UNL     1       8.292   9.736  17.748  0.00  0.00    +0.000 C 
BRANCH  17  18
ATOM     18  C   UNL     1       9.365  10.529  18.440  0.00  0.00    +0.000 A 
ATOM     19  C   UNL     1      10.379  11.283  17.880  0.00  0.00    +0.000 A 
ATOM     20  C   UNL     1      11.180  11.954  18.848  0.00  0.00    +0.000 A 
ATOM     21  C   UNL     1      10.724  11.738  20.127  0.00  0.00    +0.000 A 
ATOM     22  S   UNL     1       9.372  10.689  20.151  0.00  0.00    +0.000 S 
ENDBRANCH  17  18
ENDBRANCH  15  17
ENDBRANCH  12  13
ENDBRANCH   7  12
ENDBRANCH   1   8
BRANCH   5  23
ATOM     23  S   UNL     1       1.924   8.512  18.452  0.00  0.00    +0.000 S 
ATOM     24  O   UNL     1       3.075   9.142  17.848  0.00  0.00    +0.000 OA
ATOM     25  O   UNL     1       0.781   8.138  17.635  0.00  0.00    +0.000 OA
BRANCH  23  26
ATOM     26  N   UNL     1       1.349   9.547  19.725  0.00  0.00    +0.000 N 
BRANCH  26  27
ATOM     27  C   UNL     1       0.767  10.756  19.124  0.00  0.00    +0.000 A 
ATOM     28  C   UNL     1       1.491  11.956  19.019  0.00  0.00    +0.000 A 
ATOM     29  C   UNL     1       0.881  13.111  18.522  0.00  0.00    +0.000 A 
ATOM     30  C   UNL     1      -0.465  13.088  18.167  0.00  0.00    +0.000 A 
ATOM     31  C   UNL     1      -1.202  11.913  18.310  0.00  0.00    +0.000 A 
ATOM     32  C   UNL     1      -0.588  10.751  18.787  0.00  0.00    +0.000 A 
ENDBRANCH  26  27
BRANCH  26  33
ATOM     33  C   UNL     1       0.439   8.955  20.767  0.00  0.00    +0.000 C 
ATOM     34  C   UNL     1       0.504   9.692  22.088  0.00  0.00    +0.000 C 
ENDBRANCH  26  33
ENDBRANCH  23  26
ENDBRANCH   5  23
TORSDOF 10
ENDMDL
