MODEL 1
REMARK VINA RESULT:      -8.4      0.000      0.000
REMARK  Name = 
REMARK  2 active torsions:
REMARK  status: ('A' for Active; 'I' for Inactive)
REMARK    1  A    between atoms: C_2  and  C_19
REMARK    2  A    between atoms: N_3  and  C_4
REMARK                            x       y       z     vdW  Elec       q    Type
REMARK                         _______ _______ _______ _____ _____    ______ ____
ROOT
ATOM      1  C   UNL     1       1.340   8.731  19.479  0.00  0.00    +0.000 A 
ATOM      2  C   UNL     1       2.033   9.084  18.323  0.00  0.00    +0.000 A 
ATOM      3  C   UNL     1       2.912   8.188  17.727  0.00  0.00    +0.000 A 
ATOM      4  C   UNL     1       3.099   6.927  18.288  0.00  0.00    +0.000 A 
ATOM      5  N   UNL     1       3.939   6.037  17.616  0.00  0.00    +0.000 N 
ATOM      6  C   UNL     1       4.177   4.750  18.012  0.00  0.00    +0.000 A 
ATOM      7  O   UNL     1       4.910   4.013  17.358  0.00  0.00    +0.000 OA
ATOM      8  C   UNL     1       3.510   4.285  19.254  0.00  0.00    +0.000 A 
ATOM      9  C   UNL     1       3.728   2.960  19.659  0.00  0.00    +0.000 A 
ATOM     10  C   UNL     1       3.128   2.481  20.817  0.00  0.00    +0.000 A 
ATOM     11  C   UNL     1       2.326   3.331  21.571  0.00  0.00    +0.000 A 
ATOM     12  C   UNL     1       2.105   4.654  21.163  0.00  0.00    +0.000 A 
ATOM     13  C   UNL     1       2.684   5.164  19.986  0.00  0.00    +0.000 A 
ATOM     14  C   UNL     1       2.452   6.538  19.475  0.00  0.00    +0.000 A 
ATOM     15  C   UNL     1       1.587   7.478  20.074  0.00  0.00    +0.000 A 
ATOM     16  H   UNL     1       4.391   6.319  16.755  0.00  0.00    +0.000 HD
ENDROOT
BRANCH   1  19
ATOM     17  O   UNL     1       1.380   9.993  22.132  0.00  0.00    +0.000 OA
ATOM     18  C   UNL     1       0.454  10.125  21.340  0.00  0.00    +0.000 C 
ATOM     19  N   UNL     1       0.371   9.576  20.067  0.00  0.00    +0.000 N 
ATOM     20  H   UNL     1      -0.338   9.949  19.451  0.00  0.00    +0.000 HD
BRANCH  18  21
ATOM     21  C   UNL     1      -0.662  11.023  21.729  0.00  0.00    +0.000 A 
ATOM     22  C   UNL     1      -1.144  11.930  20.775  0.00  0.00    +0.000 A 
ATOM     23  C   UNL     1      -2.189  12.795  21.093  0.00  0.00    +0.000 A 
ATOM     24  C   UNL     1      -2.749  12.762  22.370  0.00  0.00    +0.000 A 
ATOM     25  C   UNL     1      -2.259  11.877  23.330  0.00  0.00    +0.000 A 
ATOM     26  C   UNL     1      -1.213  11.008  23.015  0.00  0.00    +0.000 A 
ENDBRANCH  18  21
ENDBRANCH   1  19
TORSDOF 2
ENDMDL
MODEL 2
REMARK VINA RESULT:      -8.3      0.232      1.013
REMARK  Name = 
REMARK  2 active torsions:
REMARK  status: ('A' for Active; 'I' for Inactive)
REMARK    1  A    between atoms: C_2  and  C_19
REMARK    2  A    between atoms: N_3  and  C_4
REMARK                            x       y       z     vdW  Elec       q    Type
REMARK                         _______ _______ _______ _____ _____    ______ ____
ROOT
ATOM      1  C   UNL     1       1.211   8.833  19.494  0.00  0.00    +0.000 A 
ATOM      2  C   UNL     1       1.909   9.220  18.352  0.00  0.00    +0.000 A 
ATOM      3  C   UNL     1       2.813   8.353  17.752  0.00  0.00    +0.000 A 
ATOM      4  C   UNL     1       3.022   7.087  18.296  0.00  0.00    +0.000 A 
ATOM      5  N   UNL     1       3.889   6.227  17.619  0.00  0.00    +0.000 N 
ATOM      6  C   UNL     1       4.152   4.940  17.998  0.00  0.00    +0.000 A 
ATOM      7  O   UNL     1       4.908   4.230  17.341  0.00  0.00    +0.000 OA
ATOM      8  C   UNL     1       3.483   4.441  19.225  0.00  0.00    +0.000 A 
ATOM      9  C   UNL     1       3.726   3.115  19.613  0.00  0.00    +0.000 A 
ATOM     10  C   UNL     1       3.125   2.605  20.757  0.00  0.00    +0.000 A 
ATOM     11  C   UNL     1       2.296   3.425  21.514  0.00  0.00    +0.000 A 
ATOM     12  C   UNL     1       2.050   4.749  21.125  0.00  0.00    +0.000 A 
ATOM     13  C   UNL     1       2.629   5.289  19.962  0.00  0.00    +0.000 A 
ATOM     14  C   UNL     1       2.372   6.666  19.469  0.00  0.00    +0.000 A 
ATOM     15  C   UNL     1       1.480   7.577  20.073  0.00  0.00    +0.000 A 
ATOM     16  H   UNL     1       4.345   6.532  16.767  0.00  0.00    +0.000 HD
ENDROOT
BRANCH   1  19
ATOM     17  O   UNL     1       1.413  10.521  21.892  0.00  0.00    +0.000 OA
ATOM     18  C   UNL     1       0.385  10.409  21.234  0.00  0.00    +0.000 C 
ATOM     19  N   UNL     1       0.217   9.647  20.086  0.00  0.00    +0.000 N 
ATOM     20  H   UNL     1      -0.609   9.826  19.531  0.00  0.00    +0.000 HD
BRANCH  18  21
ATOM     21  C   UNL     1      -0.787  11.224  21.644  0.00  0.00    +0.000 A 
ATOM     22  C   UNL     1      -1.252  11.098  22.960  0.00  0.00    +0.000 A 
ATOM     23  C   UNL     1      -2.349  11.841  23.391  0.00  0.00    +0.000 A 
ATOM     24  C   UNL     1      -2.991  12.705  22.504  0.00  0.00    +0.000 A 
ATOM     25  C   UNL     1      -2.545  12.818  21.186  0.00  0.00    +0.000 A 
ATOM     26  C   UNL     1      -1.445  12.077  20.750  0.00  0.00    +0.000 A 
ENDBRANCH  18  21
ENDBRANCH   1  19
TORSDOF 2
ENDMDL
MODEL 3
REMARK VINA RESULT:      -8.3      4.854      7.107
REMARK  Name = 
REMARK  2 active torsions:
REMARK  status: ('A' for Active; 'I' for Inactive)
REMARK    1  A    between atoms: C_2  and  C_19
REMARK    2  A    between atoms: N_3  and  C_4
REMARK                            x       y       z     vdW  Elec       q    Type
REMARK                         _______ _______ _______ _____ _____    ______ ____
ROOT
ATOM      1  C   UNL     1       6.639   6.940  17.320  0.00  0.00    +0.000 A 
ATOM      2  C   UNL     1       7.147   5.941  16.493  0.00  0.00    +0.000 A 
ATOM      3  C   UNL     1       6.541   4.692  16.445  0.00  0.00    +0.000 A 
ATOM      4  C   UNL     1       5.417   4.438  17.227  0.00  0.00    +0.000 A 
ATOM      5  N   UNL     1       4.803   3.190  17.093  0.00  0.00    +0.000 N 
ATOM      6  C   UNL     1       3.665   2.815  17.750  0.00  0.00    +0.000 A 
ATOM      7  O   UNL     1       3.164   1.709  17.566  0.00  0.00    +0.000 OA
ATOM      8  C   UNL     1       3.062   3.799  18.684  0.00  0.00    +0.000 A 
ATOM      9  C   UNL     1       1.881   3.436  19.348  0.00  0.00    +0.000 A 
ATOM     10  C   UNL     1       1.282   4.322  20.235  0.00  0.00    +0.000 A 
ATOM     11  C   UNL     1       1.872   5.560  20.463  0.00  0.00    +0.000 A 
ATOM     12  C   UNL     1       3.050   5.925  19.796  0.00  0.00    +0.000 A 
ATOM     13  C   UNL     1       3.671   5.057  18.879  0.00  0.00    +0.000 A 
ATOM     14  C   UNL     1       4.891   5.400  18.106  0.00  0.00    +0.000 A 
ATOM     15  C   UNL     1       5.543   6.651  18.156  0.00  0.00    +0.000 A 
ATOM     16  H   UNL     1       5.180   2.506  16.448  0.00  0.00    +0.000 HD
ENDROOT
BRANCH   1  19
ATOM     17  O   UNL     1       8.776   8.034  19.015  0.00  0.00    +0.000 OA
ATOM     18  C   UNL     1       8.174   8.700  18.180  0.00  0.00    +0.000 C 
ATOM     19  N   UNL     1       7.168   8.252  17.335  0.00  0.00    +0.000 N 
ATOM     20  H   UNL     1       6.924   8.847  16.554  0.00  0.00    +0.000 HD
BRANCH  18  21
ATOM     21  C   UNL     1       8.603  10.108  17.982  0.00  0.00    +0.000 A 
ATOM     22  C   UNL     1       9.909  10.458  18.350  0.00  0.00    +0.000 A 
ATOM     23  C   UNL     1      10.357  11.768  18.185  0.00  0.00    +0.000 A 
ATOM     24  C   UNL     1       9.497  12.732  17.661  0.00  0.00    +0.000 A 
ATOM     25  C   UNL     1       8.189  12.393  17.314  0.00  0.00    +0.000 A 
ATOM     26  C   UNL     1       7.736  11.083  17.476  0.00  0.00    +0.000 A 
ENDBRANCH  18  21
ENDBRANCH   1  19
TORSDOF 2
ENDMDL
MODEL 4
REMARK VINA RESULT:      -8.3      3.133      8.940
REMARK  Name = 
REMARK  2 active torsions:
REMARK  status: ('A' for Active; 'I' for Inactive)
REMARK    1  A    between atoms: C_2  and  C_19
REMARK    2  A    between atoms: N_3  and  C_4
REMARK                            x       y       z     vdW  Elec       q    Type
REMARK                         _______ _______ _______ _____ _____    ______ ____
ROOT
ATOM      1  C   UNL     1       3.999   5.613  17.455  0.00  0.00    +0.000 A 
ATOM      2  C   UNL     1       3.946   4.774  18.566  0.00  0.00    +0.000 A 
ATOM      3  C   UNL     1       3.279   5.171  19.718  0.00  0.00    +0.000 A 
ATOM      4  C   UNL     1       2.658   6.417  19.762  0.00  0.00    +0.000 A 
ATOM      5  N   UNL     1       1.942   6.743  20.916  0.00  0.00    +0.000 N 
ATOM      6  C   UNL     1       1.236   7.902  21.085  0.00  0.00    +0.000 A 
ATOM      7  O   UNL     1       0.609   8.114  22.119  0.00  0.00    +0.000 OA
ATOM      8  C   UNL     1       1.257   8.881  19.970  0.00  0.00    +0.000 A 
ATOM      9  C   UNL     1       0.518  10.064  20.121  0.00  0.00    +0.000 A 
ATOM     10  C   UNL     1       0.510  11.012  19.106  0.00  0.00    +0.000 A 
ATOM     11  C   UNL     1       1.250  10.780  17.951  0.00  0.00    +0.000 A 
ATOM     12  C   UNL     1       1.985   9.597  17.799  0.00  0.00    +0.000 A 
ATOM     13  C   UNL     1       1.999   8.609  18.801  0.00  0.00    +0.000 A 
ATOM     14  C   UNL     1       2.717   7.315  18.682  0.00  0.00    +0.000 A 
ATOM     15  C   UNL     1       3.424   6.896  17.535  0.00  0.00    +0.000 A 
ATOM     16  H   UNL     1       1.893   6.087  21.685  0.00  0.00    +0.000 HD
ENDROOT
BRANCH   1  19
ATOM     17  O   UNL     1       6.667   6.265  16.411  0.00  0.00    +0.000 OA
ATOM     18  C   UNL     1       5.856   5.577  15.800  0.00  0.00    +0.000 C 
ATOM     19  N   UNL     1       4.588   5.214  16.233  0.00  0.00    +0.000 N 
ATOM     20  H   UNL     1       4.126   4.469  15.730  0.00  0.00    +0.000 HD
BRANCH  18  21
ATOM     21  C   UNL     1       6.284   4.999  14.501  0.00  0.00    +0.000 A 
ATOM     22  C   UNL     1       5.490   3.993  13.932  0.00  0.00    +0.000 A 
ATOM     23  C   UNL     1       5.851   3.418  12.715  0.00  0.00    +0.000 A 
ATOM     24  C   UNL     1       7.013   3.840  12.069  0.00  0.00    +0.000 A 
ATOM     25  C   UNL     1       7.818   4.825  12.641  0.00  0.00    +0.000 A 
ATOM     26  C   UNL     1       7.460   5.405  13.860  0.00  0.00    +0.000 A 
ENDBRANCH  18  21
ENDBRANCH   1  19
TORSDOF 2
ENDMDL
MODEL 5
REMARK VINA RESULT:      -8.2      3.103      8.609
REMARK  Name = 
REMARK  2 active torsions:
REMARK  status: ('A' for Active; 'I' for Inactive)
REMARK    1  A    between atoms: C_2  and  C_19
REMARK    2  A    between atoms: N_3  and  C_4
REMARK                            x       y       z     vdW  Elec       q    Type
REMARK                         _______ _______ _______ _____ _____    ______ ____
ROOT
ATOM      1  C   UNL     1       1.370   9.209  18.522  0.00  0.00    +0.000 A 
ATOM      2  C   UNL     1       1.581   9.782  19.773  0.00  0.00    +0.000 A 
ATOM      3  C   UNL     1       0.634  10.635  20.326  0.00  0.00    +0.000 A 
ATOM      4  C   UNL     1      -0.536  10.917  19.624  0.00  0.00    +0.000 A 
ATOM      5  N   UNL     1      -1.488  11.725  20.249  0.00  0.00    +0.000 N 
ATOM      6  C   UNL     1      -2.704  12.044  19.712  0.00  0.00    +0.000 A 
ATOM      7  O   UNL     1      -3.505  12.740  20.328  0.00  0.00    +0.000 OA
ATOM      8  C   UNL     1      -3.013  11.508  18.362  0.00  0.00    +0.000 A 
ATOM      9  C   UNL     1      -4.267  11.808  17.808  0.00  0.00    +0.000 A 
ATOM     10  C   UNL     1      -4.599  11.333  16.546  0.00  0.00    +0.000 A 
ATOM     11  C   UNL     1      -3.675  10.571  15.839  0.00  0.00    +0.000 A 
ATOM     12  C   UNL     1      -2.425  10.268  16.394  0.00  0.00    +0.000 A 
ATOM     13  C   UNL     1      -2.064  10.720  17.677  0.00  0.00    +0.000 A 
ATOM     14  C   UNL     1      -0.776  10.394  18.341  0.00  0.00    +0.000 A 
ATOM     15  C   UNL     1       0.215   9.553  17.793  0.00  0.00    +0.000 A 
ATOM     16  H   UNL     1      -1.314  12.088  21.178  0.00  0.00    +0.000 HD
ENDROOT
BRANCH   1  19
ATOM     17  O   UNL     1       2.166   6.585  19.578  0.00  0.00    +0.000 OA
ATOM     18  C   UNL     1       2.603   7.047  18.530  0.00  0.00    +0.000 C 
ATOM     19  N   UNL     1       2.263   8.267  17.961  0.00  0.00    +0.000 N 
ATOM     20  H   UNL     1       2.528   8.414  16.996  0.00  0.00    +0.000 HD
BRANCH  18  21
ATOM     21  C   UNL     1       3.527   6.199  17.735  0.00  0.00    +0.000 A 
ATOM     22  C   UNL     1       4.523   6.835  16.982  0.00  0.00    +0.000 A 
ATOM     23  C   UNL     1       5.413   6.082  16.218  0.00  0.00    +0.000 A 
ATOM     24  C   UNL     1       5.303   4.692  16.198  0.00  0.00    +0.000 A 
ATOM     25  C   UNL     1       4.299   4.056  16.929  0.00  0.00    +0.000 A 
ATOM     26  C   UNL     1       3.406   4.806  17.697  0.00  0.00    +0.000 A 
ENDBRANCH  18  21
ENDBRANCH   1  19
TORSDOF 2
ENDMDL
MODEL 6
REMARK VINA RESULT:      -8.2      1.017      1.042
REMARK  Name = 
REMARK  2 active torsions:
REMARK  status: ('A' for Active; 'I' for Inactive)
REMARK    1  A    between atoms: C_2  and  C_19
REMARK    2  A    between atoms: N_3  and  C_4
REMARK                            x       y       z     vdW  Elec       q    Type
REMARK                         _______ _______ _______ _____ _____    ______ ____
ROOT
ATOM      1  C   UNL     1       1.600   8.771  19.594  0.00  0.00    +0.000 A 
ATOM      2  C   UNL     1       2.158   9.036  18.346  0.00  0.00    +0.000 A 
ATOM      3  C   UNL     1       2.829   8.040  17.649  0.00  0.00    +0.000 A 
ATOM      4  C   UNL     1       2.943   6.766  18.201  0.00  0.00    +0.000 A 
ATOM      5  N   UNL     1       3.566   5.780  17.433  0.00  0.00    +0.000 N 
ATOM      6  C   UNL     1       3.704   4.475  17.816  0.00  0.00    +0.000 A 
ATOM      7  O   UNL     1       4.242   3.654  17.079  0.00  0.00    +0.000 OA
ATOM      8  C   UNL     1       3.171   4.097  19.149  0.00  0.00    +0.000 A 
ATOM      9  C   UNL     1       3.284   2.755  19.545  0.00  0.00    +0.000 A 
ATOM     10  C   UNL     1       2.804   2.354  20.785  0.00  0.00    +0.000 A 
ATOM     11  C   UNL     1       2.225   3.296  21.628  0.00  0.00    +0.000 A 
ATOM     12  C   UNL     1       2.107   4.635  21.231  0.00  0.00    +0.000 A 
ATOM     13  C   UNL     1       2.568   5.069  19.974  0.00  0.00    +0.000 A 
ATOM     14  C   UNL     1       2.431   6.461  19.475  0.00  0.00    +0.000 A 
ATOM     15  C   UNL     1       1.779   7.499  20.172  0.00  0.00    +0.000 A 
ATOM     16  H   UNL     1       3.921   6.004  16.512  0.00  0.00    +0.000 HD
ENDROOT
BRANCH   1  19
ATOM     17  O   UNL     1      -0.933  10.032  18.800  0.00  0.00    +0.000 OA
ATOM     18  C   UNL     1      -0.353  10.292  19.849  0.00  0.00    +0.000 C 
ATOM     19  N   UNL     1       0.833   9.728  20.299  0.00  0.00    +0.000 N 
ATOM     20  H   UNL     1       1.071   9.872  21.271  0.00  0.00    +0.000 HD
BRANCH  18  21
ATOM     21  C   UNL     1      -1.010  11.243  20.782  0.00  0.00    +0.000 A 
ATOM     22  C   UNL     1      -1.871  12.208  20.243  0.00  0.00    +0.000 A 
ATOM     23  C   UNL     1      -2.509  13.124  21.078  0.00  0.00    +0.000 A 
ATOM     24  C   UNL     1      -2.280  13.082  22.453  0.00  0.00    +0.000 A 
ATOM     25  C   UNL     1      -1.408  12.136  22.992  0.00  0.00    +0.000 A 
ATOM     26  C   UNL     1      -0.767  11.216  22.160  0.00  0.00    +0.000 A 
ENDBRANCH  18  21
ENDBRANCH   1  19
TORSDOF 2
ENDMDL
MODEL 7
REMARK VINA RESULT:      -8.1      1.814      7.988
REMARK  Name = 
REMARK  2 active torsions:
REMARK  status: ('A' for Active; 'I' for Inactive)
REMARK    1  A    between atoms: C_2  and  C_19
REMARK    2  A    between atoms: N_3  and  C_4
REMARK                            x       y       z     vdW  Elec       q    Type
REMARK                         _______ _______ _______ _____ _____    ______ ____
ROOT
ATOM      1  C   UNL     1       2.256   7.412  18.886  0.00  0.00    +0.000 A 
ATOM      2  C   UNL     1       2.532   8.170  17.750  0.00  0.00    +0.000 A 
ATOM      3  C   UNL     1       2.092   9.485  17.657  0.00  0.00    +0.000 A 
ATOM      4  C   UNL     1       1.372  10.049  18.707  0.00  0.00    +0.000 A 
ATOM      5  N   UNL     1       1.011  11.393  18.596  0.00  0.00    +0.000 N 
ATOM      6  C   UNL     1       0.352  12.099  19.564  0.00  0.00    +0.000 A 
ATOM      7  O   UNL     1       0.087  13.287  19.410  0.00  0.00    +0.000 OA
ATOM      8  C   UNL     1      -0.019  11.370  20.803  0.00  0.00    +0.000 A 
ATOM      9  C   UNL     1      -0.675  12.088  21.815  0.00  0.00    +0.000 A 
ATOM     10  C   UNL     1      -1.046  11.448  22.991  0.00  0.00    +0.000 A 
ATOM     11  C   UNL     1      -0.772  10.094  23.146  0.00  0.00    +0.000 A 
ATOM     12  C   UNL     1      -0.113   9.378  22.137  0.00  0.00    +0.000 A 
ATOM     13  C   UNL     1       0.291  10.001  20.942  0.00  0.00    +0.000 A 
ATOM     14  C   UNL     1       1.034   9.312  19.856  0.00  0.00    +0.000 A 
ATOM     15  C   UNL     1       1.470   7.972  19.912  0.00  0.00    +0.000 A 
ATOM     16  H   UNL     1       1.268  11.921  17.771  0.00  0.00    +0.000 HD
ENDROOT
BRANCH   1  19
ATOM     17  O   UNL     1       1.361   4.920  17.610  0.00  0.00    +0.000 OA
ATOM     18  C   UNL     1       2.271   4.966  18.431  0.00  0.00    +0.000 C 
ATOM     19  N   UNL     1       2.758   6.102  19.062  0.00  0.00    +0.000 N 
ATOM     20  H   UNL     1       3.647   6.019  19.537  0.00  0.00    +0.000 HD
BRANCH  18  21
ATOM     21  C   UNL     1       2.989   3.702  18.734  0.00  0.00    +0.000 A 
ATOM     22  C   UNL     1       2.892   2.650  17.813  0.00  0.00    +0.000 A 
ATOM     23  C   UNL     1       3.547   1.443  18.054  0.00  0.00    +0.000 A 
ATOM     24  C   UNL     1       4.292   1.282  19.222  0.00  0.00    +0.000 A 
ATOM     25  C   UNL     1       4.374   2.319  20.152  0.00  0.00    +0.000 A 
ATOM     26  C   UNL     1       3.721   3.529  19.914  0.00  0.00    +0.000 A 
ENDBRANCH  18  21
ENDBRANCH   1  19
TORSDOF 2
ENDMDL
MODEL 8
REMARK VINA RESULT:      -8.0      1.926      3.413
REMARK  Name = 
REMARK  2 active torsions:
REMARK  status: ('A' for Active; 'I' for Inactive)
REMARK    1  A    between atoms: C_2  and  C_19
REMARK    2  A    between atoms: N_3  and  C_4
REMARK                            x       y       z     vdW  Elec       q    Type
REMARK                         _______ _______ _______ _____ _____    ______ ____
ROOT
ATOM      1  C   UNL     1       1.688   7.510  20.243  0.00  0.00    +0.000 A 
ATOM      2  C   UNL     1       1.187   6.403  20.924  0.00  0.00    +0.000 A 
ATOM      3  C   UNL     1       1.529   5.117  20.526  0.00  0.00    +0.000 A 
ATOM      4  C   UNL     1       2.381   4.933  19.440  0.00  0.00    +0.000 A 
ATOM      5  N   UNL     1       2.751   3.625  19.121  0.00  0.00    +0.000 N 
ATOM      6  C   UNL     1       3.621   3.290  18.120  0.00  0.00    +0.000 A 
ATOM      7  O   UNL     1       3.921   2.119  17.909  0.00  0.00    +0.000 OA
ATOM      8  C   UNL     1       4.186   4.399  17.310  0.00  0.00    +0.000 A 
ATOM      9  C   UNL     1       5.098   4.071  16.295  0.00  0.00    +0.000 A 
ATOM     10  C   UNL     1       5.650   5.074  15.509  0.00  0.00    +0.000 A 
ATOM     11  C   UNL     1       5.281   6.396  15.731  0.00  0.00    +0.000 A 
ATOM     12  C   UNL     1       4.374   6.723  16.748  0.00  0.00    +0.000 A 
ATOM     13  C   UNL     1       3.810   5.733  17.573  0.00  0.00    +0.000 A 
ATOM     14  C   UNL     1       2.881   6.017  18.696  0.00  0.00    +0.000 A 
ATOM     15  C   UNL     1       2.495   7.311  19.106  0.00  0.00    +0.000 A 
ATOM     16  H   UNL     1       2.398   2.850  19.668  0.00  0.00    +0.000 HD
ENDROOT
BRANCH   1  19
ATOM     17  O   UNL     1       0.254   9.647  18.824  0.00  0.00    +0.000 OA
ATOM     18  C   UNL     1       0.762   9.798  19.929  0.00  0.00    +0.000 C 
ATOM     19  N   UNL     1       1.438   8.836  20.666  0.00  0.00    +0.000 N 
ATOM     20  H   UNL     1       1.603   9.037  21.644  0.00  0.00    +0.000 HD
BRANCH  18  21
ATOM     21  C   UNL     1       0.577  11.111  20.598  0.00  0.00    +0.000 A 
ATOM     22  C   UNL     1      -0.408  11.213  21.590  0.00  0.00    +0.000 A 
ATOM     23  C   UNL     1      -0.621  12.425  22.245  0.00  0.00    +0.000 A 
ATOM     24  C   UNL     1       0.144  13.540  21.903  0.00  0.00    +0.000 A 
ATOM     25  C   UNL     1       1.111  13.448  20.901  0.00  0.00    +0.000 A 
ATOM     26  C   UNL     1       1.328  12.236  20.243  0.00  0.00    +0.000 A 
ENDBRANCH  18  21
ENDBRANCH   1  19
TORSDOF 2
ENDMDL
MODEL 9
REMARK VINA RESULT:      -7.9      1.774      3.216
REMARK  Name = 
REMARK  2 active torsions:
REMARK  status: ('A' for Active; 'I' for Inactive)
REMARK    1  A    between atoms: C_2  and  C_19
REMARK    2  A    between atoms: N_3  and  C_4
REMARK                            x       y       z     vdW  Elec       q    Type
REMARK                         _______ _______ _______ _____ _____    ______ ____
ROOT
ATOM      1  C   UNL     1       1.692   7.456  20.122  0.00  0.00    +0.000 A 
ATOM      2  C   UNL     1       1.274   6.364  20.877  0.00  0.00    +0.000 A 
ATOM      3  C   UNL     1       1.695   5.080  20.553  0.00  0.00    +0.000 A 
ATOM      4  C   UNL     1       2.543   4.885  19.466  0.00  0.00    +0.000 A 
ATOM      5  N   UNL     1       2.994   3.587  19.220  0.00  0.00    +0.000 N 
ATOM      6  C   UNL     1       3.871   3.248  18.227  0.00  0.00    +0.000 A 
ATOM      7  O   UNL     1       4.244   2.087  18.083  0.00  0.00    +0.000 OA
ATOM      8  C   UNL     1       4.351   4.338  17.342  0.00  0.00    +0.000 A 
ATOM      9  C   UNL     1       5.269   4.008  16.333  0.00  0.00    +0.000 A 
ATOM     10  C   UNL     1       5.744   4.995  15.478  0.00  0.00    +0.000 A 
ATOM     11  C   UNL     1       5.291   6.301  15.625  0.00  0.00    +0.000 A 
ATOM     12  C   UNL     1       4.378   6.631  16.636  0.00  0.00    +0.000 A 
ATOM     13  C   UNL     1       3.891   5.659  17.529  0.00  0.00    +0.000 A 
ATOM     14  C   UNL     1       2.961   5.951  18.649  0.00  0.00    +0.000 A 
ATOM     15  C   UNL     1       2.496   7.240  18.985  0.00  0.00    +0.000 A 
ATOM     16  H   UNL     1       2.700   2.826  19.820  0.00  0.00    +0.000 HD
ENDROOT
BRANCH   1  19
ATOM     17  O   UNL     1      -0.658   8.436  21.590  0.00  0.00    +0.000 OA
ATOM     18  C   UNL     1       0.218   9.175  21.154  0.00  0.00    +0.000 C 
ATOM     19  N   UNL     1       1.361   8.787  20.468  0.00  0.00    +0.000 N 
ATOM     20  H   UNL     1       2.094   9.476  20.369  0.00  0.00    +0.000 HD
BRANCH  18  21
ATOM     21  C   UNL     1       0.105  10.626  21.449  0.00  0.00    +0.000 A 
ATOM     22  C   UNL     1       0.949  11.508  20.761  0.00  0.00    +0.000 A 
ATOM     23  C   UNL     1       0.881  12.879  21.005  0.00  0.00    +0.000 A 
ATOM     24  C   UNL     1      -0.025  13.370  21.945  0.00  0.00    +0.000 A 
ATOM     25  C   UNL     1      -0.852  12.494  22.648  0.00  0.00    +0.000 A 
ATOM     26  C   UNL     1      -0.788  11.120  22.407  0.00  0.00    +0.000 A 
ENDBRANCH  18  21
ENDBRANCH   1  19
TORSDOF 2
ENDMDL
