MODEL 1
REMARK VINA RESULT:      -6.9      0.000      0.000
REMARK  Name = 
REMARK  12 active torsions:
REMARK  status: ('A' for Active; 'I' for Inactive)
REMARK    1  A    between atoms: C_2  and  C_3
REMARK    2  A    between atoms: C_3  and  O_4
REMARK    3  A    between atoms: C_3  and  C_11
REMARK    4  A    between atoms: O_4  and  C_5
REMARK    5  A    between atoms: N_7  and  C_8
REMARK    6  A    between atoms: C_8  and  C_9
REMARK    7  A    between atoms: C_9  and  C_10
REMARK    8  A    between atoms: C_14  and  O_15
REMARK    9  A    between atoms: O_15  and  C_16
REMARK   10  A    between atoms: N_18  and  C_19
REMARK   11  A    between atoms: C_19  and  C_20
REMARK   12  A    between atoms: C_20  and  C_21
REMARK                            x       y       z     vdW  Elec       q    Type
REMARK                         _______ _______ _______ _____ _____    ______ ____
ROOT
ATOM      1  C   UNL     1       5.274   4.482  17.168  0.00  0.00    +0.000 A 
ATOM      2  C   UNL     1       4.076   3.997  16.598  0.00  0.00    +0.000 A 
ATOM      3  C   UNL     1       3.179   3.225  17.337  0.00  0.00    +0.000 A 
ATOM      4  C   UNL     1       3.466   2.879  18.657  0.00  0.00    +0.000 A 
ATOM      5  C   UNL     1       4.642   3.349  19.246  0.00  0.00    +0.000 A 
ATOM      6  C   UNL     1       5.541   4.123  18.502  0.00  0.00    +0.000 A 
ENDROOT
BRANCH   1   7
ATOM      7  C   UNL     1       6.253   5.285  16.321  0.00  0.00    +0.000 C 
BRANCH   7   9
ATOM      8  C   UNL     1       7.195   7.369  17.494  0.00  0.00    +0.000 C 
ATOM      9  C   UNL     1       6.280   6.745  16.762  0.00  0.00    +0.000 C 
ENDBRANCH   7   9
BRANCH   7  10
ATOM     10  O   UNL     1       5.961   5.257  14.902  0.00  0.00    +0.000 OA
BRANCH  10  11
ATOM     11  C   UNL     1       6.986   4.899  14.090  0.00  0.00    +0.000 C 
ATOM     12  O   UNL     1       8.077   5.449  14.020  0.00  0.00    +0.000 OA
ATOM     13  N   UNL     1       6.705   3.751  13.400  0.00  0.00    +0.000 N 
ATOM     14  H   UNL     1       7.536   3.284  13.048  0.00  0.00    +0.000 HD
BRANCH  13  15
ATOM     15  C   UNL     1       5.479   3.566  12.628  0.00  0.00    +0.000 C 
BRANCH  15  16
ATOM     16  C   UNL     1       5.553   2.333  11.711  0.00  0.00    +0.000 C 
ATOM     17  C   UNL     1       6.976   2.082  11.229  0.00  0.00    +0.000 C 
ENDBRANCH  15  16
ENDBRANCH  13  15
ENDBRANCH  10  11
ENDBRANCH   7  10
ENDBRANCH   1   7
BRANCH   4  18
ATOM     18  O   UNL     1       2.493   2.081  19.300  0.00  0.00    +0.000 OA
BRANCH  18  19
ATOM     19  C   UNL     1       1.133   2.380  19.350  0.00  0.00    +0.000 C 
ATOM     20  O   UNL     1       0.289   2.091  18.509  0.00  0.00    +0.000 OA
ATOM     21  N   UNL     1       0.771   3.046  20.492  0.00  0.00    +0.000 N 
ATOM     22  H   UNL     1      -0.232   3.090  20.587  0.00  0.00    +0.000 HD
BRANCH  21  23
ATOM     23  C   UNL     1       1.503   4.202  20.962  0.00  0.00    +0.000 C 
BRANCH  23  24
ATOM     24  C   UNL     1       1.450   5.386  19.986  0.00  0.00    +0.000 C 
ATOM     25  C   UNL     1       2.677   6.286  20.046  0.00  0.00    +0.000 C 
ENDBRANCH  23  24
ENDBRANCH  21  23
ENDBRANCH  18  19
ENDBRANCH   4  18
TORSDOF 10
ENDMDL
MODEL 2
REMARK VINA RESULT:      -6.8      1.952      2.513
REMARK  Name = 
REMARK  12 active torsions:
REMARK  status: ('A' for Active; 'I' for Inactive)
REMARK    1  A    between atoms: C_2  and  C_3
REMARK    2  A    between atoms: C_3  and  O_4
REMARK    3  A    between atoms: C_3  and  C_11
REMARK    4  A    between atoms: O_4  and  C_5
REMARK    5  A    between atoms: N_7  and  C_8
REMARK    6  A    between atoms: C_8  and  C_9
REMARK    7  A    between atoms: C_9  and  C_10
REMARK    8  A    between atoms: C_14  and  O_15
REMARK    9  A    between atoms: O_15  and  C_16
REMARK   10  A    between atoms: N_18  and  C_19
REMARK   11  A    between atoms: C_19  and  C_20
REMARK   12  A    between atoms: C_20  and  C_21
REMARK                            x       y       z     vdW  Elec       q    Type
REMARK                         _______ _______ _______ _____ _____    ______ ____
ROOT
ATOM      1  C   UNL     1       5.945   6.389  18.086  0.00  0.00    +0.000 A 
ATOM      2  C   UNL     1       4.837   6.813  17.321  0.00  0.00    +0.000 A 
ATOM      3  C   UNL     1       3.537   6.425  17.647  0.00  0.00    +0.000 A 
ATOM      4  C   UNL     1       3.304   5.571  18.723  0.00  0.00    +0.000 A 
ATOM      5  C   UNL     1       4.382   5.140  19.499  0.00  0.00    +0.000 A 
ATOM      6  C   UNL     1       5.686   5.529  19.169  0.00  0.00    +0.000 A 
ENDROOT
BRANCH   1   7
ATOM      7  C   UNL     1       7.356   6.794  17.677  0.00  0.00    +0.000 C 
BRANCH   7   9
ATOM      8  C   UNL     1       8.263   9.176  18.012  0.00  0.00    +0.000 C 
ATOM      9  C   UNL     1       7.442   8.300  17.446  0.00  0.00    +0.000 C 
ENDBRANCH   7   9
BRANCH   7  10
ATOM     10  O   UNL     1       7.831   6.134  16.478  0.00  0.00    +0.000 OA
BRANCH  10  11
ATOM     11  C   UNL     1       7.745   4.781  16.469  0.00  0.00    +0.000 C 
ATOM     12  O   UNL     1       8.325   4.016  17.228  0.00  0.00    +0.000 OA
ATOM     13  N   UNL     1       6.828   4.341  15.553  0.00  0.00    +0.000 N 
ATOM     14  H   UNL     1       6.503   3.396  15.737  0.00  0.00    +0.000 HD
BRANCH  13  15
ATOM     15  C   UNL     1       6.831   4.766  14.157  0.00  0.00    +0.000 C 
BRANCH  15  16
ATOM     16  C   UNL     1       6.000   3.829  13.263  0.00  0.00    +0.000 C 
ATOM     17  C   UNL     1       6.725   3.514  11.961  0.00  0.00    +0.000 C 
ENDBRANCH  15  16
ENDBRANCH  13  15
ENDBRANCH  10  11
ENDBRANCH   7  10
ENDBRANCH   1   7
BRANCH   4  18
ATOM     18  O   UNL     1       1.950   5.234  18.949  0.00  0.00    +0.000 OA
BRANCH  18  19
ATOM     19  C   UNL     1       1.312   4.118  18.411  0.00  0.00    +0.000 C 
ATOM     20  O   UNL     1       0.880   4.001  17.270  0.00  0.00    +0.000 OA
ATOM     21  N   UNL     1       1.213   3.078  19.298  0.00  0.00    +0.000 N 
ATOM     22  H   UNL     1       0.915   2.231  18.837  0.00  0.00    +0.000 HD
BRANCH  21  23
ATOM     23  C   UNL     1       0.721   3.271  20.645  0.00  0.00    +0.000 C 
BRANCH  23  24
ATOM     24  C   UNL     1       1.612   2.619  21.711  0.00  0.00    +0.000 C 
ATOM     25  C   UNL     1       3.064   2.457  21.281  0.00  0.00    +0.000 C 
ENDBRANCH  23  24
ENDBRANCH  21  23
ENDBRANCH  18  19
ENDBRANCH   4  18
TORSDOF 10
ENDMDL
MODEL 3
REMARK VINA RESULT:      -6.7      1.459      1.979
REMARK  Name = 
REMARK  12 active torsions:
REMARK  status: ('A' for Active; 'I' for Inactive)
REMARK    1  A    between atoms: C_2  and  C_3
REMARK    2  A    between atoms: C_3  and  O_4
REMARK    3  A    between atoms: C_3  and  C_11
REMARK    4  A    between atoms: O_4  and  C_5
REMARK    5  A    between atoms: N_7  and  C_8
REMARK    6  A    between atoms: C_8  and  C_9
REMARK    7  A    between atoms: C_9  and  C_10
REMARK    8  A    between atoms: C_14  and  O_15
REMARK    9  A    between atoms: O_15  and  C_16
REMARK   10  A    between atoms: N_18  and  C_19
REMARK   11  A    between atoms: C_19  and  C_20
REMARK   12  A    between atoms: C_20  and  C_21
REMARK                            x       y       z     vdW  Elec       q    Type
REMARK                         _______ _______ _______ _____ _____    ______ ____
ROOT
ATOM      1  C   UNL     1       5.043   4.908  16.925  0.00  0.00    +0.000 A 
ATOM      2  C   UNL     1       4.375   3.666  16.869  0.00  0.00    +0.000 A 
ATOM      3  C   UNL     1       3.129   3.482  17.471  0.00  0.00    +0.000 A 
ATOM      4  C   UNL     1       2.528   4.520  18.181  0.00  0.00    +0.000 A 
ATOM      5  C   UNL     1       3.166   5.761  18.248  0.00  0.00    +0.000 A 
ATOM      6  C   UNL     1       4.417   5.942  17.644  0.00  0.00    +0.000 A 
ENDROOT
BRANCH   1   7
ATOM      7  C   UNL     1       6.422   5.063  16.295  0.00  0.00    +0.000 C 
BRANCH   7   9
ATOM      8  C   UNL     1       7.444   7.187  17.320  0.00  0.00    +0.000 C 
ATOM      9  C   UNL     1       7.345   5.869  17.204  0.00  0.00    +0.000 C 
ENDBRANCH   7   9
BRANCH   7  10
ATOM     10  O   UNL     1       6.406   5.706  14.997  0.00  0.00    +0.000 OA
BRANCH  10  11
ATOM     11  C   UNL     1       7.160   5.122  14.034  0.00  0.00    +0.000 C 
ATOM     12  O   UNL     1       8.231   5.534  13.607  0.00  0.00    +0.000 OA
ATOM     13  N   UNL     1       6.632   3.923  13.638  0.00  0.00    +0.000 N 
ATOM     14  H   UNL     1       7.311   3.321  13.179  0.00  0.00    +0.000 HD
BRANCH  13  15
ATOM     15  C   UNL     1       5.240   3.762  13.231  0.00  0.00    +0.000 C 
BRANCH  15  16
ATOM     16  C   UNL     1       5.114   3.284  11.773  0.00  0.00    +0.000 C 
ATOM     17  C   UNL     1       5.787   1.933  11.571  0.00  0.00    +0.000 C 
ENDBRANCH  15  16
ENDBRANCH  13  15
ENDBRANCH  10  11
ENDBRANCH   7  10
ENDBRANCH   1   7
BRANCH   4  18
ATOM     18  O   UNL     1       1.276   4.214  18.761  0.00  0.00    +0.000 OA
BRANCH  18  19
ATOM     19  C   UNL     1       0.963   4.391  20.107  0.00  0.00    +0.000 C 
ATOM     20  O   UNL     1       0.800   5.460  20.685  0.00  0.00    +0.000 OA
ATOM     21  N   UNL     1       0.819   3.210  20.785  0.00  0.00    +0.000 N 
ATOM     22  H   UNL     1       0.420   3.359  21.700  0.00  0.00    +0.000 HD
BRANCH  21  23
ATOM     23  C   UNL     1       1.801   2.152  20.687  0.00  0.00    +0.000 C 
BRANCH  23  24
ATOM     24  C   UNL     1       3.167   2.542  21.268  0.00  0.00    +0.000 C 
ATOM     25  C   UNL     1       4.347   2.071  20.430  0.00  0.00    +0.000 C 
ENDBRANCH  23  24
ENDBRANCH  21  23
ENDBRANCH  18  19
ENDBRANCH   4  18
TORSDOF 10
ENDMDL
MODEL 4
REMARK VINA RESULT:      -6.7      1.455      2.080
REMARK  Name = 
REMARK  12 active torsions:
REMARK  status: ('A' for Active; 'I' for Inactive)
REMARK    1  A    between atoms: C_2  and  C_3
REMARK    2  A    between atoms: C_3  and  O_4
REMARK    3  A    between atoms: C_3  and  C_11
REMARK    4  A    between atoms: O_4  and  C_5
REMARK    5  A    between atoms: N_7  and  C_8
REMARK    6  A    between atoms: C_8  and  C_9
REMARK    7  A    between atoms: C_9  and  C_10
REMARK    8  A    between atoms: C_14  and  O_15
REMARK    9  A    between atoms: O_15  and  C_16
REMARK   10  A    between atoms: N_18  and  C_19
REMARK   11  A    between atoms: C_19  and  C_20
REMARK   12  A    between atoms: C_20  and  C_21
REMARK                            x       y       z     vdW  Elec       q    Type
REMARK                         _______ _______ _______ _____ _____    ______ ____
ROOT
ATOM      1  C   UNL     1       5.167   4.861  16.995  0.00  0.00    +0.000 A 
ATOM      2  C   UNL     1       4.549   5.857  17.782  0.00  0.00    +0.000 A 
ATOM      3  C   UNL     1       3.288   5.661  18.347  0.00  0.00    +0.000 A 
ATOM      4  C   UNL     1       2.586   4.479  18.112  0.00  0.00    +0.000 A 
ATOM      5  C   UNL     1       3.176   3.475  17.340  0.00  0.00    +0.000 A 
ATOM      6  C   UNL     1       4.441   3.676  16.774  0.00  0.00    +0.000 A 
ENDROOT
BRANCH   1   7
ATOM      7  C   UNL     1       6.525   5.125  16.357  0.00  0.00    +0.000 C 
BRANCH   7   9
ATOM      8  C   UNL     1       7.472   7.367  17.184  0.00  0.00    +0.000 C 
ATOM      9  C   UNL     1       7.367   6.044  17.235  0.00  0.00    +0.000 C 
ENDBRANCH   7   9
BRANCH   7  10
ATOM     10  O   UNL     1       6.447   5.720  15.039  0.00  0.00    +0.000 OA
BRANCH  10  11
ATOM     11  C   UNL     1       7.192   5.128  14.073  0.00  0.00    +0.000 C 
ATOM     12  O   UNL     1       8.241   5.554  13.607  0.00  0.00    +0.000 OA
ATOM     13  N   UNL     1       6.686   3.905  13.725  0.00  0.00    +0.000 N 
ATOM     14  H   UNL     1       7.368   3.307  13.266  0.00  0.00    +0.000 HD
BRANCH  13  15
ATOM     15  C   UNL     1       5.288   3.697  13.358  0.00  0.00    +0.000 C 
BRANCH  15  16
ATOM     16  C   UNL     1       5.124   3.362  11.865  0.00  0.00    +0.000 C 
ATOM     17  C   UNL     1       5.785   2.035  11.517  0.00  0.00    +0.000 C 
ENDBRANCH  15  16
ENDBRANCH  13  15
ENDBRANCH  10  11
ENDBRANCH   7  10
ENDBRANCH   1   7
BRANCH   4  18
ATOM     18  O   UNL     1       1.313   4.398  18.721  0.00  0.00    +0.000 OA
BRANCH  18  19
ATOM     19  C   UNL     1       1.073   4.591  20.080  0.00  0.00    +0.000 C 
ATOM     20  O   UNL     1       1.034   5.664  20.671  0.00  0.00    +0.000 OA
ATOM     21  N   UNL     1       0.848   3.421  20.756  0.00  0.00    +0.000 N 
ATOM     22  H   UNL     1       0.502   3.597  21.688  0.00  0.00    +0.000 HD
BRANCH  21  23
ATOM     23  C   UNL     1       1.723   2.278  20.612  0.00  0.00    +0.000 C 
BRANCH  23  24
ATOM     24  C   UNL     1       3.078   2.465  21.308  0.00  0.00    +0.000 C 
ATOM     25  C   UNL     1       4.273   2.184  20.407  0.00  0.00    +0.000 C 
ENDBRANCH  23  24
ENDBRANCH  21  23
ENDBRANCH  18  19
ENDBRANCH   4  18
TORSDOF 10
ENDMDL
MODEL 5
REMARK VINA RESULT:      -6.6      1.630      2.448
REMARK  Name = 
REMARK  12 active torsions:
REMARK  status: ('A' for Active; 'I' for Inactive)
REMARK    1  A    between atoms: C_2  and  C_3
REMARK    2  A    between atoms: C_3  and  O_4
REMARK    3  A    between atoms: C_3  and  C_11
REMARK    4  A    between atoms: O_4  and  C_5
REMARK    5  A    between atoms: N_7  and  C_8
REMARK    6  A    between atoms: C_8  and  C_9
REMARK    7  A    between atoms: C_9  and  C_10
REMARK    8  A    between atoms: C_14  and  O_15
REMARK    9  A    between atoms: O_15  and  C_16
REMARK   10  A    between atoms: N_18  and  C_19
REMARK   11  A    between atoms: C_19  and  C_20
REMARK   12  A    between atoms: C_20  and  C_21
REMARK                            x       y       z     vdW  Elec       q    Type
REMARK                         _______ _______ _______ _____ _____    ______ ____
ROOT
ATOM      1  C   UNL     1       5.596   5.734  17.984  0.00  0.00    +0.000 A 
ATOM      2  C   UNL     1       4.375   6.398  17.738  0.00  0.00    +0.000 A 
ATOM      3  C   UNL     1       3.271   6.223  18.574  0.00  0.00    +0.000 A 
ATOM      4  C   UNL     1       3.338   5.351  19.659  0.00  0.00    +0.000 A 
ATOM      5  C   UNL     1       4.536   4.685  19.927  0.00  0.00    +0.000 A 
ATOM      6  C   UNL     1       5.641   4.861  19.086  0.00  0.00    +0.000 A 
ENDROOT
BRANCH   1   7
ATOM      7  C   UNL     1       6.768   5.912  17.027  0.00  0.00    +0.000 C 
BRANCH   7   9
ATOM      8  C   UNL     1       8.043   7.867  18.106  0.00  0.00    +0.000 C 
ATOM      9  C   UNL     1       7.335   7.325  17.121  0.00  0.00    +0.000 C 
ENDBRANCH   7   9
BRANCH   7  10
ATOM     10  O   UNL     1       6.436   5.660  15.640  0.00  0.00    +0.000 OA
BRANCH  10  11
ATOM     11  C   UNL     1       6.124   4.378  15.325  0.00  0.00    +0.000 C 
ATOM     12  O   UNL     1       5.917   3.470  16.119  0.00  0.00    +0.000 OA
ATOM     13  N   UNL     1       5.958   4.216  13.977  0.00  0.00    +0.000 N 
ATOM     14  H   UNL     1       5.421   3.387  13.738  0.00  0.00    +0.000 HD
BRANCH  13  15
ATOM     15  C   UNL     1       6.945   4.657  12.995  0.00  0.00    +0.000 C 
BRANCH  15  16
ATOM     16  C   UNL     1       6.986   3.737  11.761  0.00  0.00    +0.000 C 
ATOM     17  C   UNL     1       5.849   2.724  11.786  0.00  0.00    +0.000 C 
ENDBRANCH  15  16
ENDBRANCH  13  15
ENDBRANCH  10  11
ENDBRANCH   7  10
ENDBRANCH   1   7
BRANCH   4  18
ATOM     18  O   UNL     1       2.155   5.242  20.425  0.00  0.00    +0.000 OA
BRANCH  18  19
ATOM     19  C   UNL     1       1.702   4.066  21.018  0.00  0.00    +0.000 C 
ATOM     20  O   UNL     1       2.098   3.578  22.071  0.00  0.00    +0.000 OA
ATOM     21  N   UNL     1       0.701   3.457  20.309  0.00  0.00    +0.000 N 
ATOM     22  H   UNL     1       0.271   2.717  20.843  0.00  0.00    +0.000 HD
BRANCH  21  23
ATOM     23  C   UNL     1       0.809   3.230  18.884  0.00  0.00    +0.000 C 
BRANCH  23  24
ATOM     24  C   UNL     1       1.663   2.004  18.533  0.00  0.00    +0.000 C 
ATOM     25  C   UNL     1       2.871   2.327  17.664  0.00  0.00    +0.000 C 
ENDBRANCH  23  24
ENDBRANCH  21  23
ENDBRANCH  18  19
ENDBRANCH   4  18
TORSDOF 10
ENDMDL
MODEL 6
REMARK VINA RESULT:      -6.6      4.576      6.724
REMARK  Name = 
REMARK  12 active torsions:
REMARK  status: ('A' for Active; 'I' for Inactive)
REMARK    1  A    between atoms: C_2  and  C_3
REMARK    2  A    between atoms: C_3  and  O_4
REMARK    3  A    between atoms: C_3  and  C_11
REMARK    4  A    between atoms: O_4  and  C_5
REMARK    5  A    between atoms: N_7  and  C_8
REMARK    6  A    between atoms: C_8  and  C_9
REMARK    7  A    between atoms: C_9  and  C_10
REMARK    8  A    between atoms: C_14  and  O_15
REMARK    9  A    between atoms: O_15  and  C_16
REMARK   10  A    between atoms: N_18  and  C_19
REMARK   11  A    between atoms: C_19  and  C_20
REMARK   12  A    between atoms: C_20  and  C_21
REMARK                            x       y       z     vdW  Elec       q    Type
REMARK                         _______ _______ _______ _____ _____    ______ ____
ROOT
ATOM      1  C   UNL     1       3.327   6.889  18.225  0.00  0.00    +0.000 A 
ATOM      2  C   UNL     1       2.707   6.824  19.492  0.00  0.00    +0.000 A 
ATOM      3  C   UNL     1       1.787   7.790  19.902  0.00  0.00    +0.000 A 
ATOM      4  C   UNL     1       1.486   8.873  19.077  0.00  0.00    +0.000 A 
ATOM      5  C   UNL     1       2.083   8.959  17.817  0.00  0.00    +0.000 A 
ATOM      6  C   UNL     1       3.007   7.989  17.410  0.00  0.00    +0.000 A 
ENDROOT
BRANCH   1   7
ATOM      7  C   UNL     1       4.361   5.843  17.826  0.00  0.00    +0.000 C 
BRANCH   7   9
ATOM      8  C   UNL     1       5.675   5.339  15.675  0.00  0.00    +0.000 C 
ATOM      9  C   UNL     1       4.871   6.097  16.411  0.00  0.00    +0.000 C 
ENDBRANCH   7   9
BRANCH   7  10
ATOM     10  O   UNL     1       3.868   4.482  17.882  0.00  0.00    +0.000 OA
BRANCH  10  11
ATOM     11  C   UNL     1       4.349   3.715  18.891  0.00  0.00    +0.000 C 
ATOM     12  O   UNL     1       5.507   3.686  19.288  0.00  0.00    +0.000 OA
ATOM     13  N   UNL     1       3.350   3.019  19.516  0.00  0.00    +0.000 N 
ATOM     14  H   UNL     1       3.605   2.704  20.448  0.00  0.00    +0.000 HD
BRANCH  13  15
ATOM     15  C   UNL     1       2.381   2.198  18.795  0.00  0.00    +0.000 C 
BRANCH  15  16
ATOM     16  C   UNL     1       0.934   2.499  19.223  0.00  0.00    +0.000 C 
ATOM     17  C   UNL     1       0.868   3.708  20.147  0.00  0.00    +0.000 C 
ENDBRANCH  15  16
ENDBRANCH  13  15
ENDBRANCH  10  11
ENDBRANCH   7  10
ENDBRANCH   1   7
BRANCH   4  18
ATOM     18  O   UNL     1       0.554   9.796  19.603  0.00  0.00    +0.000 OA
BRANCH  18  19
ATOM     19  C   UNL     1       0.296  11.054  19.063  0.00  0.00    +0.000 C 
ATOM     20  O   UNL     1       0.816  12.113  19.394  0.00  0.00    +0.000 OA
ATOM     21  N   UNL     1      -0.628  11.025  18.052  0.00  0.00    +0.000 N 
ATOM     22  H   UNL     1      -0.663  11.906  17.562  0.00  0.00    +0.000 HD
BRANCH  21  23
ATOM     23  C   UNL     1      -1.889  10.329  18.193  0.00  0.00    +0.000 C 
BRANCH  23  24
ATOM     24  C   UNL     1      -2.445   9.813  16.859  0.00  0.00    +0.000 C 
ATOM     25  C   UNL     1      -2.709  10.913  15.839  0.00  0.00    +0.000 C 
ENDBRANCH  23  24
ENDBRANCH  21  23
ENDBRANCH  18  19
ENDBRANCH   4  18
TORSDOF 10
ENDMDL
MODEL 7
REMARK VINA RESULT:      -6.6      4.689      7.096
REMARK  Name = 
REMARK  12 active torsions:
REMARK  status: ('A' for Active; 'I' for Inactive)
REMARK    1  A    between atoms: C_2  and  C_3
REMARK    2  A    between atoms: C_3  and  O_4
REMARK    3  A    between atoms: C_3  and  C_11
REMARK    4  A    between atoms: O_4  and  C_5
REMARK    5  A    between atoms: N_7  and  C_8
REMARK    6  A    between atoms: C_8  and  C_9
REMARK    7  A    between atoms: C_9  and  C_10
REMARK    8  A    between atoms: C_14  and  O_15
REMARK    9  A    between atoms: O_15  and  C_16
REMARK   10  A    between atoms: N_18  and  C_19
REMARK   11  A    between atoms: C_19  and  C_20
REMARK   12  A    between atoms: C_20  and  C_21
REMARK                            x       y       z     vdW  Elec       q    Type
REMARK                         _______ _______ _______ _____ _____    ______ ____
ROOT
ATOM      1  C   UNL     1       2.816   7.110  18.671  0.00  0.00    +0.000 A 
ATOM      2  C   UNL     1       2.592   8.080  17.669  0.00  0.00    +0.000 A 
ATOM      3  C   UNL     1       1.816   9.213  17.914  0.00  0.00    +0.000 A 
ATOM      4  C   UNL     1       1.206   9.396  19.155  0.00  0.00    +0.000 A 
ATOM      5  C   UNL     1       1.414   8.453  20.164  0.00  0.00    +0.000 A 
ATOM      6  C   UNL     1       2.192   7.316  19.914  0.00  0.00    +0.000 A 
ENDROOT
BRANCH   1   7
ATOM      7  C   UNL     1       3.631   5.861  18.356  0.00  0.00    +0.000 C 
BRANCH   7   9
ATOM      8  C   UNL     1       1.548   4.492  17.729  0.00  0.00    +0.000 C 
ATOM      9  C   UNL     1       2.808   4.867  17.544  0.00  0.00    +0.000 C 
ENDBRANCH   7   9
BRANCH   7  10
ATOM     10  O   UNL     1       4.126   5.172  19.530  0.00  0.00    +0.000 OA
BRANCH  10  11
ATOM     11  C   UNL     1       5.048   4.203  19.308  0.00  0.00    +0.000 C 
ATOM     12  O   UNL     1       6.055   4.309  18.622  0.00  0.00    +0.000 OA
ATOM     13  N   UNL     1       4.781   3.077  20.039  0.00  0.00    +0.000 N 
ATOM     14  H   UNL     1       5.592   2.475  20.154  0.00  0.00    +0.000 HD
BRANCH  13  15
ATOM     15  C   UNL     1       3.478   2.419  20.040  0.00  0.00    +0.000 C 
BRANCH  15  16
ATOM     16  C   UNL     1       2.720   2.634  21.363  0.00  0.00    +0.000 C 
ATOM     17  C   UNL     1       1.292   3.102  21.116  0.00  0.00    +0.000 C 
ENDBRANCH  15  16
ENDBRANCH  13  15
ENDBRANCH  10  11
ENDBRANCH   7  10
ENDBRANCH   1   7
BRANCH   4  18
ATOM     18  O   UNL     1       0.432  10.571  19.283  0.00  0.00    +0.000 OA
BRANCH  18  19
ATOM     19  C   UNL     1       0.726  11.621  20.151  0.00  0.00    +0.000 C 
ATOM     20  O   UNL     1       1.824  12.137  20.329  0.00  0.00    +0.000 OA
ATOM     21  N   UNL     1      -0.373  12.086  20.823  0.00  0.00    +0.000 N 
ATOM     22  H   UNL     1      -0.171  12.951  21.302  0.00  0.00    +0.000 HD
BRANCH  21  23
ATOM     23  C   UNL     1      -1.288  11.189  21.496  0.00  0.00    +0.000 C 
BRANCH  23  24
ATOM     24  C   UNL     1      -0.938  10.969  22.974  0.00  0.00    +0.000 C 
ATOM     25  C   UNL     1      -0.207   9.660  23.242  0.00  0.00    +0.000 C 
ENDBRANCH  23  24
ENDBRANCH  21  23
ENDBRANCH  18  19
ENDBRANCH   4  18
TORSDOF 10
ENDMDL
MODEL 8
REMARK VINA RESULT:      -6.6      1.123      1.350
REMARK  Name = 
REMARK  12 active torsions:
REMARK  status: ('A' for Active; 'I' for Inactive)
REMARK    1  A    between atoms: C_2  and  C_3
REMARK    2  A    between atoms: C_3  and  O_4
REMARK    3  A    between atoms: C_3  and  C_11
REMARK    4  A    between atoms: O_4  and  C_5
REMARK    5  A    between atoms: N_7  and  C_8
REMARK    6  A    between atoms: C_8  and  C_9
REMARK    7  A    between atoms: C_9  and  C_10
REMARK    8  A    between atoms: C_14  and  O_15
REMARK    9  A    between atoms: O_15  and  C_16
REMARK   10  A    between atoms: N_18  and  C_19
REMARK   11  A    between atoms: C_19  and  C_20
REMARK   12  A    between atoms: C_20  and  C_21
REMARK                            x       y       z     vdW  Elec       q    Type
REMARK                         _______ _______ _______ _____ _____    ______ ____
ROOT
ATOM      1  C   UNL     1       5.761   4.872  17.480  0.00  0.00    +0.000 A 
ATOM      2  C   UNL     1       4.779   3.998  16.965  0.00  0.00    +0.000 A 
ATOM      3  C   UNL     1       3.984   3.220  17.807  0.00  0.00    +0.000 A 
ATOM      4  C   UNL     1       4.169   3.261  19.188  0.00  0.00    +0.000 A 
ATOM      5  C   UNL     1       5.130   4.121  19.724  0.00  0.00    +0.000 A 
ATOM      6  C   UNL     1       5.927   4.899  18.876  0.00  0.00    +0.000 A 
ENDROOT
BRANCH   1   7
ATOM      7  C   UNL     1       6.643   5.674  16.530  0.00  0.00    +0.000 C 
BRANCH   7   9
ATOM      8  C   UNL     1       7.772   7.743  17.556  0.00  0.00    +0.000 C 
ATOM      9  C   UNL     1       6.745   7.127  16.983  0.00  0.00    +0.000 C 
ENDBRANCH   7   9
BRANCH   7  10
ATOM     10  O   UNL     1       6.182   5.669  15.157  0.00  0.00    +0.000 OA
BRANCH  10  11
ATOM     11  C   UNL     1       7.018   5.107  14.250  0.00  0.00    +0.000 C 
ATOM     12  O   UNL     1       8.100   5.554  13.892  0.00  0.00    +0.000 OA
ATOM     13  N   UNL     1       6.561   3.888  13.830  0.00  0.00    +0.000 N 
ATOM     14  H   UNL     1       7.289   3.308  13.422  0.00  0.00    +0.000 HD
BRANCH  13  15
ATOM     15  C   UNL     1       5.205   3.675  13.333  0.00  0.00    +0.000 C 
BRANCH  15  16
ATOM     16  C   UNL     1       5.183   3.350  11.829  0.00  0.00    +0.000 C 
ATOM     17  C   UNL     1       5.789   1.981  11.547  0.00  0.00    +0.000 C 
ENDBRANCH  15  16
ENDBRANCH  13  15
ENDBRANCH  10  11
ENDBRANCH   7  10
ENDBRANCH   1   7
BRANCH   4  18
ATOM     18  O   UNL     1       3.317   2.419  19.940  0.00  0.00    +0.000 OA
BRANCH  18  19
ATOM     19  C   UNL     1       2.724   2.773  21.150  0.00  0.00    +0.000 C 
ATOM     20  O   UNL     1       2.817   2.170  22.214  0.00  0.00    +0.000 OA
ATOM     21  N   UNL     1       1.997   3.931  21.074  0.00  0.00    +0.000 N 
ATOM     22  H   UNL     1       1.731   4.258  21.991  0.00  0.00    +0.000 HD
BRANCH  21  23
ATOM     23  C   UNL     1       1.032   4.155  20.018  0.00  0.00    +0.000 C 
BRANCH  23  24
ATOM     24  C   UNL     1       1.376   5.362  19.134  0.00  0.00    +0.000 C 
ATOM     25  C   UNL     1       2.294   6.373  19.808  0.00  0.00    +0.000 C 
ENDBRANCH  23  24
ENDBRANCH  21  23
ENDBRANCH  18  19
ENDBRANCH   4  18
TORSDOF 10
ENDMDL
MODEL 9
REMARK VINA RESULT:      -6.5      4.730      7.772
REMARK  Name = 
REMARK  12 active torsions:
REMARK  status: ('A' for Active; 'I' for Inactive)
REMARK    1  A    between atoms: C_2  and  C_3
REMARK    2  A    between atoms: C_3  and  O_4
REMARK    3  A    between atoms: C_3  and  C_11
REMARK    4  A    between atoms: O_4  and  C_5
REMARK    5  A    between atoms: N_7  and  C_8
REMARK    6  A    between atoms: C_8  and  C_9
REMARK    7  A    between atoms: C_9  and  C_10
REMARK    8  A    between atoms: C_14  and  O_15
REMARK    9  A    between atoms: O_15  and  C_16
REMARK   10  A    between atoms: N_18  and  C_19
REMARK   11  A    between atoms: C_19  and  C_20
REMARK   12  A    between atoms: C_20  and  C_21
REMARK                            x       y       z     vdW  Elec       q    Type
REMARK                         _______ _______ _______ _____ _____    ______ ____
ROOT
ATOM      1  C   UNL     1       1.698   7.938  19.897  0.00  0.00    +0.000 A 
ATOM      2  C   UNL     1       2.404   8.021  18.678  0.00  0.00    +0.000 A 
ATOM      3  C   UNL     1       3.066   6.914  18.144  0.00  0.00    +0.000 A 
ATOM      4  C   UNL     1       3.076   5.700  18.828  0.00  0.00    +0.000 A 
ATOM      5  C   UNL     1       2.380   5.590  20.035  0.00  0.00    +0.000 A 
ATOM      6  C   UNL     1       1.720   6.703  20.569  0.00  0.00    +0.000 A 
ENDROOT
BRANCH   1   7
ATOM      7  C   UNL     1       1.025   9.177  20.475  0.00  0.00    +0.000 C 
BRANCH   7   9
ATOM      8  C   UNL     1      -0.448   9.381  22.572  0.00  0.00    +0.000 C 
ATOM      9  C   UNL     1       0.632   8.951  21.932  0.00  0.00    +0.000 C 
ENDBRANCH   7   9
BRANCH   7  10
ATOM     10  O   UNL     1      -0.163   9.589  19.755  0.00  0.00    +0.000 OA
BRANCH  10  11
ATOM     11  C   UNL     1      -0.025  10.670  18.948  0.00  0.00    +0.000 C 
ATOM     12  O   UNL     1       0.674  11.650  19.167  0.00  0.00    +0.000 OA
ATOM     13  N   UNL     1      -0.697  10.505  17.767  0.00  0.00    +0.000 N 
ATOM     14  H   UNL     1      -0.363  11.120  17.030  0.00  0.00    +0.000 HD
BRANCH  13  15
ATOM     15  C   UNL     1      -2.101  10.111  17.698  0.00  0.00    +0.000 C 
BRANCH  15  16
ATOM     16  C   UNL     1      -2.532   9.749  16.266  0.00  0.00    +0.000 C 
ATOM     17  C   UNL     1      -3.191  10.932  15.569  0.00  0.00    +0.000 C 
ENDBRANCH  15  16
ENDBRANCH  13  15
ENDBRANCH  10  11
ENDBRANCH   7  10
ENDBRANCH   1   7
BRANCH   4  18
ATOM     18  O   UNL     1       3.789   4.654  18.200  0.00  0.00    +0.000 OA
BRANCH  18  19
ATOM     19  C   UNL     1       4.590   3.730  18.868  0.00  0.00    +0.000 C 
ATOM     20  O   UNL     1       4.206   2.769  19.525  0.00  0.00    +0.000 OA
ATOM     21  N   UNL     1       5.930   3.971  18.714  0.00  0.00    +0.000 N 
ATOM     22  H   UNL     1       6.482   3.196  19.051  0.00  0.00    +0.000 HD
BRANCH  21  23
ATOM     23  C   UNL     1       6.494   5.287  18.919  0.00  0.00    +0.000 C 
BRANCH  23  24
ATOM     24  C   UNL     1       7.368   5.757  17.748  0.00  0.00    +0.000 C 
ATOM     25  C   UNL     1       7.434   7.272  17.603  0.00  0.00    +0.000 C 
ENDBRANCH  23  24
ENDBRANCH  21  23
ENDBRANCH  18  19
ENDBRANCH   4  18
TORSDOF 10
ENDMDL
