MODEL 1
REMARK VINA RESULT:      -7.4      0.000      0.000
REMARK  Name = 
REMARK  6 active torsions:
REMARK  status: ('A' for Active; 'I' for Inactive)
REMARK    1  A    between atoms: C_1  and  C_2
REMARK    2  A    between atoms: N_7  and  C_8
REMARK    3  A    between atoms: C_8  and  C_9
REMARK    4  A    between atoms: N_11  and  C_12
REMARK    5  A    between atoms: C_12  and  C_13
REMARK    6  A    between atoms: C_13  and  C_14
REMARK                            x       y       z     vdW  Elec       q    Type
REMARK                         _______ _______ _______ _____ _____    ______ ____
ROOT
ATOM      1  C   UNL     1       2.061   5.693  19.786  0.00  0.00    +0.000 C 
ATOM      2  O   UNL     1       1.873   4.939  20.758  0.00  0.00    +0.000 OA
ATOM      3  N   UNL     1       1.943   5.249  18.484  0.00  0.00    +0.000 N 
ATOM      4  H   UNL     1       1.830   5.954  17.760  0.00  0.00    +0.000 HD
ENDROOT
BRANCH   1   5
ATOM      5  C   UNL     1       2.470   7.172  19.955  0.00  0.00    +0.000 C 
BRANCH   5  12
ATOM      6  C   UNL     1       1.440   9.082  17.812  0.00  0.00    +0.000 C 
ATOM      7  C   UNL     1       1.304   9.291  19.328  0.00  0.00    +0.000 C 
ATOM      8  C   UNL     1      -0.018  10.058  19.562  0.00  0.00    +0.000 C 
ATOM      9  C   UNL     1      -0.202  10.424  21.027  0.00  0.00    +0.000 C 
ATOM     10  C   UNL     1      -0.069   9.188  21.900  0.00  0.00    +0.000 C 
ATOM     11  C   UNL     1       1.216   8.425  21.589  0.00  0.00    +0.000 C 
ATOM     12  N   UNL     1       1.289   8.051  20.155  0.00  0.00    +0.000 NA
ENDBRANCH   5  12
ENDBRANCH   1   5
BRANCH   3  13
ATOM     13  C   UNL     1       1.497   3.889  18.230  0.00  0.00    +0.000 C 
BRANCH  13  14
ATOM     14  C   UNL     1       2.535   3.023  17.521  0.00  0.00    +0.000 C 
BRANCH  14  15
ATOM     15  C   UNL     1       3.948   3.401  17.859  0.00  0.00    +0.000 A 
ATOM     16  C   UNL     1       4.590   3.232  19.075  0.00  0.00    +0.000 A 
ATOM     17  N   UNL     1       5.856   3.733  18.961  0.00  0.00    +0.000 N 
ATOM     18  C   UNL     1       6.070   4.222  17.697  0.00  0.00    +0.000 A 
ATOM     19  C   UNL     1       7.202   4.824  17.138  0.00  0.00    +0.000 A 
ATOM     20  C   UNL     1       7.128   5.235  15.804  0.00  0.00    +0.000 A 
ATOM     21  C   UNL     1       5.965   5.050  15.061  0.00  0.00    +0.000 A 
ATOM     22  C   UNL     1       4.841   4.446  15.635  0.00  0.00    +0.000 A 
ATOM     23  C   UNL     1       4.888   4.024  16.980  0.00  0.00    +0.000 A 
ATOM     24  H   UNL     1       6.547   3.753  19.706  0.00  0.00    +0.000 HD
ENDBRANCH  14  15
ENDBRANCH  13  14
ENDBRANCH   3  13
TORSDOF 5
ENDMDL
MODEL 2
REMARK VINA RESULT:      -7.0      5.383      7.397
REMARK  Name = 
REMARK  6 active torsions:
REMARK  status: ('A' for Active; 'I' for Inactive)
REMARK    1  A    between atoms: C_1  and  C_2
REMARK    2  A    between atoms: N_7  and  C_8
REMARK    3  A    between atoms: C_8  and  C_9
REMARK    4  A    between atoms: N_11  and  C_12
REMARK    5  A    between atoms: C_12  and  C_13
REMARK    6  A    between atoms: C_13  and  C_14
REMARK                            x       y       z     vdW  Elec       q    Type
REMARK                         _______ _______ _______ _____ _____    ______ ____
ROOT
ATOM      1  C   UNL     1       8.248   8.783  18.228  0.00  0.00    +0.000 C 
ATOM      2  O   UNL     1       8.895   8.061  19.009  0.00  0.00    +0.000 OA
ATOM      3  N   UNL     1       7.357   8.255  17.315  0.00  0.00    +0.000 N 
ATOM      4  H   UNL     1       6.670   8.890  16.916  0.00  0.00    +0.000 HD
ENDROOT
BRANCH   1   5
ATOM      5  C   UNL     1       8.412  10.318  18.196  0.00  0.00    +0.000 C 
BRANCH   5  12
ATOM      6  C   UNL     1       8.958  10.930  21.133  0.00  0.00    +0.000 C 
ATOM      7  C   UNL     1       9.693  11.563  19.943  0.00  0.00    +0.000 C 
ATOM      8  C   UNL     1      11.141  11.849  20.405  0.00  0.00    +0.000 C 
ATOM      9  C   UNL     1      11.935  12.587  19.337  0.00  0.00    +0.000 C 
ATOM     10  C   UNL     1      11.870  11.835  18.019  0.00  0.00    +0.000 C 
ATOM     11  C   UNL     1      10.428  11.513  17.634  0.00  0.00    +0.000 C 
ATOM     12  N   UNL     1       9.744  10.741  18.700  0.00  0.00    +0.000 NA
ENDBRANCH   5  12
ENDBRANCH   1   5
BRANCH   3  13
ATOM     13  C   UNL     1       7.091   6.826  17.320  0.00  0.00    +0.000 C 
BRANCH  13  14
ATOM     14  C   UNL     1       5.960   6.408  16.383  0.00  0.00    +0.000 C 
BRANCH  14  15
ATOM     15  C   UNL     1       4.630   6.308  17.071  0.00  0.00    +0.000 A 
ATOM     16  C   UNL     1       3.875   7.350  17.584  0.00  0.00    +0.000 A 
ATOM     17  N   UNL     1       2.747   6.822  18.148  0.00  0.00    +0.000 N 
ATOM     18  C   UNL     1       2.735   5.456  18.011  0.00  0.00    +0.000 A 
ATOM     19  C   UNL     1       1.793   4.513  18.434  0.00  0.00    +0.000 A 
ATOM     20  C   UNL     1       2.051   3.168  18.157  0.00  0.00    +0.000 A 
ATOM     21  C   UNL     1       3.207   2.784  17.482  0.00  0.00    +0.000 A 
ATOM     22  C   UNL     1       4.139   3.740  17.066  0.00  0.00    +0.000 A 
ATOM     23  C   UNL     1       3.905   5.104  17.335  0.00  0.00    +0.000 A 
ATOM     24  H   UNL     1       2.019   7.357  18.612  0.00  0.00    +0.000 HD
ENDBRANCH  14  15
ENDBRANCH  13  14
ENDBRANCH   3  13
TORSDOF 5
ENDMDL
MODEL 3
REMARK VINA RESULT:      -7.0      2.144      8.034
REMARK  Name = 
REMARK  6 active torsions:
REMARK  status: ('A' for Active; 'I' for Inactive)
REMARK    1  A    between atoms: C_1  and  C_2
REMARK    2  A    between atoms: N_7  and  C_8
REMARK    3  A    between atoms: C_8  and  C_9
REMARK    4  A    between atoms: N_11  and  C_12
REMARK    5  A    between atoms: C_12  and  C_13
REMARK    6  A    between atoms: C_13  and  C_14
REMARK                            x       y       z     vdW  Elec       q    Type
REMARK                         _______ _______ _______ _____ _____    ______ ____
ROOT
ATOM      1  C   UNL     1       2.598   7.246  18.465  0.00  0.00    +0.000 C 
ATOM      2  O   UNL     1       2.476   7.345  19.699  0.00  0.00    +0.000 OA
ATOM      3  N   UNL     1       2.231   8.268  17.611  0.00  0.00    +0.000 N 
ATOM      4  H   UNL     1       2.608   8.242  16.667  0.00  0.00    +0.000 HD
ENDROOT
BRANCH   1   5
ATOM      5  C   UNL     1       3.137   5.967  17.788  0.00  0.00    +0.000 C 
BRANCH   5  12
ATOM      6  C   UNL     1       5.229   4.281  19.230  0.00  0.00    +0.000 C 
ATOM      7  C   UNL     1       3.905   3.754  18.658  0.00  0.00    +0.000 C 
ATOM      8  C   UNL     1       3.450   2.589  19.567  0.00  0.00    +0.000 C 
ATOM      9  C   UNL     1       2.199   1.911  19.027  0.00  0.00    +0.000 C 
ATOM     10  C   UNL     1       1.106   2.938  18.785  0.00  0.00    +0.000 C 
ATOM     11  C   UNL     1       1.616   4.103  17.940  0.00  0.00    +0.000 C 
ATOM     12  N   UNL     1       2.797   4.748  18.566  0.00  0.00    +0.000 NA
ENDBRANCH   5  12
ENDBRANCH   1   5
BRANCH   3  13
ATOM     13  C   UNL     1       1.777   9.533  18.164  0.00  0.00    +0.000 C 
BRANCH  13  14
ATOM     14  C   UNL     1       0.285   9.789  17.967  0.00  0.00    +0.000 C 
BRANCH  14  15
ATOM     15  C   UNL     1      -0.303  10.686  19.018  0.00  0.00    +0.000 A 
ATOM     16  C   UNL     1      -0.811  11.962  18.838  0.00  0.00    +0.000 A 
ATOM     17  N   UNL     1      -1.221  12.433  20.053  0.00  0.00    +0.000 N 
ATOM     18  C   UNL     1      -1.004  11.495  21.032  0.00  0.00    +0.000 A 
ATOM     19  C   UNL     1      -1.261  11.544  22.406  0.00  0.00    +0.000 A 
ATOM     20  C   UNL     1      -0.926  10.423  23.170  0.00  0.00    +0.000 A 
ATOM     21  C   UNL     1      -0.355   9.298  22.580  0.00  0.00    +0.000 A 
ATOM     22  C   UNL     1      -0.104   9.265  21.204  0.00  0.00    +0.000 A 
ATOM     23  C   UNL     1      -0.430  10.384  20.410  0.00  0.00    +0.000 A 
ATOM     24  H   UNL     1      -1.623  13.351  20.220  0.00  0.00    +0.000 HD
ENDBRANCH  14  15
ENDBRANCH  13  14
ENDBRANCH   3  13
TORSDOF 5
ENDMDL
MODEL 4
REMARK VINA RESULT:      -7.0      6.609      9.105
REMARK  Name = 
REMARK  6 active torsions:
REMARK  status: ('A' for Active; 'I' for Inactive)
REMARK    1  A    between atoms: C_1  and  C_2
REMARK    2  A    between atoms: N_7  and  C_8
REMARK    3  A    between atoms: C_8  and  C_9
REMARK    4  A    between atoms: N_11  and  C_12
REMARK    5  A    between atoms: C_12  and  C_13
REMARK    6  A    between atoms: C_13  and  C_14
REMARK                            x       y       z     vdW  Elec       q    Type
REMARK                         _______ _______ _______ _____ _____    ______ ____
ROOT
ATOM      1  C   UNL     1       7.767   7.633  17.946  0.00  0.00    +0.000 C 
ATOM      2  O   UNL     1       7.227   8.180  16.967  0.00  0.00    +0.000 OA
ATOM      3  N   UNL     1       8.618   8.320  18.788  0.00  0.00    +0.000 N 
ATOM      4  H   UNL     1       8.796   7.912  19.703  0.00  0.00    +0.000 HD
ENDROOT
BRANCH   1   5
ATOM      5  C   UNL     1       7.555   6.140  18.277  0.00  0.00    +0.000 C 
BRANCH   5  12
ATOM      6  C   UNL     1       4.787   5.364  19.297  0.00  0.00    +0.000 C 
ATOM      7  C   UNL     1       5.533   4.678  18.144  0.00  0.00    +0.000 C 
ATOM      8  C   UNL     1       4.463   4.184  17.143  0.00  0.00    +0.000 C 
ATOM      9  C   UNL     1       5.083   3.381  16.009  0.00  0.00    +0.000 C 
ATOM     10  C   UNL     1       6.194   4.178  15.346  0.00  0.00    +0.000 C 
ATOM     11  C   UNL     1       7.191   4.703  16.377  0.00  0.00    +0.000 C 
ATOM     12  N   UNL     1       6.516   5.525  17.411  0.00  0.00    +0.000 NA
ENDBRANCH   5  12
ENDBRANCH   1   5
BRANCH   3  13
ATOM     13  C   UNL     1       8.823   9.745  18.591  0.00  0.00    +0.000 C 
BRANCH  13  14
ATOM     14  C   UNL     1       9.582  10.421  19.730  0.00  0.00    +0.000 C 
BRANCH  14  15
ATOM     15  C   UNL     1       9.604  11.917  19.618  0.00  0.00    +0.000 A 
ATOM     16  C   UNL     1       8.972  12.827  20.449  0.00  0.00    +0.000 A 
ATOM     17  N   UNL     1       9.228  14.084  19.979  0.00  0.00    +0.000 N 
ATOM     18  C   UNL     1      10.023  14.028  18.861  0.00  0.00    +0.000 A 
ATOM     19  C   UNL     1      10.525  15.055  18.055  0.00  0.00    +0.000 A 
ATOM     20  C   UNL     1      11.315  14.694  16.961  0.00  0.00    +0.000 A 
ATOM     21  C   UNL     1      11.591  13.357  16.686  0.00  0.00    +0.000 A 
ATOM     22  C   UNL     1      11.081  12.342  17.502  0.00  0.00    +0.000 A 
ATOM     23  C   UNL     1      10.278  12.678  18.612  0.00  0.00    +0.000 A 
ATOM     24  H   UNL     1       8.877  14.945  20.388  0.00  0.00    +0.000 HD
ENDBRANCH  14  15
ENDBRANCH  13  14
ENDBRANCH   3  13
TORSDOF 5
ENDMDL
MODEL 5
REMARK VINA RESULT:      -6.9      3.077      4.790
REMARK  Name = 
REMARK  6 active torsions:
REMARK  status: ('A' for Active; 'I' for Inactive)
REMARK    1  A    between atoms: C_1  and  C_2
REMARK    2  A    between atoms: N_7  and  C_8
REMARK    3  A    between atoms: C_8  and  C_9
REMARK    4  A    between atoms: N_11  and  C_12
REMARK    5  A    between atoms: C_12  and  C_13
REMARK    6  A    between atoms: C_13  and  C_14
REMARK                            x       y       z     vdW  Elec       q    Type
REMARK                         _______ _______ _______ _____ _____    ______ ____
ROOT
ATOM      1  C   UNL     1       4.707   5.958  18.543  0.00  0.00    +0.000 C 
ATOM      2  O   UNL     1       5.528   5.546  19.383  0.00  0.00    +0.000 OA
ATOM      3  N   UNL     1       5.099   6.677  17.432  0.00  0.00    +0.000 N 
ATOM      4  H   UNL     1       4.440   6.736  16.660  0.00  0.00    +0.000 HD
ENDROOT
BRANCH   1   5
ATOM      5  C   UNL     1       3.188   5.725  18.690  0.00  0.00    +0.000 C 
BRANCH   5  12
ATOM      6  C   UNL     1       2.397   3.107  17.340  0.00  0.00    +0.000 C 
ATOM      7  C   UNL     1       1.966   3.546  18.747  0.00  0.00    +0.000 C 
ATOM      8  C   UNL     1       1.822   2.263  19.598  0.00  0.00    +0.000 C 
ATOM      9  C   UNL     1       1.284   2.569  20.988  0.00  0.00    +0.000 C 
ATOM     10  C   UNL     1       2.133   3.636  21.659  0.00  0.00    +0.000 C 
ATOM     11  C   UNL     1       2.305   4.856  20.758  0.00  0.00    +0.000 C 
ATOM     12  N   UNL     1       2.892   4.482  19.447  0.00  0.00    +0.000 NA
ENDBRANCH   5  12
ENDBRANCH   1   5
BRANCH   3  13
ATOM     13  C   UNL     1       6.515   6.886  17.178  0.00  0.00    +0.000 C 
BRANCH  13  14
ATOM     14  C   UNL     1       7.302   5.593  16.983  0.00  0.00    +0.000 C 
BRANCH  14  15
ATOM     15  C   UNL     1       6.731   4.709  15.913  0.00  0.00    +0.000 A 
ATOM     16  C   UNL     1       5.843   3.659  16.082  0.00  0.00    +0.000 A 
ATOM     17  N   UNL     1       5.600   3.106  14.856  0.00  0.00    +0.000 N 
ATOM     18  C   UNL     1       6.298   3.770  13.879  0.00  0.00    +0.000 A 
ATOM     19  C   UNL     1       6.356   3.551  12.499  0.00  0.00    +0.000 A 
ATOM     20  C   UNL     1       7.170   4.396  11.741  0.00  0.00    +0.000 A 
ATOM     21  C   UNL     1       7.897   5.420  12.342  0.00  0.00    +0.000 A 
ATOM     22  C   UNL     1       7.829   5.626  13.724  0.00  0.00    +0.000 A 
ATOM     23  C   UNL     1       7.017   4.786  14.514  0.00  0.00    +0.000 A 
ATOM     24  H   UNL     1       4.994   2.308  14.684  0.00  0.00    +0.000 HD
ENDBRANCH  14  15
ENDBRANCH  13  14
ENDBRANCH   3  13
TORSDOF 5
ENDMDL
MODEL 6
REMARK VINA RESULT:      -6.9      7.110      9.556
REMARK  Name = 
REMARK  6 active torsions:
REMARK  status: ('A' for Active; 'I' for Inactive)
REMARK    1  A    between atoms: C_1  and  C_2
REMARK    2  A    between atoms: N_7  and  C_8
REMARK    3  A    between atoms: C_8  and  C_9
REMARK    4  A    between atoms: N_11  and  C_12
REMARK    5  A    between atoms: C_12  and  C_13
REMARK    6  A    between atoms: C_13  and  C_14
REMARK                            x       y       z     vdW  Elec       q    Type
REMARK                         _______ _______ _______ _____ _____    ______ ____
ROOT
ATOM      1  C   UNL     1       7.849   7.720  18.009  0.00  0.00    +0.000 C 
ATOM      2  O   UNL     1       7.324   8.259  17.017  0.00  0.00    +0.000 OA
ATOM      3  N   UNL     1       8.712   8.405  18.840  0.00  0.00    +0.000 N 
ATOM      4  H   UNL     1       8.878   8.013  19.764  0.00  0.00    +0.000 HD
ENDROOT
BRANCH   1   5
ATOM      5  C   UNL     1       7.602   6.239  18.372  0.00  0.00    +0.000 C 
BRANCH   5  12
ATOM      6  C   UNL     1       4.833   5.358  19.298  0.00  0.00    +0.000 C 
ATOM      7  C   UNL     1       5.633   4.717  18.154  0.00  0.00    +0.000 C 
ATOM      8  C   UNL     1       4.608   4.208  17.115  0.00  0.00    +0.000 C 
ATOM      9  C   UNL     1       5.285   3.446  15.985  0.00  0.00    +0.000 C 
ATOM     10  C   UNL     1       6.388   4.290  15.368  0.00  0.00    +0.000 C 
ATOM     11  C   UNL     1       7.338   4.827  16.436  0.00  0.00    +0.000 C 
ATOM     12  N   UNL     1       6.609   5.609  17.465  0.00  0.00    +0.000 NA
ENDBRANCH   5  12
ENDBRANCH   1   5
BRANCH   3  13
ATOM     13  C   UNL     1       8.950   9.821  18.613  0.00  0.00    +0.000 C 
BRANCH  13  14
ATOM     14  C   UNL     1       9.625  10.527  19.787  0.00  0.00    +0.000 C 
BRANCH  14  15
ATOM     15  C   UNL     1      10.632  11.554  19.357  0.00  0.00    +0.000 A 
ATOM     16  C   UNL     1      11.621  11.404  18.399  0.00  0.00    +0.000 A 
ATOM     17  N   UNL     1      12.333  12.568  18.335  0.00  0.00    +0.000 N 
ATOM     18  C   UNL     1      11.833  13.489  19.223  0.00  0.00    +0.000 A 
ATOM     19  C   UNL     1      12.245  14.796  19.500  0.00  0.00    +0.000 A 
ATOM     20  C   UNL     1      11.539  15.507  20.474  0.00  0.00    +0.000 A 
ATOM     21  C   UNL     1      10.462  14.929  21.144  0.00  0.00    +0.000 A 
ATOM     22  C   UNL     1      10.063  13.620  20.855  0.00  0.00    +0.000 A 
ATOM     23  C   UNL     1      10.760  12.879  19.878  0.00  0.00    +0.000 A 
ATOM     24  H   UNL     1      13.129  12.736  17.726  0.00  0.00    +0.000 HD
ENDBRANCH  14  15
ENDBRANCH  13  14
ENDBRANCH   3  13
TORSDOF 5
ENDMDL
MODEL 7
REMARK VINA RESULT:      -6.9      5.999      7.313
REMARK  Name = 
REMARK  6 active torsions:
REMARK  status: ('A' for Active; 'I' for Inactive)
REMARK    1  A    between atoms: C_1  and  C_2
REMARK    2  A    between atoms: N_7  and  C_8
REMARK    3  A    between atoms: C_8  and  C_9
REMARK    4  A    between atoms: N_11  and  C_12
REMARK    5  A    between atoms: C_12  and  C_13
REMARK    6  A    between atoms: C_13  and  C_14
REMARK                            x       y       z     vdW  Elec       q    Type
REMARK                         _______ _______ _______ _____ _____    ______ ____
ROOT
ATOM      1  C   UNL     1       8.762   9.730  18.669  0.00  0.00    +0.000 C 
ATOM      2  O   UNL     1       8.055  10.211  17.765  0.00  0.00    +0.000 OA
ATOM      3  N   UNL     1       8.759   8.381  18.960  0.00  0.00    +0.000 N 
ATOM      4  H   UNL     1       9.543   8.019  19.497  0.00  0.00    +0.000 HD
ENDROOT
BRANCH   1   5
ATOM      5  C   UNL     1       9.674  10.605  19.557  0.00  0.00    +0.000 C 
BRANCH   5  12
ATOM      6  C   UNL     1      11.244  12.223  17.502  0.00  0.00    +0.000 C 
ATOM      7  C   UNL     1      10.635  12.783  18.796  0.00  0.00    +0.000 C 
ATOM      8  C   UNL     1      10.231  14.247  18.510  0.00  0.00    +0.000 C 
ATOM      9  C   UNL     1       9.719  14.943  19.762  0.00  0.00    +0.000 C 
ATOM     10  C   UNL     1       8.602  14.132  20.396  0.00  0.00    +0.000 C 
ATOM     11  C   UNL     1       9.019  12.678  20.600  0.00  0.00    +0.000 C 
ATOM     12  N   UNL     1       9.445  12.054  19.323  0.00  0.00    +0.000 NA
ENDBRANCH   5  12
ENDBRANCH   1   5
BRANCH   3  13
ATOM     13  C   UNL     1       7.982   7.473  18.132  0.00  0.00    +0.000 C 
BRANCH  13  14
ATOM     14  C   UNL     1       7.737   6.111  18.775  0.00  0.00    +0.000 C 
BRANCH  14  15
ATOM     15  C   UNL     1       6.853   5.220  17.952  0.00  0.00    +0.000 A 
ATOM     16  C   UNL     1       7.220   4.469  16.847  0.00  0.00    +0.000 A 
ATOM     17  N   UNL     1       6.109   3.824  16.382  0.00  0.00    +0.000 N 
ATOM     18  C   UNL     1       5.017   4.125  17.157  0.00  0.00    +0.000 A 
ATOM     19  C   UNL     1       3.688   3.702  17.052  0.00  0.00    +0.000 A 
ATOM     20  C   UNL     1       2.776   4.183  17.995  0.00  0.00    +0.000 A 
ATOM     21  C   UNL     1       3.181   5.054  19.004  0.00  0.00    +0.000 A 
ATOM     22  C   UNL     1       4.514   5.467  19.096  0.00  0.00    +0.000 A 
ATOM     23  C   UNL     1       5.455   4.999  18.154  0.00  0.00    +0.000 A 
ATOM     24  H   UNL     1       6.083   3.213  15.570  0.00  0.00    +0.000 HD
ENDBRANCH  14  15
ENDBRANCH  13  14
ENDBRANCH   3  13
TORSDOF 5
ENDMDL
MODEL 8
REMARK VINA RESULT:      -6.9      6.097      7.682
REMARK  Name = 
REMARK  6 active torsions:
REMARK  status: ('A' for Active; 'I' for Inactive)
REMARK    1  A    between atoms: C_1  and  C_2
REMARK    2  A    between atoms: N_7  and  C_8
REMARK    3  A    between atoms: C_8  and  C_9
REMARK    4  A    between atoms: N_11  and  C_12
REMARK    5  A    between atoms: C_12  and  C_13
REMARK    6  A    between atoms: C_13  and  C_14
REMARK                            x       y       z     vdW  Elec       q    Type
REMARK                         _______ _______ _______ _____ _____    ______ ____
ROOT
ATOM      1  C   UNL     1       8.670   9.833  18.354  0.00  0.00    +0.000 C 
ATOM      2  O   UNL     1       9.074   9.373  19.437  0.00  0.00    +0.000 OA
ATOM      3  N   UNL     1       8.034   9.043  17.417  0.00  0.00    +0.000 N 
ATOM      4  H   UNL     1       7.491   9.518  16.701  0.00  0.00    +0.000 HD
ENDROOT
BRANCH   1   5
ATOM      5  C   UNL     1       8.874  11.312  17.957  0.00  0.00    +0.000 C 
BRANCH   5  12
ATOM      6  C   UNL     1       8.379  13.982  19.345  0.00  0.00    +0.000 C 
ATOM      7  C   UNL     1       9.749  13.460  18.887  0.00  0.00    +0.000 C 
ATOM      8  C   UNL     1      10.798  14.008  19.881  0.00  0.00    +0.000 C 
ATOM      9  C   UNL     1      12.215  13.648  19.457  0.00  0.00    +0.000 C 
ATOM     10  C   UNL     1      12.333  12.150  19.234  0.00  0.00    +0.000 C 
ATOM     11  C   UNL     1      11.238  11.640  18.301  0.00  0.00    +0.000 C 
ATOM     12  N   UNL     1       9.888  11.977  18.816  0.00  0.00    +0.000 NA
ENDBRANCH   5  12
ENDBRANCH   1   5
BRANCH   3  13
ATOM     13  C   UNL     1       7.740   7.655  17.733  0.00  0.00    +0.000 C 
BRANCH  13  14
ATOM     14  C   UNL     1       6.451   7.139  17.098  0.00  0.00    +0.000 C 
BRANCH  14  15
ATOM     15  C   UNL     1       5.937   5.886  17.743  0.00  0.00    +0.000 A 
ATOM     16  C   UNL     1       6.678   4.783  18.135  0.00  0.00    +0.000 A 
ATOM     17  N   UNL     1       5.820   3.855  18.653  0.00  0.00    +0.000 N 
ATOM     18  C   UNL     1       4.529   4.321  18.623  0.00  0.00    +0.000 A 
ATOM     19  C   UNL     1       3.338   3.718  19.039  0.00  0.00    +0.000 A 
ATOM     20  C   UNL     1       2.153   4.440  18.878  0.00  0.00    +0.000 A 
ATOM     21  C   UNL     1       2.162   5.717  18.321  0.00  0.00    +0.000 A 
ATOM     22  C   UNL     1       3.361   6.306  17.909  0.00  0.00    +0.000 A 
ATOM     23  C   UNL     1       4.572   5.598  18.058  0.00  0.00    +0.000 A 
ATOM     24  H   UNL     1       6.089   2.941  19.007  0.00  0.00    +0.000 HD
ENDBRANCH  14  15
ENDBRANCH  13  14
ENDBRANCH   3  13
TORSDOF 5
ENDMDL
MODEL 9
REMARK VINA RESULT:      -6.9      1.822      3.055
REMARK  Name = 
REMARK  6 active torsions:
REMARK  status: ('A' for Active; 'I' for Inactive)
REMARK    1  A    between atoms: C_1  and  C_2
REMARK    2  A    between atoms: N_7  and  C_8
REMARK    3  A    between atoms: C_8  and  C_9
REMARK    4  A    between atoms: N_11  and  C_12
REMARK    5  A    between atoms: C_12  and  C_13
REMARK    6  A    between atoms: C_13  and  C_14
REMARK                            x       y       z     vdW  Elec       q    Type
REMARK                         _______ _______ _______ _____ _____    ______ ____
ROOT
ATOM      1  C   UNL     1       2.667   4.801  19.476  0.00  0.00    +0.000 C 
ATOM      2  O   UNL     1       1.924   3.887  19.074  0.00  0.00    +0.000 OA
ATOM      3  N   UNL     1       4.005   4.853  19.141  0.00  0.00    +0.000 N 
ATOM      4  H   UNL     1       4.479   5.746  19.257  0.00  0.00    +0.000 HD
ENDROOT
BRANCH   1   5
ATOM      5  C   UNL     1       2.162   5.929  20.402  0.00  0.00    +0.000 C 
BRANCH   5  12
ATOM      6  C   UNL     1       1.111   8.487  21.687  0.00  0.00    +0.000 C 
ATOM      7  C   UNL     1       1.220   8.232  20.177  0.00  0.00    +0.000 C 
ATOM      8  C   UNL     1       1.508   9.595  19.506  0.00  0.00    +0.000 C 
ATOM      9  C   UNL     1       1.522   9.483  17.989  0.00  0.00    +0.000 C 
ATOM     10  C   UNL     1       2.482   8.390  17.550  0.00  0.00    +0.000 C 
ATOM     11  C   UNL     1       2.205   7.081  18.285  0.00  0.00    +0.000 C 
ATOM     12  N   UNL     1       2.271   7.262  19.756  0.00  0.00    +0.000 NA
ENDBRANCH   5  12
ENDBRANCH   1   5
BRANCH   3  13
ATOM     13  C   UNL     1       4.551   3.870  18.220  0.00  0.00    +0.000 C 
BRANCH  13  14
ATOM     14  C   UNL     1       4.299   4.198  16.750  0.00  0.00    +0.000 C 
BRANCH  14  15
ATOM     15  C   UNL     1       5.530   4.664  16.030  0.00  0.00    +0.000 A 
ATOM     16  C   UNL     1       6.539   5.468  16.535  0.00  0.00    +0.000 A 
ATOM     17  N   UNL     1       7.457   5.673  15.544  0.00  0.00    +0.000 N 
ATOM     18  C   UNL     1       7.084   5.016  14.398  0.00  0.00    +0.000 A 
ATOM     19  C   UNL     1       7.709   4.948  13.148  0.00  0.00    +0.000 A 
ATOM     20  C   UNL     1       7.085   4.197  12.149  0.00  0.00    +0.000 A 
ATOM     21  C   UNL     1       5.882   3.538  12.394  0.00  0.00    +0.000 A 
ATOM     22  C   UNL     1       5.270   3.616  13.649  0.00  0.00    +0.000 A 
ATOM     23  C   UNL     1       5.877   4.370  14.674  0.00  0.00    +0.000 A 
ATOM     24  H   UNL     1       8.298   6.237  15.631  0.00  0.00    +0.000 HD
ENDBRANCH  14  15
ENDBRANCH  13  14
ENDBRANCH   3  13
TORSDOF 5
ENDMDL
