MODEL 1
REMARK VINA RESULT:      -7.0      0.000      0.000
REMARK  Name = 
REMARK  9 active torsions:
REMARK  status: ('A' for Active; 'I' for Inactive)
REMARK    1  A    between atoms: C_1  and  O_2
REMARK    2  A    between atoms: O_2  and  C_3
REMARK    3  A    between atoms: C_8  and  N_9
REMARK    4  A    between atoms: N_12  and  C_13
REMARK    5  A    between atoms: N_15  and  C_16
REMARK    6  A    between atoms: C_18  and  O_19
REMARK    7  A    between atoms: O_19  and  C_20
REMARK    8  A    between atoms: CA_22  and  C_23
REMARK    9  A    between atoms: C_23  and  O_24
REMARK                            x       y       z     vdW  Elec       q    Type
REMARK                         _______ _______ _______ _____ _____    ______ ____
ROOT
ATOM      1  C   UNL     1       5.010   4.187  16.337  0.00  0.00    +0.000 A 
ATOM      2  N   UNL     1       5.197   4.517  15.058  0.00  0.00    +0.000 NA
ATOM      3  N   UNL     1       6.108   5.504  15.129  0.00  0.00    +0.000 N 
ATOM      4  C   UNL     1       6.509   5.813  16.402  0.00  0.00    +0.000 A 
ATOM      5  C   UNL     1       7.456   6.722  16.896  0.00  0.00    +0.000 A 
ATOM      6  C   UNL     1       7.584   6.746  18.276  0.00  0.00    +0.000 A 
ATOM      7  N   UNL     1       6.832   5.978  19.081  0.00  0.00    +0.000 NA
ATOM      8  CA  UNL     1       5.917   5.083  18.612  0.00  0.00    +0.000 A 
ATOM      9  C   UNL     1       5.757   4.980  17.230  0.00  0.00    +0.000 A 
ATOM     10  H   UNL     1       6.429   5.917  14.260  0.00  0.00    +0.000 HD
ENDROOT
BRANCH   6  11
ATOM     11  N   UNL     1       8.540   7.586  18.878  0.00  0.00    +0.000 N 
ATOM     12  C   UNL     1       8.531   8.949  18.675  0.00  0.00    +0.000 C 
ATOM     13  O   UNL     1       7.741   9.568  17.975  0.00  0.00    +0.000 OA
ATOM     14  N   UNL     1       9.522   9.612  19.372  0.00  0.00    +0.000 N 
ATOM     15  H   UNL     1       9.176   7.193  19.550  0.00  0.00    +0.000 HD
ATOM     16  H   UNL     1      10.360   9.096  19.590  0.00  0.00    +0.000 HD
BRANCH  14  17
ATOM     17  C   UNL     1       9.660  11.073  19.218  0.00  0.00    +0.000 C 
ATOM     18  C   UNL     1      10.214  11.517  17.843  0.00  0.00    +0.000 C 
ATOM     19  N   UNL     1      11.035  12.697  18.138  0.00  0.00    +0.000 NA
ATOM     20  C   UNL     1      11.983  13.002  17.076  0.00  0.00    +0.000 C 
ATOM     21  C   UNL     1      11.720  12.355  19.395  0.00  0.00    +0.000 C 
ATOM     22  C   UNL     1      10.612  11.727  20.255  0.00  0.00    +0.000 C 
BRANCH  22  23
ATOM     23  O   UNL     1       9.985  12.774  21.017  0.00  0.00    +0.000 OA
ATOM     24  C   UNL     1       8.633  12.524  21.349  0.00  0.00    +0.000 C 
ENDBRANCH  22  23
ENDBRANCH  14  17
ENDBRANCH   6  11
BRANCH   1  26
ATOM     25  C   UNL     1       2.851   3.616  16.959  0.00  0.00    +0.000 C 
ATOM     26  O   UNL     1       4.177   3.179  16.676  0.00  0.00    +0.000 OA
ENDBRANCH   1  26
BRANCH   8  27
ATOM     27  C   UNL     1       5.178   4.298  19.664  0.00  0.00    +0.000 C 
BRANCH  27  28
ATOM     28  O   UNL     1       5.318   2.888  19.443  0.00  0.00    +0.000 OA
ATOM     29  H   UNL     1       5.926   2.567  20.154  0.00  0.00    +0.000 HD
ENDBRANCH  27  28
ENDBRANCH   8  27
TORSDOF 6
ENDMDL
MODEL 2
REMARK VINA RESULT:      -6.9      2.293      9.341
REMARK  Name = 
REMARK  9 active torsions:
REMARK  status: ('A' for Active; 'I' for Inactive)
REMARK    1  A    between atoms: C_1  and  O_2
REMARK    2  A    between atoms: O_2  and  C_3
REMARK    3  A    between atoms: C_8  and  N_9
REMARK    4  A    between atoms: N_12  and  C_13
REMARK    5  A    between atoms: N_15  and  C_16
REMARK    6  A    between atoms: C_18  and  O_19
REMARK    7  A    between atoms: O_19  and  C_20
REMARK    8  A    between atoms: CA_22  and  C_23
REMARK    9  A    between atoms: C_23  and  O_24
REMARK                            x       y       z     vdW  Elec       q    Type
REMARK                         _______ _______ _______ _____ _____    ______ ____
ROOT
ATOM      1  C   UNL     1      10.782  14.259  20.228  0.00  0.00    +0.000 A 
ATOM      2  N   UNL     1      10.373  14.422  21.487  0.00  0.00    +0.000 NA
ATOM      3  N   UNL     1       9.751  13.260  21.758  0.00  0.00    +0.000 N 
ATOM      4  C   UNL     1       9.751  12.364  20.722  0.00  0.00    +0.000 A 
ATOM      5  C   UNL     1       9.267  11.053  20.612  0.00  0.00    +0.000 A 
ATOM      6  C   UNL     1       9.458  10.457  19.375  0.00  0.00    +0.000 A 
ATOM      7  N   UNL     1      10.035  11.102  18.349  0.00  0.00    +0.000 NA
ATOM      8  CA  UNL     1      10.520  12.372  18.447  0.00  0.00    +0.000 A 
ATOM      9  C   UNL     1      10.392  13.024  19.673  0.00  0.00    +0.000 A 
ATOM     10  H   UNL     1       9.360  13.136  22.686  0.00  0.00    +0.000 HD
ENDROOT
BRANCH   6  11
ATOM     11  N   UNL     1       9.055   9.124  19.168  0.00  0.00    +0.000 N 
ATOM     12  C   UNL     1       8.144   8.791  18.189  0.00  0.00    +0.000 C 
ATOM     13  O   UNL     1       7.591   9.569  17.424  0.00  0.00    +0.000 OA
ATOM     14  N   UNL     1       7.897   7.435  18.112  0.00  0.00    +0.000 N 
ATOM     15  H   UNL     1       9.520   8.392  19.677  0.00  0.00    +0.000 HD
ATOM     16  H   UNL     1       8.021   6.892  18.953  0.00  0.00    +0.000 HD
BRANCH  14  17
ATOM     17  C   UNL     1       6.909   6.934  17.136  0.00  0.00    +0.000 C 
ATOM     18  C   UNL     1       5.471   6.815  17.693  0.00  0.00    +0.000 C 
ATOM     19  N   UNL     1       4.912   5.632  17.028  0.00  0.00    +0.000 NA
ATOM     20  C   UNL     1       3.751   5.093  17.720  0.00  0.00    +0.000 C 
ATOM     21  C   UNL     1       6.027   4.671  17.006  0.00  0.00    +0.000 C 
ATOM     22  C   UNL     1       7.234   5.522  16.582  0.00  0.00    +0.000 C 
BRANCH  22  23
ATOM     23  O   UNL     1       7.327   5.486  15.146  0.00  0.00    +0.000 OA
ATOM     24  C   UNL     1       6.765   4.330  14.554  0.00  0.00    +0.000 C 
ENDBRANCH  22  23
ENDBRANCH  14  17
ENDBRANCH   6  11
BRANCH   1  26
ATOM     25  C   UNL     1      12.012  16.205  20.496  0.00  0.00    +0.000 C 
ATOM     26  O   UNL     1      11.500  15.218  19.605  0.00  0.00    +0.000 OA
ENDBRANCH   1  26
BRANCH   8  27
ATOM     27  C   UNL     1      11.148  12.927  17.195  0.00  0.00    +0.000 C 
BRANCH  27  28
ATOM     28  O   UNL     1      10.570  14.192  16.850  0.00  0.00    +0.000 OA
ATOM     29  H   UNL     1       9.961  14.008  16.092  0.00  0.00    +0.000 HD
ENDBRANCH  27  28
ENDBRANCH   8  27
TORSDOF 6
ENDMDL
MODEL 3
REMARK VINA RESULT:      -6.8      6.260      7.716
REMARK  Name = 
REMARK  9 active torsions:
REMARK  status: ('A' for Active; 'I' for Inactive)
REMARK    1  A    between atoms: C_1  and  O_2
REMARK    2  A    between atoms: O_2  and  C_3
REMARK    3  A    between atoms: C_8  and  N_9
REMARK    4  A    between atoms: N_12  and  C_13
REMARK    5  A    between atoms: N_15  and  C_16
REMARK    6  A    between atoms: C_18  and  O_19
REMARK    7  A    between atoms: O_19  and  C_20
REMARK    8  A    between atoms: CA_22  and  C_23
REMARK    9  A    between atoms: C_23  and  O_24
REMARK                            x       y       z     vdW  Elec       q    Type
REMARK                         _______ _______ _______ _____ _____    ______ ____
ROOT
ATOM      1  C   UNL     1       4.217   3.519  19.045  0.00  0.00    +0.000 A 
ATOM      2  N   UNL     1       5.092   3.919  18.121  0.00  0.00    +0.000 NA
ATOM      3  N   UNL     1       4.817   5.229  17.988  0.00  0.00    +0.000 N 
ATOM      4  C   UNL     1       3.803   5.678  18.794  0.00  0.00    +0.000 A 
ATOM      5  C   UNL     1       3.255   6.953  18.994  0.00  0.00    +0.000 A 
ATOM      6  C   UNL     1       2.218   7.010  19.913  0.00  0.00    +0.000 A 
ATOM      7  N   UNL     1       1.753   5.917  20.539  0.00  0.00    +0.000 NA
ATOM      8  CA  UNL     1       2.286   4.675  20.362  0.00  0.00    +0.000 A 
ATOM      9  C   UNL     1       3.355   4.547  19.475  0.00  0.00    +0.000 A 
ATOM     10  H   UNL     1       5.377   5.769  17.337  0.00  0.00    +0.000 HD
ENDROOT
BRANCH   6  11
ATOM     11  N   UNL     1       1.627   8.248  20.228  0.00  0.00    +0.000 N 
ATOM     12  C   UNL     1       1.226   9.126  19.245  0.00  0.00    +0.000 C 
ATOM     13  O   UNL     1       1.337   8.956  18.038  0.00  0.00    +0.000 OA
ATOM     14  N   UNL     1       0.637  10.271  19.742  0.00  0.00    +0.000 N 
ATOM     15  H   UNL     1       1.399   8.446  21.187  0.00  0.00    +0.000 HD
ATOM     16  H   UNL     1       0.911  10.571  20.666  0.00  0.00    +0.000 HD
BRANCH  14  17
ATOM     17  C   UNL     1       0.196  11.323  18.806  0.00  0.00    +0.000 C 
ATOM     18  C   UNL     1       0.875  12.695  19.026  0.00  0.00    +0.000 C 
ATOM     19  N   UNL     1      -0.165  13.680  18.708  0.00  0.00    +0.000 NA
ATOM     20  C   UNL     1       0.117  14.996  19.261  0.00  0.00    +0.000 C 
ATOM     21  C   UNL     1      -1.394  13.103  19.277  0.00  0.00    +0.000 C 
ATOM     22  C   UNL     1      -1.325  11.623  18.869  0.00  0.00    +0.000 C 
BRANCH  22  23
ATOM     23  O   UNL     1      -1.985  11.476  17.598  0.00  0.00    +0.000 OA
ATOM     24  C   UNL     1      -2.034  10.146  17.118  0.00  0.00    +0.000 C 
ENDBRANCH  22  23
ENDBRANCH  14  17
ENDBRANCH   6  11
BRANCH   1  26
ATOM     25  C   UNL     1       3.568   1.340  18.592  0.00  0.00    +0.000 C 
ATOM     26  O   UNL     1       4.214   2.242  19.486  0.00  0.00    +0.000 OA
ENDBRANCH   1  26
BRANCH   8  27
ATOM     27  C   UNL     1       1.643   3.572  21.161  0.00  0.00    +0.000 C 
BRANCH  27  28
ATOM     28  O   UNL     1       2.591   2.961  22.046  0.00  0.00    +0.000 OA
ATOM     29  H   UNL     1       2.066   2.652  22.826  0.00  0.00    +0.000 HD
ENDBRANCH  27  28
ENDBRANCH   8  27
TORSDOF 6
ENDMDL
MODEL 4
REMARK VINA RESULT:      -6.8      1.892      8.775
REMARK  Name = 
REMARK  9 active torsions:
REMARK  status: ('A' for Active; 'I' for Inactive)
REMARK    1  A    between atoms: C_1  and  O_2
REMARK    2  A    between atoms: O_2  and  C_3
REMARK    3  A    between atoms: C_8  and  N_9
REMARK    4  A    between atoms: N_12  and  C_13
REMARK    5  A    between atoms: N_15  and  C_16
REMARK    6  A    between atoms: C_18  and  O_19
REMARK    7  A    between atoms: O_19  and  C_20
REMARK    8  A    between atoms: CA_22  and  C_23
REMARK    9  A    between atoms: C_23  and  O_24
REMARK                            x       y       z     vdW  Elec       q    Type
REMARK                         _______ _______ _______ _____ _____    ______ ____
ROOT
ATOM      1  C   UNL     1      10.187  14.365  18.826  0.00  0.00    +0.000 A 
ATOM      2  N   UNL     1      10.519  14.486  17.541  0.00  0.00    +0.000 NA
ATOM      3  N   UNL     1      10.400  13.229  17.076  0.00  0.00    +0.000 N 
ATOM      4  C   UNL     1      10.002  12.315  18.016  0.00  0.00    +0.000 A 
ATOM      5  C   UNL     1       9.717  10.944  17.933  0.00  0.00    +0.000 A 
ATOM      6  C   UNL     1       9.335  10.350  19.125  0.00  0.00    +0.000 A 
ATOM      7  N   UNL     1       9.275  11.032  20.281  0.00  0.00    +0.000 NA
ATOM      8  CA  UNL     1       9.538  12.366  20.371  0.00  0.00    +0.000 A 
ATOM      9  C   UNL     1       9.898  13.038  19.203  0.00  0.00    +0.000 A 
ATOM     10  H   UNL     1      10.590  13.066  16.093  0.00  0.00    +0.000 HD
ENDROOT
BRANCH   6  11
ATOM     11  N   UNL     1       8.978   8.988  19.149  0.00  0.00    +0.000 N 
ATOM     12  C   UNL     1       8.190   8.434  18.164  0.00  0.00    +0.000 C 
ATOM     13  O   UNL     1       7.717   9.023  17.202  0.00  0.00    +0.000 OA
ATOM     14  N   UNL     1       7.973   7.080  18.336  0.00  0.00    +0.000 N 
ATOM     15  H   UNL     1       9.394   8.390  19.842  0.00  0.00    +0.000 HD
ATOM     16  H   UNL     1       8.009   6.721  19.278  0.00  0.00    +0.000 HD
BRANCH  14  17
ATOM     17  C   UNL     1       7.111   6.359  17.380  0.00  0.00    +0.000 C 
ATOM     18  C   UNL     1       5.596   6.586  17.596  0.00  0.00    +0.000 C 
ATOM     19  N   UNL     1       4.976   5.301  17.249  0.00  0.00    +0.000 NA
ATOM     20  C   UNL     1       3.634   5.159  17.792  0.00  0.00    +0.000 C 
ATOM     21  C   UNL     1       5.896   4.295  17.804  0.00  0.00    +0.000 C 
ATOM     22  C   UNL     1       7.287   4.818  17.414  0.00  0.00    +0.000 C 
BRANCH  22  23
ATOM     23  O   UNL     1       7.635   4.260  16.133  0.00  0.00    +0.000 OA
ATOM     24  C   UNL     1       7.267   5.063  15.028  0.00  0.00    +0.000 C 
ENDBRANCH  22  23
ENDBRANCH  14  17
ENDBRANCH   6  11
BRANCH   1  26
ATOM     25  C   UNL     1       9.000  16.268  19.413  0.00  0.00    +0.000 C 
ATOM     26  O   UNL     1      10.144  15.447  19.634  0.00  0.00    +0.000 OA
ENDBRANCH   1  26
BRANCH   8  27
ATOM     27  C   UNL     1       9.404  12.963  21.747  0.00  0.00    +0.000 C 
BRANCH  27  28
ATOM     28  O   UNL     1       9.182  11.942  22.729  0.00  0.00    +0.000 OA
ATOM     29  H   UNL     1      10.058  11.799  23.166  0.00  0.00    +0.000 HD
ENDBRANCH  27  28
ENDBRANCH   8  27
TORSDOF 6
ENDMDL
MODEL 5
REMARK VINA RESULT:      -6.7      7.132      9.677
REMARK  Name = 
REMARK  9 active torsions:
REMARK  status: ('A' for Active; 'I' for Inactive)
REMARK    1  A    between atoms: C_1  and  O_2
REMARK    2  A    between atoms: O_2  and  C_3
REMARK    3  A    between atoms: C_8  and  N_9
REMARK    4  A    between atoms: N_12  and  C_13
REMARK    5  A    between atoms: N_15  and  C_16
REMARK    6  A    between atoms: C_18  and  O_19
REMARK    7  A    between atoms: O_19  and  C_20
REMARK    8  A    between atoms: CA_22  and  C_23
REMARK    9  A    between atoms: C_23  and  O_24
REMARK                            x       y       z     vdW  Elec       q    Type
REMARK                         _______ _______ _______ _____ _____    ______ ____
ROOT
ATOM      1  C   UNL     1      -1.980  11.988  20.363  0.00  0.00    +0.000 A 
ATOM      2  N   UNL     1      -1.437  12.233  21.556  0.00  0.00    +0.000 NA
ATOM      3  N   UNL     1      -0.252  11.601  21.488  0.00  0.00    +0.000 N 
ATOM      4  C   UNL     1      -0.019  10.966  20.295  0.00  0.00    +0.000 A 
ATOM      5  C   UNL     1       1.087  10.253  19.810  0.00  0.00    +0.000 A 
ATOM      6  C   UNL     1       0.944   9.749  18.527  0.00  0.00    +0.000 A 
ATOM      7  N   UNL     1      -0.185   9.905  17.815  0.00  0.00    +0.000 NA
ATOM      8  CA  UNL     1      -1.261  10.606  18.272  0.00  0.00    +0.000 A 
ATOM      9  C   UNL     1      -1.177  11.170  19.545  0.00  0.00    +0.000 A 
ATOM     10  H   UNL     1       0.364  11.658  22.291  0.00  0.00    +0.000 HD
ENDROOT
BRANCH   6  11
ATOM     11  N   UNL     1       2.010   9.059  17.920  0.00  0.00    +0.000 N 
ATOM     12  C   UNL     1       2.482   7.870  18.431  0.00  0.00    +0.000 C 
ATOM     13  O   UNL     1       2.065   7.298  19.429  0.00  0.00    +0.000 OA
ATOM     14  N   UNL     1       3.508   7.323  17.685  0.00  0.00    +0.000 N 
ATOM     15  H   UNL     1       2.363   9.391  17.039  0.00  0.00    +0.000 HD
ATOM     16  H   UNL     1       4.083   7.958  17.153  0.00  0.00    +0.000 HD
BRANCH  14  17
ATOM     17  C   UNL     1       4.141   6.069  18.137  0.00  0.00    +0.000 C 
ATOM     18  C   UNL     1       5.680   6.044  17.982  0.00  0.00    +0.000 C 
ATOM     19  N   UNL     1       5.996   4.652  17.642  0.00  0.00    +0.000 NA
ATOM     20  C   UNL     1       7.310   4.506  17.033  0.00  0.00    +0.000 C 
ATOM     21  C   UNL     1       4.922   4.254  16.718  0.00  0.00    +0.000 C 
ATOM     22  C   UNL     1       3.650   4.808  17.378  0.00  0.00    +0.000 C 
BRANCH  22  23
ATOM     23  O   UNL     1       3.117   3.795  18.250  0.00  0.00    +0.000 OA
ATOM     24  C   UNL     1       1.721   3.596  18.128  0.00  0.00    +0.000 C 
ENDBRANCH  22  23
ENDBRANCH  14  17
ENDBRANCH   6  11
BRANCH   1  26
ATOM     25  C   UNL     1      -3.525  13.662  20.793  0.00  0.00    +0.000 C 
ATOM     26  O   UNL     1      -3.182  12.508  20.031  0.00  0.00    +0.000 OA
ENDBRANCH   1  26
BRANCH   8  27
ATOM     27  C   UNL     1      -2.432  10.687  17.328  0.00  0.00    +0.000 C 
BRANCH  27  28
ATOM     28  O   UNL     1      -2.202  11.671  16.311  0.00  0.00    +0.000 OA
ATOM     29  H   UNL     1      -1.245  11.587  16.072  0.00  0.00    +0.000 HD
ENDBRANCH  27  28
ENDBRANCH   8  27
TORSDOF 6
ENDMDL
MODEL 6
REMARK VINA RESULT:      -6.7      6.021      7.502
REMARK  Name = 
REMARK  9 active torsions:
REMARK  status: ('A' for Active; 'I' for Inactive)
REMARK    1  A    between atoms: C_1  and  O_2
REMARK    2  A    between atoms: O_2  and  C_3
REMARK    3  A    between atoms: C_8  and  N_9
REMARK    4  A    between atoms: N_12  and  C_13
REMARK    5  A    between atoms: N_15  and  C_16
REMARK    6  A    between atoms: C_18  and  O_19
REMARK    7  A    between atoms: O_19  and  C_20
REMARK    8  A    between atoms: CA_22  and  C_23
REMARK    9  A    between atoms: C_23  and  O_24
REMARK                            x       y       z     vdW  Elec       q    Type
REMARK                         _______ _______ _______ _____ _____    ______ ____
ROOT
ATOM      1  C   UNL     1       4.353   3.369  19.290  0.00  0.00    +0.000 A 
ATOM      2  N   UNL     1       5.651   3.668  19.325  0.00  0.00    +0.000 NA
ATOM      3  N   UNL     1       5.678   4.956  18.936  0.00  0.00    +0.000 N 
ATOM      4  C   UNL     1       4.446   5.488  18.658  0.00  0.00    +0.000 A 
ATOM      5  C   UNL     1       4.041   6.776  18.281  0.00  0.00    +0.000 A 
ATOM      6  C   UNL     1       2.677   6.930  18.087  0.00  0.00    +0.000 A 
ATOM      7  N   UNL     1       1.813   5.910  18.220  0.00  0.00    +0.000 NA
ATOM      8  CA  UNL     1       2.193   4.657  18.598  0.00  0.00    +0.000 A 
ATOM      9  C   UNL     1       3.548   4.436  18.842  0.00  0.00    +0.000 A 
ATOM     10  H   UNL     1       6.578   5.422  18.899  0.00  0.00    +0.000 HD
ENDROOT
BRANCH   6  11
ATOM     11  N   UNL     1       2.153   8.193  17.754  0.00  0.00    +0.000 N 
ATOM     12  C   UNL     1       1.586   9.012  18.706  0.00  0.00    +0.000 C 
ATOM     13  O   UNL     1       1.462   8.755  19.895  0.00  0.00    +0.000 OA
ATOM     14  N   UNL     1       1.158  10.224  18.200  0.00  0.00    +0.000 N 
ATOM     15  H   UNL     1       2.291   8.545  16.821  0.00  0.00    +0.000 HD
ATOM     16  H   UNL     1       0.899  10.254  17.226  0.00  0.00    +0.000 HD
BRANCH  14  17
ATOM     17  C   UNL     1       0.492  11.187  19.097  0.00  0.00    +0.000 C 
ATOM     18  C   UNL     1      -1.002  10.881  19.359  0.00  0.00    +0.000 C 
ATOM     19  N   UNL     1      -1.637  12.200  19.470  0.00  0.00    +0.000 NA
ATOM     20  C   UNL     1      -3.078  12.149  19.279  0.00  0.00    +0.000 C 
ATOM     21  C   UNL     1      -0.979  13.005  18.428  0.00  0.00    +0.000 C 
ATOM     22  C   UNL     1       0.508  12.648  18.575  0.00  0.00    +0.000 C 
BRANCH  22  23
ATOM     23  O   UNL     1       1.104  13.574  19.502  0.00  0.00    +0.000 OA
ATOM     24  C   UNL     1       1.854  12.963  20.534  0.00  0.00    +0.000 C 
ENDBRANCH  22  23
ENDBRANCH  14  17
ENDBRANCH   6  11
BRANCH   1  26
ATOM     25  C   UNL     1       3.713   1.261  18.569  0.00  0.00    +0.000 C 
ATOM     26  O   UNL     1       3.914   2.148  19.666  0.00  0.00    +0.000 OA
ENDBRANCH   1  26
BRANCH   8  27
ATOM     27  C   UNL     1       1.082   3.646  18.708  0.00  0.00    +0.000 C 
BRANCH  27  28
ATOM     28  O   UNL     1       0.872   3.264  20.075  0.00  0.00    +0.000 OA
ATOM     29  H   UNL     1       0.506   2.346  20.040  0.00  0.00    +0.000 HD
ENDBRANCH  27  28
ENDBRANCH   8  27
TORSDOF 6
ENDMDL
MODEL 7
REMARK VINA RESULT:      -6.6      5.850      7.027
REMARK  Name = 
REMARK  9 active torsions:
REMARK  status: ('A' for Active; 'I' for Inactive)
REMARK    1  A    between atoms: C_1  and  O_2
REMARK    2  A    between atoms: O_2  and  C_3
REMARK    3  A    between atoms: C_8  and  N_9
REMARK    4  A    between atoms: N_12  and  C_13
REMARK    5  A    between atoms: N_15  and  C_16
REMARK    6  A    between atoms: C_18  and  O_19
REMARK    7  A    between atoms: O_19  and  C_20
REMARK    8  A    between atoms: CA_22  and  C_23
REMARK    9  A    between atoms: C_23  and  O_24
REMARK                            x       y       z     vdW  Elec       q    Type
REMARK                         _______ _______ _______ _____ _____    ______ ____
ROOT
ATOM      1  C   UNL     1       4.715   3.783  18.842  0.00  0.00    +0.000 A 
ATOM      2  N   UNL     1       5.995   4.155  18.885  0.00  0.00    +0.000 NA
ATOM      3  N   UNL     1       5.942   5.462  18.569  0.00  0.00    +0.000 N 
ATOM      4  C   UNL     1       4.679   5.935  18.330  0.00  0.00    +0.000 A 
ATOM      5  C   UNL     1       4.196   7.216  18.028  0.00  0.00    +0.000 A 
ATOM      6  C   UNL     1       2.823   7.301  17.852  0.00  0.00    +0.000 A 
ATOM      7  N   UNL     1       2.021   6.226  17.933  0.00  0.00    +0.000 NA
ATOM      8  CA  UNL     1       2.478   4.979  18.237  0.00  0.00    +0.000 A 
ATOM      9  C   UNL     1       3.846   4.823  18.460  0.00  0.00    +0.000 A 
ATOM     10  H   UNL     1       6.813   5.981  18.552  0.00  0.00    +0.000 HD
ENDROOT
BRANCH   6  11
ATOM     11  N   UNL     1       2.224   8.548  17.594  0.00  0.00    +0.000 N 
ATOM     12  C   UNL     1       1.607   9.270  18.591  0.00  0.00    +0.000 C 
ATOM     13  O   UNL     1       1.497   8.934  19.763  0.00  0.00    +0.000 OA
ATOM     14  N   UNL     1       1.106  10.483  18.158  0.00  0.00    +0.000 N 
ATOM     15  H   UNL     1       2.341   8.963  16.686  0.00  0.00    +0.000 HD
ATOM     16  H   UNL     1       0.846  10.557  17.187  0.00  0.00    +0.000 HD
BRANCH  14  17
ATOM     17  C   UNL     1       0.381  11.347  19.110  0.00  0.00    +0.000 C 
ATOM     18  C   UNL     1      -0.293  12.579  18.460  0.00  0.00    +0.000 C 
ATOM     19  N   UNL     1      -0.179  13.638  19.469  0.00  0.00    +0.000 NA
ATOM     20  C   UNL     1      -0.349  14.970  18.908  0.00  0.00    +0.000 C 
ATOM     21  C   UNL     1       1.168  13.455  20.035  0.00  0.00    +0.000 C 
ATOM     22  C   UNL     1       1.276  11.935  20.233  0.00  0.00    +0.000 C 
BRANCH  22  23
ATOM     23  O   UNL     1       0.804  11.619  21.555  0.00  0.00    +0.000 OA
ATOM     24  C   UNL     1      -0.401  10.877  21.583  0.00  0.00    +0.000 C 
ENDBRANCH  22  23
ENDBRANCH  14  17
ENDBRANCH   6  11
BRANCH   1  26
ATOM     25  C   UNL     1       4.025   2.349  20.528  0.00  0.00    +0.000 C 
ATOM     26  O   UNL     1       4.352   2.519  19.151  0.00  0.00    +0.000 OA
ENDBRANCH   1  26
BRANCH   8  27
ATOM     27  C   UNL     1       1.429   3.900  18.298  0.00  0.00    +0.000 C 
BRANCH  27  28
ATOM     28  O   UNL     1       1.823   2.759  17.524  0.00  0.00    +0.000 OA
ATOM     29  H   UNL     1       1.304   1.999  17.887  0.00  0.00    +0.000 HD
ENDBRANCH  27  28
ENDBRANCH   8  27
TORSDOF 6
ENDMDL
MODEL 8
REMARK VINA RESULT:      -6.6      6.922      9.970
REMARK  Name = 
REMARK  9 active torsions:
REMARK  status: ('A' for Active; 'I' for Inactive)
REMARK    1  A    between atoms: C_1  and  O_2
REMARK    2  A    between atoms: O_2  and  C_3
REMARK    3  A    between atoms: C_8  and  N_9
REMARK    4  A    between atoms: N_12  and  C_13
REMARK    5  A    between atoms: N_15  and  C_16
REMARK    6  A    between atoms: C_18  and  O_19
REMARK    7  A    between atoms: O_19  and  C_20
REMARK    8  A    between atoms: CA_22  and  C_23
REMARK    9  A    between atoms: C_23  and  O_24
REMARK                            x       y       z     vdW  Elec       q    Type
REMARK                         _______ _______ _______ _____ _____    ______ ____
ROOT
ATOM      1  C   UNL     1      -1.049  12.610  21.987  0.00  0.00    +0.000 A 
ATOM      2  N   UNL     1      -1.836  12.337  23.028  0.00  0.00    +0.000 NA
ATOM      3  N   UNL     1      -1.555  11.048  23.292  0.00  0.00    +0.000 N 
ATOM      4  C   UNL     1      -0.618  10.492  22.461  0.00  0.00    +0.000 A 
ATOM      5  C   UNL     1      -0.023   9.223  22.430  0.00  0.00    +0.000 A 
ATOM      6  C   UNL     1       0.903   9.032  21.416  0.00  0.00    +0.000 A 
ATOM      7  N   UNL     1       1.183   9.984  20.511  0.00  0.00    +0.000 NA
ATOM      8  CA  UNL     1       0.620  11.225  20.538  0.00  0.00    +0.000 A 
ATOM      9  C   UNL     1      -0.299  11.500  21.551  0.00  0.00    +0.000 A 
ATOM     10  H   UNL     1      -2.030  10.609  24.073  0.00  0.00    +0.000 HD
ENDROOT
BRANCH   6  11
ATOM     11  N   UNL     1       1.598   7.812  21.320  0.00  0.00    +0.000 N 
ATOM     12  C   UNL     1       2.081   7.351  20.115  0.00  0.00    +0.000 C 
ATOM     13  O   UNL     1       1.963   7.907  19.032  0.00  0.00    +0.000 OA
ATOM     14  N   UNL     1       2.764   6.155  20.222  0.00  0.00    +0.000 N 
ATOM     15  H   UNL     1       1.835   7.322  22.166  0.00  0.00    +0.000 HD
ATOM     16  H   UNL     1       2.511   5.542  20.982  0.00  0.00    +0.000 HD
BRANCH  14  17
ATOM     17  C   UNL     1       3.301   5.519  19.004  0.00  0.00    +0.000 C 
ATOM     18  C   UNL     1       2.646   4.161  18.655  0.00  0.00    +0.000 C 
ATOM     19  N   UNL     1       3.735   3.361  18.082  0.00  0.00    +0.000 NA
ATOM     20  C   UNL     1       3.451   1.934  18.095  0.00  0.00    +0.000 C 
ATOM     21  C   UNL     1       4.902   3.689  18.917  0.00  0.00    +0.000 C 
ATOM     22  C   UNL     1       4.822   5.216  19.071  0.00  0.00    +0.000 C 
BRANCH  22  23
ATOM     23  O   UNL     1       5.567   5.817  17.997  0.00  0.00    +0.000 OA
ATOM     24  C   UNL     1       4.846   6.783  17.256  0.00  0.00    +0.000 C 
ENDBRANCH  22  23
ENDBRANCH  14  17
ENDBRANCH   6  11
BRANCH   1  26
ATOM     25  C   UNL     1      -2.073  14.092  20.528  0.00  0.00    +0.000 C 
ATOM     26  O   UNL     1      -1.016  13.850  21.452  0.00  0.00    +0.000 OA
ENDBRANCH   1  26
BRANCH   8  27
ATOM     27  C   UNL     1       1.066  12.166  19.450  0.00  0.00    +0.000 C 
BRANCH  27  28
ATOM     28  O   UNL     1       1.346  11.451  18.238  0.00  0.00    +0.000 OA
ATOM     29  H   UNL     1       0.469  11.131  17.910  0.00  0.00    +0.000 HD
ENDBRANCH  27  28
ENDBRANCH   8  27
TORSDOF 6
ENDMDL
MODEL 9
REMARK VINA RESULT:      -6.6      6.000      7.757
REMARK  Name = 
REMARK  9 active torsions:
REMARK  status: ('A' for Active; 'I' for Inactive)
REMARK    1  A    between atoms: C_1  and  O_2
REMARK    2  A    between atoms: O_2  and  C_3
REMARK    3  A    between atoms: C_8  and  N_9
REMARK    4  A    between atoms: N_12  and  C_13
REMARK    5  A    between atoms: N_15  and  C_16
REMARK    6  A    between atoms: C_18  and  O_19
REMARK    7  A    between atoms: O_19  and  C_20
REMARK    8  A    between atoms: CA_22  and  C_23
REMARK    9  A    between atoms: C_23  and  O_24
REMARK                            x       y       z     vdW  Elec       q    Type
REMARK                         _______ _______ _______ _____ _____    ______ ____
ROOT
ATOM      1  C   UNL     1       4.927   3.943  16.686  0.00  0.00    +0.000 A 
ATOM      2  N   UNL     1       4.119   2.893  16.836  0.00  0.00    +0.000 NA
ATOM      3  N   UNL     1       3.094   3.397  17.546  0.00  0.00    +0.000 N 
ATOM      4  C   UNL     1       3.218   4.727  17.851  0.00  0.00    +0.000 A 
ATOM      5  C   UNL     1       2.368   5.623  18.516  0.00  0.00    +0.000 A 
ATOM      6  C   UNL     1       2.852   6.917  18.632  0.00  0.00    +0.000 A 
ATOM      7  N   UNL     1       4.061   7.275  18.169  0.00  0.00    +0.000 NA
ATOM      8  CA  UNL     1       4.890   6.417  17.511  0.00  0.00    +0.000 A 
ATOM      9  C   UNL     1       4.455   5.104  17.329  0.00  0.00    +0.000 A 
ATOM     10  H   UNL     1       2.325   2.777  17.777  0.00  0.00    +0.000 HD
ENDROOT
BRANCH   6  11
ATOM     11  N   UNL     1       2.061   7.911  19.237  0.00  0.00    +0.000 N 
ATOM     12  C   UNL     1       1.548   8.964  18.512  0.00  0.00    +0.000 C 
ATOM     13  O   UNL     1       1.713   9.164  17.317  0.00  0.00    +0.000 OA
ATOM     14  N   UNL     1       0.770   9.820  19.267  0.00  0.00    +0.000 N 
ATOM     15  H   UNL     1       1.782   7.791  20.196  0.00  0.00    +0.000 HD
ATOM     16  H   UNL     1       0.971   9.880  20.254  0.00  0.00    +0.000 HD
BRANCH  14  17
ATOM     17  C   UNL     1       0.188  11.018  18.632  0.00  0.00    +0.000 C 
ATOM     18  C   UNL     1       0.517  12.344  19.358  0.00  0.00    +0.000 C 
ATOM     19  N   UNL     1      -0.687  13.167  19.191  0.00  0.00    +0.000 NA
ATOM     20  C   UNL     1      -0.760  14.258  20.151  0.00  0.00    +0.000 C 
ATOM     21  C   UNL     1      -1.799  12.217  19.362  0.00  0.00    +0.000 C 
ATOM     22  C   UNL     1      -1.361  10.992  18.544  0.00  0.00    +0.000 C 
BRANCH  22  23
ATOM     23  O   UNL     1      -1.854  11.148  17.201  0.00  0.00    +0.000 OA
ATOM     24  C   UNL     1      -2.443   9.982  16.658  0.00  0.00    +0.000 C 
ENDBRANCH  22  23
ENDBRANCH  14  17
ENDBRANCH   6  11
BRANCH   1  26
ATOM     25  C   UNL     1       5.906   4.183  14.598  0.00  0.00    +0.000 C 
ATOM     26  O   UNL     1       6.069   3.839  15.971  0.00  0.00    +0.000 OA
ENDBRANCH   1  26
BRANCH   8  27
ATOM     27  C   UNL     1       6.200   7.001  17.052  0.00  0.00    +0.000 C 
BRANCH  27  28
ATOM     28  O   UNL     1       7.303   6.201  17.500  0.00  0.00    +0.000 OA
ATOM     29  H   UNL     1       8.105   6.592  17.072  0.00  0.00    +0.000 HD
ENDBRANCH  27  28
ENDBRANCH   8  27
TORSDOF 6
ENDMDL
