MODEL 1
REMARK VINA RESULT:      -7.7      0.000      0.000
REMARK  Name = 
REMARK  8 active torsions:
REMARK  status: ('A' for Active; 'I' for Inactive)
REMARK    1  A    between atoms: C_1  and  O_2
REMARK    2  A    between atoms: O_2  and  C_3
REMARK    3  A    between atoms: C_7  and  C_8
REMARK    4  A    between atoms: C_8  and  N_9
REMARK    5  A    between atoms: C_15  and  C_16
REMARK    6  A    between atoms: C_19  and  N_20
REMARK    7  A    between atoms: C_23  and  O_24
REMARK    8  A    between atoms: O_24  and  C_25
REMARK                            x       y       z     vdW  Elec       q    Type
REMARK                         _______ _______ _______ _____ _____    ______ ____
ROOT
ATOM      1  N   UNL     1       2.316   8.365  18.048  0.00  0.00    +0.000 N 
ATOM      2  C   UNL     1       1.778   9.491  18.623  0.00  0.00    +0.000 A 
ATOM      3  C   UNL     1       2.049  10.800  17.958  0.00  0.00    +0.000 A 
ATOM      4  C   UNL     1       1.601  11.915  18.543  0.00  0.00    +0.000 A 
ATOM      5  C   UNL     1       0.831  11.814  19.719  0.00  0.00    +0.000 A 
ATOM      6  N   UNL     1       0.241  12.751  20.435  0.00  0.00    +0.000 NA
ATOM      7  C   UNL     1      -0.427  12.074  21.424  0.00  0.00    +0.000 A 
ATOM      8  C   UNL     1      -0.197  10.701  21.355  0.00  0.00    +0.000 A 
ATOM      9  N   UNL     1       0.612  10.549  20.240  0.00  0.00    +0.000 N 
ATOM     10  N   UNL     1       1.096   9.376  19.727  0.00  0.00    +0.000 NA
ATOM     11  H   UNL     1       2.080   8.220  17.072  0.00  0.00    +0.000 HD
ENDROOT
BRANCH   7  12
ATOM     12  C   UNL     1      -1.263  12.761  22.394  0.00  0.00    +0.000 A 
ATOM     13  C   UNL     1      -0.829  13.907  23.070  0.00  0.00    +0.000 A 
ATOM     14  C   UNL     1      -1.639  14.523  24.027  0.00  0.00    +0.000 A 
ATOM     15  C   UNL     1      -2.916  14.034  24.304  0.00  0.00    +0.000 A 
ATOM     16  C   UNL     1      -3.327  12.854  23.681  0.00  0.00    +0.000 A 
ATOM     17  C   UNL     1      -2.519  12.233  22.722  0.00  0.00    +0.000 A 
BRANCH  15  18
ATOM     18  N   UNL     1      -3.663  14.577  25.357  0.00  0.00    +0.000 N 
ATOM     19  H   UNL     1      -3.500  14.115  26.246  0.00  0.00    +0.000 HD
ATOM     20  H   UNL     1      -3.588  15.587  25.427  0.00  0.00    +0.000 HD
ENDBRANCH  15  18
ENDBRANCH   7  12
BRANCH   8  21
ATOM     21  O   UNL     1      -0.654   9.734  22.173  0.00  0.00    +0.000 OA
ATOM     22  C   UNL     1       0.051   9.441  23.367  0.00  0.00    +0.000 C 
ENDBRANCH   8  21
BRANCH   1  23
ATOM     23  C   UNL     1       2.468   7.135  18.798  0.00  0.00    +0.000 C 
BRANCH  23  28
ATOM     24  C   UNL     1       5.112   5.708  16.444  0.00  0.00    +0.000 A 
ATOM     25  C   UNL     1       4.742   4.361  16.415  0.00  0.00    +0.000 A 
ATOM     26  C   UNL     1       3.663   3.903  17.170  0.00  0.00    +0.000 A 
ATOM     27  C   UNL     1       2.942   4.796  17.958  0.00  0.00    +0.000 A 
ATOM     28  C   UNL     1       3.301   6.154  18.006  0.00  0.00    +0.000 A 
ATOM     29  C   UNL     1       4.397   6.598  17.248  0.00  0.00    +0.000 A 
BRANCH  24  31
ATOM     30  C   UNL     1       6.914   4.944  15.092  0.00  0.00    +0.000 C 
ATOM     31  O   UNL     1       6.166   6.025  15.633  0.00  0.00    +0.000 OA
ENDBRANCH  24  31
ENDBRANCH  23  28
ENDBRANCH   1  23
TORSDOF 6
ENDMDL
MODEL 2
REMARK VINA RESULT:      -7.6      1.104      1.959
REMARK  Name = 
REMARK  8 active torsions:
REMARK  status: ('A' for Active; 'I' for Inactive)
REMARK    1  A    between atoms: C_1  and  O_2
REMARK    2  A    between atoms: O_2  and  C_3
REMARK    3  A    between atoms: C_7  and  C_8
REMARK    4  A    between atoms: C_8  and  N_9
REMARK    5  A    between atoms: C_15  and  C_16
REMARK    6  A    between atoms: C_19  and  N_20
REMARK    7  A    between atoms: C_23  and  O_24
REMARK    8  A    between atoms: O_24  and  C_25
REMARK                            x       y       z     vdW  Elec       q    Type
REMARK                         _______ _______ _______ _____ _____    ______ ____
ROOT
ATOM      1  N   UNL     1       2.211   8.410  18.188  0.00  0.00    +0.000 N 
ATOM      2  C   UNL     1       1.660   9.536  18.752  0.00  0.00    +0.000 A 
ATOM      3  C   UNL     1       1.891  10.838  18.058  0.00  0.00    +0.000 A 
ATOM      4  C   UNL     1       1.430  11.953  18.630  0.00  0.00    +0.000 A 
ATOM      5  C   UNL     1       0.683  11.859  19.822  0.00  0.00    +0.000 A 
ATOM      6  N   UNL     1       0.086  12.796  20.532  0.00  0.00    +0.000 NA
ATOM      7  C   UNL     1      -0.549  12.125  21.545  0.00  0.00    +0.000 A 
ATOM      8  C   UNL     1      -0.292  10.756  21.497  0.00  0.00    +0.000 A 
ATOM      9  N   UNL     1       0.501  10.600  20.370  0.00  0.00    +0.000 N 
ATOM     10  N   UNL     1       1.001   9.427  19.871  0.00  0.00    +0.000 NA
ATOM     11  H   UNL     1       1.961   8.242  17.219  0.00  0.00    +0.000 HD
ENDROOT
BRANCH   7  12
ATOM     12  C   UNL     1      -1.382  12.811  22.517  0.00  0.00    +0.000 A 
ATOM     13  C   UNL     1      -2.684  12.387  22.812  0.00  0.00    +0.000 A 
ATOM     14  C   UNL     1      -3.476  13.091  23.722  0.00  0.00    +0.000 A 
ATOM     15  C   UNL     1      -2.977  14.210  24.389  0.00  0.00    +0.000 A 
ATOM     16  C   UNL     1      -1.705  14.675  24.049  0.00  0.00    +0.000 A 
ATOM     17  C   UNL     1      -0.907  13.974  23.137  0.00  0.00    +0.000 A 
BRANCH  15  18
ATOM     18  N   UNL     1      -3.822  14.983  25.193  0.00  0.00    +0.000 N 
ATOM     19  H   UNL     1      -3.914  15.943  24.877  0.00  0.00    +0.000 HD
ATOM     20  H   UNL     1      -4.722  14.548  25.371  0.00  0.00    +0.000 HD
ENDBRANCH  15  18
ENDBRANCH   7  12
BRANCH   8  21
ATOM     21  O   UNL     1      -0.712   9.794  22.341  0.00  0.00    +0.000 OA
ATOM     22  C   UNL     1       0.095   9.439  23.451  0.00  0.00    +0.000 C 
ENDBRANCH   8  21
BRANCH   1  23
ATOM     23  C   UNL     1       2.403   7.198  18.958  0.00  0.00    +0.000 C 
BRANCH  23  28
ATOM     24  C   UNL     1       3.261   3.838  17.364  0.00  0.00    +0.000 A 
ATOM     25  C   UNL     1       4.407   4.174  16.638  0.00  0.00    +0.000 A 
ATOM     26  C   UNL     1       4.889   5.482  16.635  0.00  0.00    +0.000 A 
ATOM     27  C   UNL     1       4.229   6.464  17.367  0.00  0.00    +0.000 A 
ATOM     28  C   UNL     1       3.071   6.149  18.100  0.00  0.00    +0.000 A 
ATOM     29  C   UNL     1       2.591   4.829  18.084  0.00  0.00    +0.000 A 
BRANCH  24  31
ATOM     30  C   UNL     1       3.393   1.675  18.346  0.00  0.00    +0.000 C 
ATOM     31  O   UNL     1       2.918   2.516  17.303  0.00  0.00    +0.000 OA
ENDBRANCH  24  31
ENDBRANCH  23  28
ENDBRANCH   1  23
TORSDOF 6
ENDMDL
MODEL 3
REMARK VINA RESULT:      -7.6      0.726      1.174
REMARK  Name = 
REMARK  8 active torsions:
REMARK  status: ('A' for Active; 'I' for Inactive)
REMARK    1  A    between atoms: C_1  and  O_2
REMARK    2  A    between atoms: O_2  and  C_3
REMARK    3  A    between atoms: C_7  and  C_8
REMARK    4  A    between atoms: C_8  and  N_9
REMARK    5  A    between atoms: C_15  and  C_16
REMARK    6  A    between atoms: C_19  and  N_20
REMARK    7  A    between atoms: C_23  and  O_24
REMARK    8  A    between atoms: O_24  and  C_25
REMARK                            x       y       z     vdW  Elec       q    Type
REMARK                         _______ _______ _______ _____ _____    ______ ____
ROOT
ATOM      1  N   UNL     1       2.172   8.044  18.440  0.00  0.00    +0.000 N 
ATOM      2  C   UNL     1       1.605   9.191  18.940  0.00  0.00    +0.000 A 
ATOM      3  C   UNL     1       1.771  10.445  18.145  0.00  0.00    +0.000 A 
ATOM      4  C   UNL     1       1.294  11.585  18.651  0.00  0.00    +0.000 A 
ATOM      5  C   UNL     1       0.591  11.557  19.873  0.00  0.00    +0.000 A 
ATOM      6  N   UNL     1      -0.011  12.526  20.534  0.00  0.00    +0.000 NA
ATOM      7  C   UNL     1      -0.589  11.913  21.615  0.00  0.00    +0.000 A 
ATOM      8  C   UNL     1      -0.290  10.552  21.658  0.00  0.00    +0.000 A 
ATOM      9  N   UNL     1       0.468  10.337  20.517  0.00  0.00    +0.000 N 
ATOM     10  N   UNL     1       0.988   9.146  20.087  0.00  0.00    +0.000 NA
ATOM     11  H   UNL     1       1.895   7.798  17.495  0.00  0.00    +0.000 HD
ENDROOT
BRANCH   7  12
ATOM     12  C   UNL     1      -1.411  12.645  22.564  0.00  0.00    +0.000 A 
ATOM     13  C   UNL     1      -2.701  12.225  22.909  0.00  0.00    +0.000 A 
ATOM     14  C   UNL     1      -3.483  12.970  23.795  0.00  0.00    +0.000 A 
ATOM     15  C   UNL     1      -2.983  14.130  24.387  0.00  0.00    +0.000 A 
ATOM     16  C   UNL     1      -1.724  14.588  23.996  0.00  0.00    +0.000 A 
ATOM     17  C   UNL     1      -0.936  13.846  23.109  0.00  0.00    +0.000 A 
BRANCH  15  18
ATOM     18  N   UNL     1      -3.821  14.939  25.165  0.00  0.00    +0.000 N 
ATOM     19  H   UNL     1      -3.317  15.607  25.740  0.00  0.00    +0.000 HD
ATOM     20  H   UNL     1      -4.569  15.375  24.634  0.00  0.00    +0.000 HD
ENDBRANCH  15  18
ENDBRANCH   7  12
BRANCH   8  21
ATOM     21  O   UNL     1      -0.651   9.644  22.584  0.00  0.00    +0.000 OA
ATOM     22  C   UNL     1       0.235   9.342  23.648  0.00  0.00    +0.000 C 
ENDBRANCH   8  21
BRANCH   1  23
ATOM     23  C   UNL     1       2.429   6.898  19.288  0.00  0.00    +0.000 C 
BRANCH  23  28
ATOM     24  C   UNL     1       4.842   4.879  17.127  0.00  0.00    +0.000 A 
ATOM     25  C   UNL     1       4.051   3.771  16.811  0.00  0.00    +0.000 A 
ATOM     26  C   UNL     1       2.756   3.655  17.312  0.00  0.00    +0.000 A 
ATOM     27  C   UNL     1       2.239   4.656  18.131  0.00  0.00    +0.000 A 
ATOM     28  C   UNL     1       3.019   5.776  18.466  0.00  0.00    +0.000 A 
ATOM     29  C   UNL     1       4.327   5.873  17.963  0.00  0.00    +0.000 A 
BRANCH  24  31
ATOM     30  C   UNL     1       7.199   4.720  17.404  0.00  0.00    +0.000 C 
ATOM     31  O   UNL     1       6.078   4.880  16.544  0.00  0.00    +0.000 OA
ENDBRANCH  24  31
ENDBRANCH  23  28
ENDBRANCH   1  23
TORSDOF 6
ENDMDL
MODEL 4
REMARK VINA RESULT:      -7.6      1.188      1.192
REMARK  Name = 
REMARK  8 active torsions:
REMARK  status: ('A' for Active; 'I' for Inactive)
REMARK    1  A    between atoms: C_1  and  O_2
REMARK    2  A    between atoms: O_2  and  C_3
REMARK    3  A    between atoms: C_7  and  C_8
REMARK    4  A    between atoms: C_8  and  N_9
REMARK    5  A    between atoms: C_15  and  C_16
REMARK    6  A    between atoms: C_19  and  N_20
REMARK    7  A    between atoms: C_23  and  O_24
REMARK    8  A    between atoms: O_24  and  C_25
REMARK                            x       y       z     vdW  Elec       q    Type
REMARK                         _______ _______ _______ _____ _____    ______ ____
ROOT
ATOM      1  N   UNL     1       2.108   7.933  18.668  0.00  0.00    +0.000 N 
ATOM      2  C   UNL     1       1.547   9.124  19.063  0.00  0.00    +0.000 A 
ATOM      3  C   UNL     1       1.778  10.316  18.195  0.00  0.00    +0.000 A 
ATOM      4  C   UNL     1       1.306  11.498  18.601  0.00  0.00    +0.000 A 
ATOM      5  C   UNL     1       0.551  11.568  19.789  0.00  0.00    +0.000 A 
ATOM      6  N   UNL     1      -0.056  12.592  20.355  0.00  0.00    +0.000 NA
ATOM      7  C   UNL     1      -0.696  12.067  21.448  0.00  0.00    +0.000 A 
ATOM      8  C   UNL     1      -0.432  10.706  21.595  0.00  0.00    +0.000 A 
ATOM      9  N   UNL     1       0.370  10.398  20.507  0.00  0.00    +0.000 N 
ATOM     10  N   UNL     1       0.879   9.170  20.181  0.00  0.00    +0.000 NA
ATOM     11  H   UNL     1       1.867   7.629  17.730  0.00  0.00    +0.000 HD
ENDROOT
BRANCH   7  12
ATOM     12  C   UNL     1      -1.540  12.879  22.307  0.00  0.00    +0.000 A 
ATOM     13  C   UNL     1      -1.006  13.776  23.241  0.00  0.00    +0.000 A 
ATOM     14  C   UNL     1      -1.842  14.515  24.082  0.00  0.00    +0.000 A 
ATOM     15  C   UNL     1      -3.229  14.406  23.986  0.00  0.00    +0.000 A 
ATOM     16  C   UNL     1      -3.764  13.465  23.105  0.00  0.00    +0.000 A 
ATOM     17  C   UNL     1      -2.932  12.722  22.260  0.00  0.00    +0.000 A 
BRANCH  15  18
ATOM     18  N   UNL     1      -4.050  15.047  24.922  0.00  0.00    +0.000 N 
ATOM     19  H   UNL     1      -5.009  14.713  24.913  0.00  0.00    +0.000 HD
ATOM     20  H   UNL     1      -3.657  15.066  25.859  0.00  0.00    +0.000 HD
ENDBRANCH  15  18
ENDBRANCH   7  12
BRANCH   8  21
ATOM     21  O   UNL     1      -0.855   9.871  22.563  0.00  0.00    +0.000 OA
ATOM     22  C   UNL     1       0.048   9.462  23.575  0.00  0.00    +0.000 C 
ENDBRANCH   8  21
BRANCH   1  23
ATOM     23  C   UNL     1       2.299   6.842  19.602  0.00  0.00    +0.000 C 
BRANCH  23  28
ATOM     24  C   UNL     1       5.144   4.539  18.523  0.00  0.00    +0.000 A 
ATOM     25  C   UNL     1       4.500   3.751  17.566  0.00  0.00    +0.000 A 
ATOM     26  C   UNL     1       3.147   3.938  17.284  0.00  0.00    +0.000 A 
ATOM     27  C   UNL     1       2.431   4.923  17.959  0.00  0.00    +0.000 A 
ATOM     28  C   UNL     1       3.058   5.722  18.930  0.00  0.00    +0.000 A 
ATOM     29  C   UNL     1       4.419   5.514  19.210  0.00  0.00    +0.000 A 
BRANCH  24  31
ATOM     30  C   UNL     1       7.361   4.805  17.701  0.00  0.00    +0.000 C 
ATOM     31  O   UNL     1       6.476   4.269  18.676  0.00  0.00    +0.000 OA
ENDBRANCH  24  31
ENDBRANCH  23  28
ENDBRANCH   1  23
TORSDOF 6
ENDMDL
MODEL 5
REMARK VINA RESULT:      -7.6      1.291      1.631
REMARK  Name = 
REMARK  8 active torsions:
REMARK  status: ('A' for Active; 'I' for Inactive)
REMARK    1  A    between atoms: C_1  and  O_2
REMARK    2  A    between atoms: O_2  and  C_3
REMARK    3  A    between atoms: C_7  and  C_8
REMARK    4  A    between atoms: C_8  and  N_9
REMARK    5  A    between atoms: C_15  and  C_16
REMARK    6  A    between atoms: C_19  and  N_20
REMARK    7  A    between atoms: C_23  and  O_24
REMARK    8  A    between atoms: O_24  and  C_25
REMARK                            x       y       z     vdW  Elec       q    Type
REMARK                         _______ _______ _______ _____ _____    ______ ____
ROOT
ATOM      1  N   UNL     1       1.402   8.459  17.687  0.00  0.00    +0.000 N 
ATOM      2  C   UNL     1       0.532   9.344  18.277  0.00  0.00    +0.000 A 
ATOM      3  C   UNL     1      -0.562   9.905  17.429  0.00  0.00    +0.000 A 
ATOM      4  C   UNL     1      -1.370  10.824  17.963  0.00  0.00    +0.000 A 
ATOM      5  C   UNL     1      -1.213  11.179  19.318  0.00  0.00    +0.000 A 
ATOM      6  N   UNL     1      -1.912  12.005  20.071  0.00  0.00    +0.000 NA
ATOM      7  C   UNL     1      -1.358  11.903  21.321  0.00  0.00    +0.000 A 
ATOM      8  C   UNL     1      -0.259  11.045  21.329  0.00  0.00    +0.000 A 
ATOM      9  N   UNL     1      -0.185  10.578  20.025  0.00  0.00    +0.000 N 
ATOM     10  N   UNL     1       0.717   9.680  19.522  0.00  0.00    +0.000 NA
ATOM     11  H   UNL     1       0.970   7.654  17.244  0.00  0.00    +0.000 HD
ENDROOT
BRANCH   7  12
ATOM     12  C   UNL     1      -1.898  12.621  22.462  0.00  0.00    +0.000 A 
ATOM     13  C   UNL     1      -3.147  12.308  23.014  0.00  0.00    +0.000 A 
ATOM     14  C   UNL     1      -3.659  13.041  24.086  0.00  0.00    +0.000 A 
ATOM     15  C   UNL     1      -2.923  14.079  24.659  0.00  0.00    +0.000 A 
ATOM     16  C   UNL     1      -1.709  14.438  24.070  0.00  0.00    +0.000 A 
ATOM     17  C   UNL     1      -1.191  13.706  22.995  0.00  0.00    +0.000 A 
BRANCH  15  18
ATOM     18  N   UNL     1      -3.501  14.892  25.641  0.00  0.00    +0.000 N 
ATOM     19  H   UNL     1      -4.176  15.555  25.271  0.00  0.00    +0.000 HD
ATOM     20  H   UNL     1      -3.867  14.372  26.433  0.00  0.00    +0.000 HD
ENDBRANCH  15  18
ENDBRANCH   7  12
BRANCH   8  21
ATOM     21  O   UNL     1       0.550  10.730  22.358  0.00  0.00    +0.000 OA
ATOM     22  C   UNL     1       0.266   9.584  23.144  0.00  0.00    +0.000 C 
ENDBRANCH   8  21
BRANCH   1  23
ATOM     23  C   UNL     1       2.700   8.177  18.265  0.00  0.00    +0.000 C 
BRANCH  23  28
ATOM     24  C   UNL     1       4.709   5.180  17.022  0.00  0.00    +0.000 A 
ATOM     25  C   UNL     1       3.787   4.147  17.209  0.00  0.00    +0.000 A 
ATOM     26  C   UNL     1       2.532   4.404  17.758  0.00  0.00    +0.000 A 
ATOM     27  C   UNL     1       2.189   5.704  18.120  0.00  0.00    +0.000 A 
ATOM     28  C   UNL     1       3.103   6.757  17.946  0.00  0.00    +0.000 A 
ATOM     29  C   UNL     1       4.368   6.480  17.402  0.00  0.00    +0.000 A 
BRANCH  24  31
ATOM     30  C   UNL     1       7.033   4.745  17.288  0.00  0.00    +0.000 C 
ATOM     31  O   UNL     1       5.887   4.793  16.447  0.00  0.00    +0.000 OA
ENDBRANCH  24  31
ENDBRANCH  23  28
ENDBRANCH   1  23
TORSDOF 6
ENDMDL
MODEL 6
REMARK VINA RESULT:      -7.5      1.645      2.192
REMARK  Name = 
REMARK  8 active torsions:
REMARK  status: ('A' for Active; 'I' for Inactive)
REMARK    1  A    between atoms: C_1  and  O_2
REMARK    2  A    between atoms: O_2  and  C_3
REMARK    3  A    between atoms: C_7  and  C_8
REMARK    4  A    between atoms: C_8  and  N_9
REMARK    5  A    between atoms: C_15  and  C_16
REMARK    6  A    between atoms: C_19  and  N_20
REMARK    7  A    between atoms: C_23  and  O_24
REMARK    8  A    between atoms: O_24  and  C_25
REMARK                            x       y       z     vdW  Elec       q    Type
REMARK                         _______ _______ _______ _____ _____    ______ ____
ROOT
ATOM      1  N   UNL     1       1.348   8.384  17.788  0.00  0.00    +0.000 N 
ATOM      2  C   UNL     1       0.511   9.319  18.348  0.00  0.00    +0.000 A 
ATOM      3  C   UNL     1      -0.503   9.958  17.457  0.00  0.00    +0.000 A 
ATOM      4  C   UNL     1      -1.273  10.924  17.964  0.00  0.00    +0.000 A 
ATOM      5  C   UNL     1      -1.157  11.256  19.329  0.00  0.00    +0.000 A 
ATOM      6  N   UNL     1      -1.834  12.120  20.058  0.00  0.00    +0.000 NA
ATOM      7  C   UNL     1      -1.346  11.970  21.331  0.00  0.00    +0.000 A 
ATOM      8  C   UNL     1      -0.308  11.042  21.379  0.00  0.00    +0.000 A 
ATOM      9  N   UNL     1      -0.204  10.583  20.076  0.00  0.00    +0.000 N 
ATOM     10  N   UNL     1       0.660   9.631  19.604  0.00  0.00    +0.000 NA
ATOM     11  H   UNL     1       0.885   7.613  17.316  0.00  0.00    +0.000 HD
ENDROOT
BRANCH   7  12
ATOM     12  C   UNL     1      -1.892  12.713  22.455  0.00  0.00    +0.000 A 
ATOM     13  C   UNL     1      -1.223  13.808  23.017  0.00  0.00    +0.000 A 
ATOM     14  C   UNL     1      -1.752  14.478  24.122  0.00  0.00    +0.000 A 
ATOM     15  C   UNL     1      -2.978  14.099  24.669  0.00  0.00    +0.000 A 
ATOM     16  C   UNL     1      -3.615  12.968  24.154  0.00  0.00    +0.000 A 
ATOM     17  C   UNL     1      -3.089  12.292  23.047  0.00  0.00    +0.000 A 
BRANCH  15  18
ATOM     18  N   UNL     1      -3.431  14.689  25.855  0.00  0.00    +0.000 N 
ATOM     19  H   UNL     1      -3.056  14.253  26.692  0.00  0.00    +0.000 HD
ATOM     20  H   UNL     1      -3.331  15.699  25.868  0.00  0.00    +0.000 HD
ENDBRANCH  15  18
ENDBRANCH   7  12
BRANCH   8  21
ATOM     21  O   UNL     1       0.430  10.665  22.441  0.00  0.00    +0.000 OA
ATOM     22  C   UNL     1      -0.021   9.600  23.261  0.00  0.00    +0.000 C 
ENDBRANCH   8  21
BRANCH   1  23
ATOM     23  C   UNL     1       2.596   8.012  18.422  0.00  0.00    +0.000 C 
BRANCH  23  28
ATOM     24  C   UNL     1       2.535   4.282  17.614  0.00  0.00    +0.000 A 
ATOM     25  C   UNL     1       3.859   4.075  17.220  0.00  0.00    +0.000 A 
ATOM     26  C   UNL     1       4.766   5.133  17.185  0.00  0.00    +0.000 A 
ATOM     27  C   UNL     1       4.351   6.411  17.552  0.00  0.00    +0.000 A 
ATOM     28  C   UNL     1       3.023   6.643  17.947  0.00  0.00    +0.000 A 
ATOM     29  C   UNL     1       2.118   5.568  17.966  0.00  0.00    +0.000 A 
BRANCH  24  31
ATOM     30  C   UNL     1       2.252   2.048  18.380  0.00  0.00    +0.000 C 
ATOM     31  O   UNL     1       1.764   3.153  17.631  0.00  0.00    +0.000 OA
ENDBRANCH  24  31
ENDBRANCH  23  28
ENDBRANCH   1  23
TORSDOF 6
ENDMDL
MODEL 7
REMARK VINA RESULT:      -7.3      1.303      1.849
REMARK  Name = 
REMARK  8 active torsions:
REMARK  status: ('A' for Active; 'I' for Inactive)
REMARK    1  A    between atoms: C_1  and  O_2
REMARK    2  A    between atoms: O_2  and  C_3
REMARK    3  A    between atoms: C_7  and  C_8
REMARK    4  A    between atoms: C_8  and  N_9
REMARK    5  A    between atoms: C_15  and  C_16
REMARK    6  A    between atoms: C_19  and  N_20
REMARK    7  A    between atoms: C_23  and  O_24
REMARK    8  A    between atoms: O_24  and  C_25
REMARK                            x       y       z     vdW  Elec       q    Type
REMARK                         _______ _______ _______ _____ _____    ______ ____
ROOT
ATOM      1  N   UNL     1       2.153   8.148  18.465  0.00  0.00    +0.000 N 
ATOM      2  C   UNL     1       1.597   9.307  18.948  0.00  0.00    +0.000 A 
ATOM      3  C   UNL     1       1.798  10.553  18.149  0.00  0.00    +0.000 A 
ATOM      4  C   UNL     1       1.331  11.704  18.640  0.00  0.00    +0.000 A 
ATOM      5  C   UNL     1       0.607  11.696  19.849  0.00  0.00    +0.000 A 
ATOM      6  N   UNL     1       0.010  12.679  20.493  0.00  0.00    +0.000 NA
ATOM      7  C   UNL     1      -0.598  12.082  21.568  0.00  0.00    +0.000 A 
ATOM      8  C   UNL     1      -0.323  10.717  21.623  0.00  0.00    +0.000 A 
ATOM      9  N   UNL     1       0.452  10.482  20.498  0.00  0.00    +0.000 N 
ATOM     10  N   UNL     1       0.959   9.280  20.084  0.00  0.00    +0.000 NA
ATOM     11  H   UNL     1       1.889   7.900  17.517  0.00  0.00    +0.000 HD
ENDROOT
BRANCH   7  12
ATOM     12  C   UNL     1      -1.424  12.834  22.498  0.00  0.00    +0.000 A 
ATOM     13  C   UNL     1      -0.943  13.963  23.173  0.00  0.00    +0.000 A 
ATOM     14  C   UNL     1      -1.746  14.642  24.092  0.00  0.00    +0.000 A 
ATOM     15  C   UNL     1      -3.060  14.236  24.330  0.00  0.00    +0.000 A 
ATOM     16  C   UNL     1      -3.520  13.073  23.711  0.00  0.00    +0.000 A 
ATOM     17  C   UNL     1      -2.720  12.388  22.789  0.00  0.00    +0.000 A 
BRANCH  15  18
ATOM     18  N   UNL     1      -3.807  14.840  25.349  0.00  0.00    +0.000 N 
ATOM     19  H   UNL     1      -4.148  14.183  26.044  0.00  0.00    +0.000 HD
ATOM     20  H   UNL     1      -3.346  15.641  25.770  0.00  0.00    +0.000 HD
ENDBRANCH  15  18
ENDBRANCH   7  12
BRANCH   8  21
ATOM     21  O   UNL     1      -0.715   9.821  22.549  0.00  0.00    +0.000 OA
ATOM     22  C   UNL     1       0.197   9.410  23.553  0.00  0.00    +0.000 C 
ENDBRANCH   8  21
BRANCH   1  23
ATOM     23  C   UNL     1       2.375   7.003  19.324  0.00  0.00    +0.000 C 
BRANCH  23  28
ATOM     24  C   UNL     1       3.932   3.646  18.391  0.00  0.00    +0.000 A 
ATOM     25  C   UNL     1       4.672   4.002  17.260  0.00  0.00    +0.000 A 
ATOM     26  C   UNL     1       4.651   5.310  16.779  0.00  0.00    +0.000 A 
ATOM     27  C   UNL     1       3.890   6.275  17.433  0.00  0.00    +0.000 A 
ATOM     28  C   UNL     1       3.135   5.937  18.569  0.00  0.00    +0.000 A 
ATOM     29  C   UNL     1       3.157   4.612  19.035  0.00  0.00    +0.000 A 
BRANCH  24  31
ATOM     30  C   UNL     1       4.392   2.091  20.132  0.00  0.00    +0.000 C 
ATOM     31  O   UNL     1       4.068   2.339  18.770  0.00  0.00    +0.000 OA
ENDBRANCH  24  31
ENDBRANCH  23  28
ENDBRANCH   1  23
TORSDOF 6
ENDMDL
MODEL 8
REMARK VINA RESULT:      -7.2      3.391      8.928
REMARK  Name = 
REMARK  8 active torsions:
REMARK  status: ('A' for Active; 'I' for Inactive)
REMARK    1  A    between atoms: C_1  and  O_2
REMARK    2  A    between atoms: O_2  and  C_3
REMARK    3  A    between atoms: C_7  and  C_8
REMARK    4  A    between atoms: C_8  and  N_9
REMARK    5  A    between atoms: C_15  and  C_16
REMARK    6  A    between atoms: C_19  and  N_20
REMARK    7  A    between atoms: C_23  and  O_24
REMARK    8  A    between atoms: O_24  and  C_25
REMARK                            x       y       z     vdW  Elec       q    Type
REMARK                         _______ _______ _______ _____ _____    ______ ____
ROOT
ATOM      1  N   UNL     1       0.759  11.739  19.678  0.00  0.00    +0.000 N 
ATOM      2  C   UNL     1       0.960  10.417  19.993  0.00  0.00    +0.000 A 
ATOM      3  C   UNL     1       0.482   9.946  21.327  0.00  0.00    +0.000 A 
ATOM      4  C   UNL     1       0.737   8.684  21.683  0.00  0.00    +0.000 A 
ATOM      5  C   UNL     1       1.379   7.824  20.768  0.00  0.00    +0.000 A 
ATOM      6  N   UNL     1       1.682   6.546  20.867  0.00  0.00    +0.000 NA
ATOM      7  C   UNL     1       2.228   6.215  19.653  0.00  0.00    +0.000 A 
ATOM      8  C   UNL     1       2.319   7.321  18.810  0.00  0.00    +0.000 A 
ATOM      9  N   UNL     1       1.757   8.353  19.545  0.00  0.00    +0.000 N 
ATOM     10  N   UNL     1       1.584   9.650  19.144  0.00  0.00    +0.000 NA
ATOM     11  H   UNL     1      -0.201  12.060  19.744  0.00  0.00    +0.000 HD
ENDROOT
BRANCH   7  12
ATOM     12  C   UNL     1       2.636   4.856  19.340  0.00  0.00    +0.000 A 
ATOM     13  C   UNL     1       3.877   4.342  19.738  0.00  0.00    +0.000 A 
ATOM     14  C   UNL     1       4.260   3.045  19.388  0.00  0.00    +0.000 A 
ATOM     15  C   UNL     1       3.400   2.216  18.667  0.00  0.00    +0.000 A 
ATOM     16  C   UNL     1       2.191   2.746  18.211  0.00  0.00    +0.000 A 
ATOM     17  C   UNL     1       1.802   4.045  18.559  0.00  0.00    +0.000 A 
BRANCH  15  18
ATOM     18  N   UNL     1       3.845   0.971  18.207  0.00  0.00    +0.000 N 
ATOM     19  H   UNL     1       4.803   0.763  18.472  0.00  0.00    +0.000 HD
ATOM     20  H   UNL     1       3.211   0.209  18.424  0.00  0.00    +0.000 HD
ENDBRANCH  15  18
ENDBRANCH   7  12
BRANCH   8  21
ATOM     21  O   UNL     1       2.829   7.385  17.566  0.00  0.00    +0.000 OA
ATOM     22  C   UNL     1       4.215   7.160  17.367  0.00  0.00    +0.000 C 
ENDBRANCH   8  21
BRANCH   1  23
ATOM     23  C   UNL     1       1.519  12.389  18.630  0.00  0.00    +0.000 C 
BRANCH  23  28
ATOM     24  C   UNL     1       4.389  14.877  19.004  0.00  0.00    +0.000 A 
ATOM     25  C   UNL     1       4.405  15.057  20.389  0.00  0.00    +0.000 A 
ATOM     26  C   UNL     1       3.481  14.404  21.202  0.00  0.00    +0.000 A 
ATOM     27  C   UNL     1       2.533  13.559  20.631  0.00  0.00    +0.000 A 
ATOM     28  C   UNL     1       2.495  13.368  19.239  0.00  0.00    +0.000 A 
ATOM     29  C   UNL     1       3.426  14.042  18.432  0.00  0.00    +0.000 A 
BRANCH  24  31
ATOM     30  C   UNL     1       6.438  14.782  17.800  0.00  0.00    +0.000 C 
ATOM     31  O   UNL     1       5.369  15.553  18.332  0.00  0.00    +0.000 OA
ENDBRANCH  24  31
ENDBRANCH  23  28
ENDBRANCH   1  23
TORSDOF 6
ENDMDL
MODEL 9
REMARK VINA RESULT:      -7.2      3.410      9.162
REMARK  Name = 
REMARK  8 active torsions:
REMARK  status: ('A' for Active; 'I' for Inactive)
REMARK    1  A    between atoms: C_1  and  O_2
REMARK    2  A    between atoms: O_2  and  C_3
REMARK    3  A    between atoms: C_7  and  C_8
REMARK    4  A    between atoms: C_8  and  N_9
REMARK    5  A    between atoms: C_15  and  C_16
REMARK    6  A    between atoms: C_19  and  N_20
REMARK    7  A    between atoms: C_23  and  O_24
REMARK    8  A    between atoms: O_24  and  C_25
REMARK                            x       y       z     vdW  Elec       q    Type
REMARK                         _______ _______ _______ _____ _____    ______ ____
ROOT
ATOM      1  N   UNL     1       0.762  11.613  19.696  0.00  0.00    +0.000 N 
ATOM      2  C   UNL     1       0.981  10.284  19.966  0.00  0.00    +0.000 A 
ATOM      3  C   UNL     1       0.506   9.760  21.282  0.00  0.00    +0.000 A 
ATOM      4  C   UNL     1       0.778   8.491  21.595  0.00  0.00    +0.000 A 
ATOM      5  C   UNL     1       1.434   7.672  20.653  0.00  0.00    +0.000 A 
ATOM      6  N   UNL     1       1.756   6.395  20.709  0.00  0.00    +0.000 NA
ATOM      7  C   UNL     1       2.309   6.114  19.486  0.00  0.00    +0.000 A 
ATOM      8  C   UNL     1       2.387   7.249  18.682  0.00  0.00    +0.000 A 
ATOM      9  N   UNL     1       1.808   8.248  19.450  0.00  0.00    +0.000 N 
ATOM     10  N   UNL     1       1.618   9.556  19.093  0.00  0.00    +0.000 NA
ATOM     11  H   UNL     1      -0.203  11.918  19.770  0.00  0.00    +0.000 HD
ENDROOT
BRANCH   7  12
ATOM     12  C   UNL     1       2.738   4.773  19.128  0.00  0.00    +0.000 A 
ATOM     13  C   UNL     1       1.969   3.943  18.302  0.00  0.00    +0.000 A 
ATOM     14  C   UNL     1       2.387   2.643  18.006  0.00  0.00    +0.000 A 
ATOM     15  C   UNL     1       3.599   2.154  18.494  0.00  0.00    +0.000 A 
ATOM     16  C   UNL     1       4.335   2.953  19.371  0.00  0.00    +0.000 A 
ATOM     17  C   UNL     1       3.921   4.256  19.671  0.00  0.00    +0.000 A 
BRANCH  15  18
ATOM     18  N   UNL     1       3.941   0.810  18.303  0.00  0.00    +0.000 N 
ATOM     19  H   UNL     1       3.735   0.223  19.105  0.00  0.00    +0.000 HD
ATOM     20  H   UNL     1       3.582   0.419  17.437  0.00  0.00    +0.000 HD
ENDBRANCH  15  18
ENDBRANCH   7  12
BRANCH   8  21
ATOM     21  O   UNL     1       2.899   7.364  17.442  0.00  0.00    +0.000 OA
ATOM     22  C   UNL     1       4.285   7.149  17.237  0.00  0.00    +0.000 C 
ENDBRANCH   8  21
BRANCH   1  23
ATOM     23  C   UNL     1       1.515  12.310  18.673  0.00  0.00    +0.000 C 
BRANCH  23  28
ATOM     24  C   UNL     1       4.287  14.892  19.140  0.00  0.00    +0.000 A 
ATOM     25  C   UNL     1       4.279  15.041  20.529  0.00  0.00    +0.000 A 
ATOM     26  C   UNL     1       3.368  14.337  21.315  0.00  0.00    +0.000 A 
ATOM     27  C   UNL     1       2.460  13.471  20.713  0.00  0.00    +0.000 A 
ATOM     28  C   UNL     1       2.447  13.310  19.317  0.00  0.00    +0.000 A 
ATOM     29  C   UNL     1       3.363  14.035  18.537  0.00  0.00    +0.000 A 
BRANCH  24  31
ATOM     30  C   UNL     1       5.455  16.954  18.933  0.00  0.00    +0.000 C 
ATOM     31  O   UNL     1       5.250  15.617  18.496  0.00  0.00    +0.000 OA
ENDBRANCH  24  31
ENDBRANCH  23  28
ENDBRANCH   1  23
TORSDOF 6
ENDMDL
