MODEL 1
REMARK VINA RESULT:      -8.0      0.000      0.000
REMARK  Name = 
REMARK  16 active torsions:
REMARK  status: ('A' for Active; 'I' for Inactive)
REMARK    1  A    between atoms: C_1  and  C_2
REMARK    2  A    between atoms: C_2  and  C_3
REMARK    3  A    between atoms: C_8  and  C_9
REMARK    4  A    between atoms: N_11  and  C_12
REMARK    5  A    between atoms: C_16  and  O_17
REMARK    6  A    between atoms: O_17  and  C_18
REMARK    7  A    between atoms: C_18  and  C_19
REMARK    8  A    between atoms: N_21  and  C_22
REMARK    9  A    between atoms: N_21  and  C_23
REMARK   10  A    between atoms: C_27  and  N_28
REMARK   11  A    between atoms: N_28  and  C_29
REMARK   12  A    between atoms: N_28  and  C_31
REMARK   13  A    between atoms: C_29  and  C_30
REMARK   14  A    between atoms: C_31  and  C_32
REMARK   15  A    between atoms: C_32  and  O_33
REMARK   16  A    between atoms: O_33  and  C_34
REMARK                            x       y       z     vdW  Elec       q    Type
REMARK                         _______ _______ _______ _____ _____    ______ ____
ROOT
ATOM      1  C   UNL     1      -1.748  12.236  21.676  0.00  0.00    +0.000 A 
ATOM      2  N   UNL     1      -1.225  11.530  22.728  0.00  0.00    +0.000 NA
ATOM      3  C   UNL     1      -0.495  10.586  22.221  0.00  0.00    +0.000 A 
ATOM      4  C   UNL     1       0.296   9.622  22.907  0.00  0.00    +0.000 A 
ATOM      5  C   UNL     1       1.010   8.720  22.222  0.00  0.00    +0.000 A 
ATOM      6  C   UNL     1       0.970   8.701  20.773  0.00  0.00    +0.000 A 
ATOM      7  C   UNL     1       0.244   9.647  20.116  0.00  0.00    +0.000 A 
ATOM      8  N   UNL     1      -0.512  10.601  20.823  0.00  0.00    +0.000 N 
ATOM      9  C   UNL     1      -1.334  11.713  20.422  0.00  0.00    +0.000 A 
ENDROOT
BRANCH   6  10
ATOM     10  C   UNL     1       1.783   7.765  19.923  0.00  0.00    +0.000 C 
ATOM     11  O   UNL     1       2.195   8.166  18.861  0.00  0.00    +0.000 OA
ATOM     12  N   UNL     1       1.931   6.464  20.413  0.00  0.00    +0.000 N 
ATOM     13  H   UNL     1       1.408   6.187  21.225  0.00  0.00    +0.000 HD
BRANCH  12  14
ATOM     14  C   UNL     1       2.652   5.443  19.732  0.00  0.00    +0.000 A 
ATOM     15  C   UNL     1       2.012   4.419  19.028  0.00  0.00    +0.000 A 
ATOM     16  C   UNL     1       2.740   3.421  18.383  0.00  0.00    +0.000 A 
ATOM     17  C   UNL     1       4.126   3.433  18.436  0.00  0.00    +0.000 A 
ATOM     18  C   UNL     1       4.789   4.454  19.117  0.00  0.00    +0.000 A 
ATOM     19  C   UNL     1       4.056   5.459  19.765  0.00  0.00    +0.000 A 
BRANCH  18  20
ATOM     20  O   UNL     1       6.154   4.341  19.114  0.00  0.00    +0.000 OA
BRANCH  20  21
ATOM     21  C   UNL     1       6.865   5.346  18.407  0.00  0.00    +0.000 C 
BRANCH  21  22
ATOM     22  C   UNL     1       7.210   4.900  16.978  0.00  0.00    +0.000 C 
ATOM     23  O   UNL     1       8.148   4.133  16.750  0.00  0.00    +0.000 OA
ATOM     24  N   UNL     1       6.403   5.398  15.953  0.00  0.00    +0.000 N 
ATOM     25  C   UNL     1       5.268   6.291  16.130  0.00  0.00    +0.000 C 
ATOM     26  C   UNL     1       6.688   5.005  14.581  0.00  0.00    +0.000 C 
ENDBRANCH  21  22
ENDBRANCH  20  21
ENDBRANCH  18  20
ENDBRANCH  12  14
ENDBRANCH   6  10
BRANCH   1  28
ATOM     27  C   UNL     1      -3.253  13.278  23.492  0.00  0.00    +0.000 C 
ATOM     28  C   UNL     1      -2.603  13.403  22.097  0.00  0.00    +0.000 C 
ENDBRANCH   1  28
BRANCH   9  29
ATOM     29  N   UNL     1      -1.577  12.107  19.076  0.00  0.00    +0.000 N 
BRANCH  29  30
ATOM     30  C   UNL     1      -0.752  13.144  18.387  0.00  0.00    +0.000 C 
ATOM     31  C   UNL     1       0.756  13.152  18.680  0.00  0.00    +0.000 C 
ENDBRANCH  29  30
BRANCH  29  32
ATOM     32  C   UNL     1      -2.699  11.523  18.280  0.00  0.00    +0.000 C 
BRANCH  32  33
ATOM     33  C   UNL     1      -2.345  11.214  16.822  0.00  0.00    +0.000 C 
BRANCH  33  34
ATOM     34  O   UNL     1      -3.516  11.185  15.982  0.00  0.00    +0.000 OA
ATOM     35  C   UNL     1      -3.291  10.319  14.868  0.00  0.00    +0.000 C 
ENDBRANCH  33  34
ENDBRANCH  32  33
ENDBRANCH  29  32
ENDBRANCH   9  29
TORSDOF 11
ENDMDL
MODEL 2
REMARK VINA RESULT:      -7.4      1.829      2.812
REMARK  Name = 
REMARK  16 active torsions:
REMARK  status: ('A' for Active; 'I' for Inactive)
REMARK    1  A    between atoms: C_1  and  C_2
REMARK    2  A    between atoms: C_2  and  C_3
REMARK    3  A    between atoms: C_8  and  C_9
REMARK    4  A    between atoms: N_11  and  C_12
REMARK    5  A    between atoms: C_16  and  O_17
REMARK    6  A    between atoms: O_17  and  C_18
REMARK    7  A    between atoms: C_18  and  C_19
REMARK    8  A    between atoms: N_21  and  C_22
REMARK    9  A    between atoms: N_21  and  C_23
REMARK   10  A    between atoms: C_27  and  N_28
REMARK   11  A    between atoms: N_28  and  C_29
REMARK   12  A    between atoms: N_28  and  C_31
REMARK   13  A    between atoms: C_29  and  C_30
REMARK   14  A    between atoms: C_31  and  C_32
REMARK   15  A    between atoms: C_32  and  O_33
REMARK   16  A    between atoms: O_33  and  C_34
REMARK                            x       y       z     vdW  Elec       q    Type
REMARK                         _______ _______ _______ _____ _____    ______ ____
ROOT
ATOM      1  C   UNL     1      -0.500  12.774  22.262  0.00  0.00    +0.000 A 
ATOM      2  N   UNL     1      -0.774  11.707  23.078  0.00  0.00    +0.000 NA
ATOM      3  C   UNL     1      -0.263  10.659  22.510  0.00  0.00    +0.000 A 
ATOM      4  C   UNL     1      -0.239   9.321  22.994  0.00  0.00    +0.000 A 
ATOM      5  C   UNL     1       0.352   8.353  22.282  0.00  0.00    +0.000 A 
ATOM      6  C   UNL     1       0.958   8.653  21.000  0.00  0.00    +0.000 A 
ATOM      7  C   UNL     1       0.969   9.940  20.555  0.00  0.00    +0.000 A 
ATOM      8  N   UNL     1       0.351  10.967  21.292  0.00  0.00    +0.000 N 
ATOM      9  C   UNL     1       0.224  12.389  21.103  0.00  0.00    +0.000 A 
ENDROOT
BRANCH   6  10
ATOM     10  C   UNL     1       1.693   7.645  20.162  0.00  0.00    +0.000 C 
ATOM     11  O   UNL     1       2.155   8.005  19.105  0.00  0.00    +0.000 OA
ATOM     12  N   UNL     1       1.714   6.336  20.655  0.00  0.00    +0.000 N 
ATOM     13  H   UNL     1       1.157   6.111  21.459  0.00  0.00    +0.000 HD
BRANCH  12  14
ATOM     14  C   UNL     1       2.348   5.252  19.985  0.00  0.00    +0.000 A 
ATOM     15  C   UNL     1       1.626   4.195  19.426  0.00  0.00    +0.000 A 
ATOM     16  C   UNL     1       2.270   3.136  18.789  0.00  0.00    +0.000 A 
ATOM     17  C   UNL     1       3.655   3.120  18.705  0.00  0.00    +0.000 A 
ATOM     18  C   UNL     1       4.398   4.172  19.238  0.00  0.00    +0.000 A 
ATOM     19  C   UNL     1       3.748   5.239  19.878  0.00  0.00    +0.000 A 
BRANCH  18  20
ATOM     20  O   UNL     1       5.754   4.029  19.110  0.00  0.00    +0.000 OA
BRANCH  20  21
ATOM     21  C   UNL     1       6.456   5.147  18.586  0.00  0.00    +0.000 C 
BRANCH  21  22
ATOM     22  C   UNL     1       7.120   4.821  17.239  0.00  0.00    +0.000 C 
ATOM     23  O   UNL     1       8.172   4.182  17.176  0.00  0.00    +0.000 OA
ATOM     24  N   UNL     1       6.467   5.275  16.092  0.00  0.00    +0.000 N 
ATOM     25  C   UNL     1       5.217   6.020  16.070  0.00  0.00    +0.000 C 
ATOM     26  C   UNL     1       7.055   4.993  14.790  0.00  0.00    +0.000 C 
ENDBRANCH  21  22
ENDBRANCH  20  21
ENDBRANCH  18  20
ENDBRANCH  12  14
ENDBRANCH   6  10
BRANCH   1  28
ATOM     27  C   UNL     1      -2.423  14.488  22.350  0.00  0.00    +0.000 C 
ATOM     28  C   UNL     1      -1.001  14.089  22.799  0.00  0.00    +0.000 C 
ENDBRANCH   1  28
BRANCH   9  29
ATOM     29  N   UNL     1       0.756  13.118  20.002  0.00  0.00    +0.000 N 
BRANCH  29  30
ATOM     30  C   UNL     1      -0.116  13.825  19.017  0.00  0.00    +0.000 C 
ATOM     31  C   UNL     1      -0.713  12.984  17.878  0.00  0.00    +0.000 C 
ENDBRANCH  29  30
BRANCH  29  32
ATOM     32  C   UNL     1       2.227  13.193  19.750  0.00  0.00    +0.000 C 
BRANCH  32  33
ATOM     33  C   UNL     1       2.890  14.477  20.258  0.00  0.00    +0.000 C 
BRANCH  33  34
ATOM     34  O   UNL     1       3.909  14.947  19.353  0.00  0.00    +0.000 OA
ATOM     35  C   UNL     1       3.326  15.258  18.086  0.00  0.00    +0.000 C 
ENDBRANCH  33  34
ENDBRANCH  32  33
ENDBRANCH  29  32
ENDBRANCH   9  29
TORSDOF 11
ENDMDL
MODEL 3
REMARK VINA RESULT:      -7.2      1.244      1.528
REMARK  Name = 
REMARK  16 active torsions:
REMARK  status: ('A' for Active; 'I' for Inactive)
REMARK    1  A    between atoms: C_1  and  C_2
REMARK    2  A    between atoms: C_2  and  C_3
REMARK    3  A    between atoms: C_8  and  C_9
REMARK    4  A    between atoms: N_11  and  C_12
REMARK    5  A    between atoms: C_16  and  O_17
REMARK    6  A    between atoms: O_17  and  C_18
REMARK    7  A    between atoms: C_18  and  C_19
REMARK    8  A    between atoms: N_21  and  C_22
REMARK    9  A    between atoms: N_21  and  C_23
REMARK   10  A    between atoms: C_27  and  N_28
REMARK   11  A    between atoms: N_28  and  C_29
REMARK   12  A    between atoms: N_28  and  C_31
REMARK   13  A    between atoms: C_29  and  C_30
REMARK   14  A    between atoms: C_31  and  C_32
REMARK   15  A    between atoms: C_32  and  O_33
REMARK   16  A    between atoms: O_33  and  C_34
REMARK                            x       y       z     vdW  Elec       q    Type
REMARK                         _______ _______ _______ _____ _____    ______ ____
ROOT
ATOM      1  C   UNL     1      -1.225  12.355  22.270  0.00  0.00    +0.000 A 
ATOM      2  N   UNL     1      -1.017  11.312  23.134  0.00  0.00    +0.000 NA
ATOM      3  C   UNL     1      -0.355  10.408  22.480  0.00  0.00    +0.000 A 
ATOM      4  C   UNL     1       0.143   9.165  22.959  0.00  0.00    +0.000 A 
ATOM      5  C   UNL     1       0.828   8.351  22.146  0.00  0.00    +0.000 A 
ATOM      6  C   UNL     1       1.054   8.717  20.762  0.00  0.00    +0.000 A 
ATOM      7  C   UNL     1       0.610   9.924  20.314  0.00  0.00    +0.000 A 
ATOM      8  N   UNL     1      -0.111  10.790  21.157  0.00  0.00    +0.000 N 
ATOM      9  C   UNL     1      -0.670  12.106  20.987  0.00  0.00    +0.000 A 
ENDROOT
BRANCH   6  10
ATOM     10  C   UNL     1       1.860   7.895  19.796  0.00  0.00    +0.000 C 
ATOM     11  O   UNL     1       2.221   8.412  18.765  0.00  0.00    +0.000 OA
ATOM     12  N   UNL     1       2.062   6.557  20.150  0.00  0.00    +0.000 N 
ATOM     13  H   UNL     1       1.577   6.186  20.947  0.00  0.00    +0.000 HD
BRANCH  12  14
ATOM     14  C   UNL     1       2.786   5.631  19.347  0.00  0.00    +0.000 A 
ATOM     15  C   UNL     1       2.183   4.906  18.315  0.00  0.00    +0.000 A 
ATOM     16  C   UNL     1       2.908   3.993  17.553  0.00  0.00    +0.000 A 
ATOM     17  C   UNL     1       4.256   3.790  17.817  0.00  0.00    +0.000 A 
ATOM     18  C   UNL     1       4.885   4.514  18.829  0.00  0.00    +0.000 A 
ATOM     19  C   UNL     1       4.154   5.435  19.594  0.00  0.00    +0.000 A 
BRANCH  18  20
ATOM     20  O   UNL     1       6.208   4.207  19.004  0.00  0.00    +0.000 OA
BRANCH  20  21
ATOM     21  C   UNL     1       7.097   4.669  17.997  0.00  0.00    +0.000 C 
BRANCH  21  22
ATOM     22  C   UNL     1       7.569   6.105  18.269  0.00  0.00    +0.000 C 
ATOM     23  O   UNL     1       8.380   6.360  19.162  0.00  0.00    +0.000 OA
ATOM     24  N   UNL     1       7.042   7.105  17.450  0.00  0.00    +0.000 N 
ATOM     25  C   UNL     1       6.095   6.895  16.364  0.00  0.00    +0.000 C 
ATOM     26  C   UNL     1       7.457   8.483  17.666  0.00  0.00    +0.000 C 
ENDBRANCH  21  22
ENDBRANCH  20  21
ENDBRANCH  18  20
ENDBRANCH  12  14
ENDBRANCH   6  10
BRANCH   1  28
ATOM     27  C   UNL     1      -2.866  13.161  24.088  0.00  0.00    +0.000 C 
ATOM     28  C   UNL     1      -1.959  13.516  22.890  0.00  0.00    +0.000 C 
ENDBRANCH   1  28
BRANCH   9  29
ATOM     29  N   UNL     1      -0.599  12.876  19.792  0.00  0.00    +0.000 N 
BRANCH  29  30
ATOM     30  C   UNL     1       0.149  14.167  19.717  0.00  0.00    +0.000 C 
ATOM     31  C   UNL     1       1.130  14.344  18.548  0.00  0.00    +0.000 C 
ENDBRANCH  29  30
BRANCH  29  32
ATOM     32  C   UNL     1      -1.299  12.449  18.542  0.00  0.00    +0.000 C 
BRANCH  32  33
ATOM     33  C   UNL     1      -2.709  11.896  18.766  0.00  0.00    +0.000 C 
BRANCH  33  34
ATOM     34  O   UNL     1      -2.995  10.788  17.889  0.00  0.00    +0.000 OA
ATOM     35  C   UNL     1      -1.789  10.082  17.591  0.00  0.00    +0.000 C 
ENDBRANCH  33  34
ENDBRANCH  32  33
ENDBRANCH  29  32
ENDBRANCH   9  29
TORSDOF 11
ENDMDL
MODEL 4
REMARK VINA RESULT:      -7.1      2.157      3.298
REMARK  Name = 
REMARK  16 active torsions:
REMARK  status: ('A' for Active; 'I' for Inactive)
REMARK    1  A    between atoms: C_1  and  C_2
REMARK    2  A    between atoms: C_2  and  C_3
REMARK    3  A    between atoms: C_8  and  C_9
REMARK    4  A    between atoms: N_11  and  C_12
REMARK    5  A    between atoms: C_16  and  O_17
REMARK    6  A    between atoms: O_17  and  C_18
REMARK    7  A    between atoms: C_18  and  C_19
REMARK    8  A    between atoms: N_21  and  C_22
REMARK    9  A    between atoms: N_21  and  C_23
REMARK   10  A    between atoms: C_27  and  N_28
REMARK   11  A    between atoms: N_28  and  C_29
REMARK   12  A    between atoms: N_28  and  C_31
REMARK   13  A    between atoms: C_29  and  C_30
REMARK   14  A    between atoms: C_31  and  C_32
REMARK   15  A    between atoms: C_32  and  O_33
REMARK   16  A    between atoms: O_33  and  C_34
REMARK                            x       y       z     vdW  Elec       q    Type
REMARK                         _______ _______ _______ _____ _____    ______ ____
ROOT
ATOM      1  C   UNL     1      -0.171  13.045  22.014  0.00  0.00    +0.000 A 
ATOM      2  N   UNL     1      -0.689  12.075  22.833  0.00  0.00    +0.000 NA
ATOM      3  C   UNL     1      -0.268  10.936  22.379  0.00  0.00    +0.000 A 
ATOM      4  C   UNL     1      -0.492   9.638  22.918  0.00  0.00    +0.000 A 
ATOM      5  C   UNL     1       0.037   8.558  22.328  0.00  0.00    +0.000 A 
ATOM      6  C   UNL     1       0.828   8.696  21.121  0.00  0.00    +0.000 A 
ATOM      7  C   UNL     1       1.074   9.941  20.627  0.00  0.00    +0.000 A 
ATOM      8  N   UNL     1       0.525  11.084  21.236  0.00  0.00    +0.000 N 
ATOM      9  C   UNL     1       0.625  12.496  20.973  0.00  0.00    +0.000 A 
ENDROOT
BRANCH   6  10
ATOM     10  C   UNL     1       1.507   7.549  20.427  0.00  0.00    +0.000 C 
ATOM     11  O   UNL     1       2.070   7.765  19.380  0.00  0.00    +0.000 OA
ATOM     12  N   UNL     1       1.362   6.296  21.028  0.00  0.00    +0.000 N 
ATOM     13  H   UNL     1       0.734   6.199  21.806  0.00  0.00    +0.000 HD
BRANCH  12  14
ATOM     14  C   UNL     1       1.922   5.099  20.500  0.00  0.00    +0.000 A 
ATOM     15  C   UNL     1       1.164   3.942  20.304  0.00  0.00    +0.000 A 
ATOM     16  C   UNL     1       1.738   2.777  19.800  0.00  0.00    +0.000 A 
ATOM     17  C   UNL     1       3.090   2.753  19.485  0.00  0.00    +0.000 A 
ATOM     18  C   UNL     1       3.865   3.900  19.654  0.00  0.00    +0.000 A 
ATOM     19  C   UNL     1       3.285   5.073  20.160  0.00  0.00    +0.000 A 
BRANCH  18  20
ATOM     20  O   UNL     1       5.186   3.742  19.329  0.00  0.00    +0.000 OA
BRANCH  20  21
ATOM     21  C   UNL     1       5.587   4.259  18.068  0.00  0.00    +0.000 C 
BRANCH  21  22
ATOM     22  C   UNL     1       6.728   5.278  18.207  0.00  0.00    +0.000 C 
ATOM     23  O   UNL     1       7.718   5.047  18.904  0.00  0.00    +0.000 OA
ATOM     24  N   UNL     1       6.592   6.472  17.497  0.00  0.00    +0.000 N 
ATOM     25  C   UNL     1       5.469   6.822  16.639  0.00  0.00    +0.000 C 
ATOM     26  C   UNL     1       7.646   7.471  17.594  0.00  0.00    +0.000 C 
ENDBRANCH  21  22
ENDBRANCH  20  21
ENDBRANCH  18  20
ENDBRANCH  12  14
ENDBRANCH   6  10
BRANCH   1  28
ATOM     27  C   UNL     1      -2.055  14.734  22.503  0.00  0.00    +0.000 C 
ATOM     28  C   UNL     1      -0.540  14.446  22.427  0.00  0.00    +0.000 C 
ENDBRANCH   1  28
BRANCH   9  29
ATOM     29  N   UNL     1       1.382  13.080  19.918  0.00  0.00    +0.000 N 
BRANCH  29  30
ATOM     30  C   UNL     1       0.870  13.162  18.518  0.00  0.00    +0.000 C 
ATOM     31  C   UNL     1      -0.645  13.002  18.313  0.00  0.00    +0.000 C 
ENDBRANCH  29  30
BRANCH  29  32
ATOM     32  C   UNL     1       2.757  13.621  20.148  0.00  0.00    +0.000 C 
BRANCH  32  33
ATOM     33  C   UNL     1       2.970  15.045  19.627  0.00  0.00    +0.000 C 
BRANCH  33  34
ATOM     34  O   UNL     1       4.258  15.198  19.000  0.00  0.00    +0.000 OA
ATOM     35  C   UNL     1       4.420  16.544  18.548  0.00  0.00    +0.000 C 
ENDBRANCH  33  34
ENDBRANCH  32  33
ENDBRANCH  29  32
ENDBRANCH   9  29
TORSDOF 11
ENDMDL
MODEL 5
REMARK VINA RESULT:      -7.0      1.734      2.503
REMARK  Name = 
REMARK  16 active torsions:
REMARK  status: ('A' for Active; 'I' for Inactive)
REMARK    1  A    between atoms: C_1  and  C_2
REMARK    2  A    between atoms: C_2  and  C_3
REMARK    3  A    between atoms: C_8  and  C_9
REMARK    4  A    between atoms: N_11  and  C_12
REMARK    5  A    between atoms: C_16  and  O_17
REMARK    6  A    between atoms: O_17  and  C_18
REMARK    7  A    between atoms: C_18  and  C_19
REMARK    8  A    between atoms: N_21  and  C_22
REMARK    9  A    between atoms: N_21  and  C_23
REMARK   10  A    between atoms: C_27  and  N_28
REMARK   11  A    between atoms: N_28  and  C_29
REMARK   12  A    between atoms: N_28  and  C_31
REMARK   13  A    between atoms: C_29  and  C_30
REMARK   14  A    between atoms: C_31  and  C_32
REMARK   15  A    between atoms: C_32  and  O_33
REMARK   16  A    between atoms: O_33  and  C_34
REMARK                            x       y       z     vdW  Elec       q    Type
REMARK                         _______ _______ _______ _____ _____    ______ ____
ROOT
ATOM      1  C   UNL     1      -1.410  12.583  21.332  0.00  0.00    +0.000 A 
ATOM      2  N   UNL     1      -1.246  11.874  22.494  0.00  0.00    +0.000 NA
ATOM      3  C   UNL     1      -0.624  10.780  22.182  0.00  0.00    +0.000 A 
ATOM      4  C   UNL     1      -0.179   9.743  23.049  0.00  0.00    +0.000 A 
ATOM      5  C   UNL     1       0.471   8.680  22.558  0.00  0.00    +0.000 A 
ATOM      6  C   UNL     1       0.712   8.562  21.134  0.00  0.00    +0.000 A 
ATOM      7  C   UNL     1       0.320   9.572  20.308  0.00  0.00    +0.000 A 
ATOM      8  N   UNL     1      -0.364  10.694  20.810  0.00  0.00    +0.000 N 
ATOM      9  C   UNL     1      -0.866  11.903  20.210  0.00  0.00    +0.000 A 
ENDROOT
BRANCH   6  10
ATOM     10  C   UNL     1       1.482   7.436  20.503  0.00  0.00    +0.000 C 
ATOM     11  O   UNL     1       2.257   7.699  19.615  0.00  0.00    +0.000 OA
ATOM     12  N   UNL     1       1.172   6.151  20.958  0.00  0.00    +0.000 N 
ATOM     13  H   UNL     1       0.393   6.030  21.580  0.00  0.00    +0.000 HD
BRANCH  12  14
ATOM     14  C   UNL     1       1.790   4.969  20.461  0.00  0.00    +0.000 A 
ATOM     15  C   UNL     1       1.083   3.779  20.274  0.00  0.00    +0.000 A 
ATOM     16  C   UNL     1       1.713   2.630  19.800  0.00  0.00    +0.000 A 
ATOM     17  C   UNL     1       3.069   2.656  19.509  0.00  0.00    +0.000 A 
ATOM     18  C   UNL     1       3.794   3.836  19.670  0.00  0.00    +0.000 A 
ATOM     19  C   UNL     1       3.158   4.993  20.145  0.00  0.00    +0.000 A 
BRANCH  18  20
ATOM     20  O   UNL     1       5.126   3.727  19.370  0.00  0.00    +0.000 OA
BRANCH  20  21
ATOM     21  C   UNL     1       5.512   4.148  18.069  0.00  0.00    +0.000 C 
BRANCH  21  22
ATOM     22  C   UNL     1       6.700   5.119  18.114  0.00  0.00    +0.000 C 
ATOM     23  O   UNL     1       7.782   4.793  18.606  0.00  0.00    +0.000 OA
ATOM     24  N   UNL     1       6.497   6.385  17.562  0.00  0.00    +0.000 N 
ATOM     25  C   UNL     1       5.263   6.851  16.948  0.00  0.00    +0.000 C 
ATOM     26  C   UNL     1       7.593   7.344  17.579  0.00  0.00    +0.000 C 
ENDBRANCH  21  22
ENDBRANCH  20  21
ENDBRANCH  18  20
ENDBRANCH  12  14
ENDBRANCH   6  10
BRANCH   1  28
ATOM     27  C   UNL     1      -3.616  13.915  21.270  0.00  0.00    +0.000 C 
ATOM     28  C   UNL     1      -2.093  13.911  21.526  0.00  0.00    +0.000 C 
ENDBRANCH   1  28
BRANCH   9  29
ATOM     29  N   UNL     1      -0.762  12.235  18.829  0.00  0.00    +0.000 N 
BRANCH  29  30
ATOM     30  C   UNL     1      -1.807  11.847  17.834  0.00  0.00    +0.000 C 
ATOM     31  C   UNL     1      -2.346  10.410  17.905  0.00  0.00    +0.000 C 
ENDBRANCH  29  30
BRANCH  29  32
ATOM     32  C   UNL     1       0.422  12.969  18.287  0.00  0.00    +0.000 C 
BRANCH  32  33
ATOM     33  C   UNL     1       0.986  14.039  19.227  0.00  0.00    +0.000 C 
BRANCH  33  34
ATOM     34  O   UNL     1       0.873  15.360  18.662  0.00  0.00    +0.000 OA
ATOM     35  C   UNL     1      -0.409  15.912  18.972  0.00  0.00    +0.000 C 
ENDBRANCH  33  34
ENDBRANCH  32  33
ENDBRANCH  29  32
ENDBRANCH   9  29
TORSDOF 11
ENDMDL
MODEL 6
REMARK VINA RESULT:      -6.9      2.582     10.225
REMARK  Name = 
REMARK  16 active torsions:
REMARK  status: ('A' for Active; 'I' for Inactive)
REMARK    1  A    between atoms: C_1  and  C_2
REMARK    2  A    between atoms: C_2  and  C_3
REMARK    3  A    between atoms: C_8  and  C_9
REMARK    4  A    between atoms: N_11  and  C_12
REMARK    5  A    between atoms: C_16  and  O_17
REMARK    6  A    between atoms: O_17  and  C_18
REMARK    7  A    between atoms: C_18  and  C_19
REMARK    8  A    between atoms: N_21  and  C_22
REMARK    9  A    between atoms: N_21  and  C_23
REMARK   10  A    between atoms: C_27  and  N_28
REMARK   11  A    between atoms: N_28  and  C_29
REMARK   12  A    between atoms: N_28  and  C_31
REMARK   13  A    between atoms: C_29  and  C_30
REMARK   14  A    between atoms: C_31  and  C_32
REMARK   15  A    between atoms: C_32  and  O_33
REMARK   16  A    between atoms: O_33  and  C_34
REMARK                            x       y       z     vdW  Elec       q    Type
REMARK                         _______ _______ _______ _____ _____    ______ ____
ROOT
ATOM      1  C   UNL     1       5.081   4.502  16.494  0.00  0.00    +0.000 A 
ATOM      2  N   UNL     1       5.010   5.816  16.110  0.00  0.00    +0.000 NA
ATOM      3  C   UNL     1       4.226   6.412  16.953  0.00  0.00    +0.000 A 
ATOM      4  C   UNL     1       3.879   7.791  17.008  0.00  0.00    +0.000 A 
ATOM      5  C   UNL     1       3.062   8.247  17.965  0.00  0.00    +0.000 A 
ATOM      6  C   UNL     1       2.504   7.338  18.947  0.00  0.00    +0.000 A 
ATOM      7  C   UNL     1       2.866   6.025  18.918  0.00  0.00    +0.000 A 
ATOM      8  N   UNL     1       3.723   5.532  17.917  0.00  0.00    +0.000 N 
ATOM      9  C   UNL     1       4.295   4.239  17.647  0.00  0.00    +0.000 A 
ENDROOT
BRANCH   6  10
ATOM     10  C   UNL     1       1.628   7.770  20.089  0.00  0.00    +0.000 C 
ATOM     11  O   UNL     1       1.205   6.923  20.839  0.00  0.00    +0.000 OA
ATOM     12  N   UNL     1       1.314   9.131  20.140  0.00  0.00    +0.000 N 
ATOM     13  H   UNL     1       1.581   9.721  19.373  0.00  0.00    +0.000 HD
BRANCH  12  14
ATOM     14  C   UNL     1       0.484   9.712  21.141  0.00  0.00    +0.000 A 
ATOM     15  C   UNL     1       0.521   9.297  22.474  0.00  0.00    +0.000 A 
ATOM     16  C   UNL     1      -0.312   9.869  23.433  0.00  0.00    +0.000 A 
ATOM     17  C   UNL     1      -1.202  10.869  23.067  0.00  0.00    +0.000 A 
ATOM     18  C   UNL     1      -1.245  11.314  21.746  0.00  0.00    +0.000 A 
ATOM     19  C   UNL     1      -0.404  10.738  20.782  0.00  0.00    +0.000 A 
BRANCH  18  20
ATOM     20  O   UNL     1      -2.178  12.288  21.509  0.00  0.00    +0.000 OA
BRANCH  20  21
ATOM     21  C   UNL     1      -2.206  12.822  20.193  0.00  0.00    +0.000 C 
BRANCH  21  22
ATOM     22  C   UNL     1      -3.364  12.241  19.368  0.00  0.00    +0.000 C 
ATOM     23  O   UNL     1      -3.183  11.340  18.546  0.00  0.00    +0.000 OA
ATOM     24  N   UNL     1      -4.632  12.777  19.602  0.00  0.00    +0.000 N 
ATOM     25  C   UNL     1      -4.941  13.827  20.561  0.00  0.00    +0.000 C 
ATOM     26  C   UNL     1      -5.764  12.261  18.846  0.00  0.00    +0.000 C 
ENDBRANCH  21  22
ENDBRANCH  20  21
ENDBRANCH  18  20
ENDBRANCH  12  14
ENDBRANCH   6  10
BRANCH   1  28
ATOM     27  C   UNL     1       5.931   3.978  14.117  0.00  0.00    +0.000 C 
ATOM     28  C   UNL     1       5.990   3.668  15.629  0.00  0.00    +0.000 C 
ENDBRANCH   1  28
BRANCH   9  29
ATOM     29  N   UNL     1       4.073   3.068  18.425  0.00  0.00    +0.000 N 
BRANCH  29  30
ATOM     30  C   UNL     1       3.181   1.961  17.968  0.00  0.00    +0.000 C 
ATOM     31  C   UNL     1       1.668   2.228  17.979  0.00  0.00    +0.000 C 
ENDBRANCH  29  30
BRANCH  29  32
ATOM     32  C   UNL     1       4.703   2.891  19.770  0.00  0.00    +0.000 C 
BRANCH  32  33
ATOM     33  C   UNL     1       3.740   2.411  20.860  0.00  0.00    +0.000 C 
BRANCH  33  34
ATOM     34  O   UNL     1       2.685   3.363  21.099  0.00  0.00    +0.000 OA
ATOM     35  C   UNL     1       1.556   2.701  21.673  0.00  0.00    +0.000 C 
ENDBRANCH  33  34
ENDBRANCH  32  33
ENDBRANCH  29  32
ENDBRANCH   9  29
TORSDOF 11
ENDMDL
MODEL 7
REMARK VINA RESULT:      -6.8      3.560      9.508
REMARK  Name = 
REMARK  16 active torsions:
REMARK  status: ('A' for Active; 'I' for Inactive)
REMARK    1  A    between atoms: C_1  and  C_2
REMARK    2  A    between atoms: C_2  and  C_3
REMARK    3  A    between atoms: C_8  and  C_9
REMARK    4  A    between atoms: N_11  and  C_12
REMARK    5  A    between atoms: C_16  and  O_17
REMARK    6  A    between atoms: O_17  and  C_18
REMARK    7  A    between atoms: C_18  and  C_19
REMARK    8  A    between atoms: N_21  and  C_22
REMARK    9  A    between atoms: N_21  and  C_23
REMARK   10  A    between atoms: C_27  and  N_28
REMARK   11  A    between atoms: N_28  and  C_29
REMARK   12  A    between atoms: N_28  and  C_31
REMARK   13  A    between atoms: C_29  and  C_30
REMARK   14  A    between atoms: C_31  and  C_32
REMARK   15  A    between atoms: C_32  and  O_33
REMARK   16  A    between atoms: O_33  and  C_34
REMARK                            x       y       z     vdW  Elec       q    Type
REMARK                         _______ _______ _______ _____ _____    ______ ____
ROOT
ATOM      1  C   UNL     1       3.817   4.039  19.138  0.00  0.00    +0.000 A 
ATOM      2  N   UNL     1       2.974   4.388  20.160  0.00  0.00    +0.000 NA
ATOM      3  C   UNL     1       2.601   5.610  19.939  0.00  0.00    +0.000 A 
ATOM      4  C   UNL     1       1.687   6.400  20.691  0.00  0.00    +0.000 A 
ATOM      5  C   UNL     1       1.398   7.650  20.309  0.00  0.00    +0.000 A 
ATOM      6  C   UNL     1       2.028   8.222  19.135  0.00  0.00    +0.000 A 
ATOM      7  C   UNL     1       2.874   7.454  18.395  0.00  0.00    +0.000 A 
ATOM      8  N   UNL     1       3.187   6.139  18.785  0.00  0.00    +0.000 N 
ATOM      9  C   UNL     1       4.000   5.098  18.210  0.00  0.00    +0.000 A 
ENDROOT
BRANCH   6  10
ATOM     10  C   UNL     1       1.721   9.593  18.601  0.00  0.00    +0.000 C 
ATOM     11  O   UNL     1       1.906   9.805  17.426  0.00  0.00    +0.000 OA
ATOM     12  N   UNL     1       1.309  10.540  19.543  0.00  0.00    +0.000 N 
ATOM     13  H   UNL     1       1.349  10.306  20.518  0.00  0.00    +0.000 HD
BRANCH  12  14
ATOM     14  C   UNL     1       0.993  11.889  19.217  0.00  0.00    +0.000 A 
ATOM     15  C   UNL     1      -0.315  12.310  18.963  0.00  0.00    +0.000 A 
ATOM     16  C   UNL     1      -0.598  13.633  18.631  0.00  0.00    +0.000 A 
ATOM     17  C   UNL     1       0.432  14.559  18.544  0.00  0.00    +0.000 A 
ATOM     18  C   UNL     1       1.745  14.169  18.810  0.00  0.00    +0.000 A 
ATOM     19  C   UNL     1       2.028  12.837  19.147  0.00  0.00    +0.000 A 
BRANCH  18  20
ATOM     20  O   UNL     1       2.670  15.168  18.671  0.00  0.00    +0.000 OA
BRANCH  20  21
ATOM     21  C   UNL     1       3.755  15.150  19.587  0.00  0.00    +0.000 C 
BRANCH  21  22
ATOM     22  C   UNL     1       4.668  16.373  19.412  0.00  0.00    +0.000 C 
ATOM     23  O   UNL     1       4.283  17.511  19.689  0.00  0.00    +0.000 OA
ATOM     24  N   UNL     1       5.958  16.130  18.936  0.00  0.00    +0.000 N 
ATOM     25  C   UNL     1       6.502  14.823  18.601  0.00  0.00    +0.000 C 
ATOM     26  C   UNL     1       6.863  17.255  18.753  0.00  0.00    +0.000 C 
ENDBRANCH  21  22
ENDBRANCH  20  21
ENDBRANCH  18  20
ENDBRANCH  12  14
ENDBRANCH   6  10
BRANCH   1  28
ATOM     27  C   UNL     1       3.503   1.580  18.430  0.00  0.00    +0.000 C 
ATOM     28  C   UNL     1       4.319   2.621  19.226  0.00  0.00    +0.000 C 
ENDBRANCH   1  28
BRANCH   9  29
ATOM     29  N   UNL     1       4.737   5.212  16.998  0.00  0.00    +0.000 N 
BRANCH  29  30
ATOM     30  C   UNL     1       4.790   4.112  15.989  0.00  0.00    +0.000 C 
ATOM     31  C   UNL     1       5.603   4.369  14.711  0.00  0.00    +0.000 C 
ENDBRANCH  29  30
BRANCH  29  32
ATOM     32  C   UNL     1       5.531   6.437  16.676  0.00  0.00    +0.000 C 
BRANCH  32  33
ATOM     33  C   UNL     1       6.851   6.554  17.443  0.00  0.00    +0.000 C 
BRANCH  33  34
ATOM     34  O   UNL     1       7.717   7.552  16.869  0.00  0.00    +0.000 OA
ATOM     35  C   UNL     1       7.943   8.601  17.813  0.00  0.00    +0.000 C 
ENDBRANCH  33  34
ENDBRANCH  32  33
ENDBRANCH  29  32
ENDBRANCH   9  29
TORSDOF 11
ENDMDL
MODEL 8
REMARK VINA RESULT:      -6.7      2.439      3.411
REMARK  Name = 
REMARK  16 active torsions:
REMARK  status: ('A' for Active; 'I' for Inactive)
REMARK    1  A    between atoms: C_1  and  C_2
REMARK    2  A    between atoms: C_2  and  C_3
REMARK    3  A    between atoms: C_8  and  C_9
REMARK    4  A    between atoms: N_11  and  C_12
REMARK    5  A    between atoms: C_16  and  O_17
REMARK    6  A    between atoms: O_17  and  C_18
REMARK    7  A    between atoms: C_18  and  C_19
REMARK    8  A    between atoms: N_21  and  C_22
REMARK    9  A    between atoms: N_21  and  C_23
REMARK   10  A    between atoms: C_27  and  N_28
REMARK   11  A    between atoms: N_28  and  C_29
REMARK   12  A    between atoms: N_28  and  C_31
REMARK   13  A    between atoms: C_29  and  C_30
REMARK   14  A    between atoms: C_31  and  C_32
REMARK   15  A    between atoms: C_32  and  O_33
REMARK   16  A    between atoms: O_33  and  C_34
REMARK                            x       y       z     vdW  Elec       q    Type
REMARK                         _______ _______ _______ _____ _____    ______ ____
ROOT
ATOM      1  C   UNL     1      -0.722  13.203  22.222  0.00  0.00    +0.000 A 
ATOM      2  N   UNL     1      -1.040  12.163  23.057  0.00  0.00    +0.000 NA
ATOM      3  C   UNL     1      -0.504  11.097  22.549  0.00  0.00    +0.000 A 
ATOM      4  C   UNL     1      -0.508   9.775  23.076  0.00  0.00    +0.000 A 
ATOM      5  C   UNL     1       0.115   8.784  22.426  0.00  0.00    +0.000 A 
ATOM      6  C   UNL     1       0.786   9.042  21.167  0.00  0.00    +0.000 A 
ATOM      7  C   UNL     1       0.823  10.314  20.682  0.00  0.00    +0.000 A 
ATOM      8  N   UNL     1       0.172  11.364  21.354  0.00  0.00    +0.000 N 
ATOM      9  C   UNL     1       0.059  12.780  21.114  0.00  0.00    +0.000 A 
ENDROOT
BRANCH   6  10
ATOM     10  C   UNL     1       1.560   8.006  20.400  0.00  0.00    +0.000 C 
ATOM     11  O   UNL     1       2.104   8.340  19.375  0.00  0.00    +0.000 OA
ATOM     12  N   UNL     1       1.520   6.706  20.914  0.00  0.00    +0.000 N 
ATOM     13  H   UNL     1       0.902   6.504  21.679  0.00  0.00    +0.000 HD
BRANCH  12  14
ATOM     14  C   UNL     1       2.179   5.599  20.309  0.00  0.00    +0.000 A 
ATOM     15  C   UNL     1       2.256   4.348  20.925  0.00  0.00    +0.000 A 
ATOM     16  C   UNL     1       2.921   3.283  20.320  0.00  0.00    +0.000 A 
ATOM     17  C   UNL     1       3.523   3.459  19.082  0.00  0.00    +0.000 A 
ATOM     18  C   UNL     1       3.445   4.693  18.438  0.00  0.00    +0.000 A 
ATOM     19  C   UNL     1       2.774   5.764  19.047  0.00  0.00    +0.000 A 
BRANCH  18  20
ATOM     20  O   UNL     1       4.097   4.744  17.235  0.00  0.00    +0.000 OA
BRANCH  20  21
ATOM     21  C   UNL     1       5.516   4.737  17.290  0.00  0.00    +0.000 C 
BRANCH  21  22
ATOM     22  C   UNL     1       6.106   6.117  16.961  0.00  0.00    +0.000 C 
ATOM     23  O   UNL     1       5.721   6.768  15.988  0.00  0.00    +0.000 OA
ATOM     24  N   UNL     1       7.090   6.601  17.825  0.00  0.00    +0.000 N 
ATOM     25  C   UNL     1       7.593   5.910  19.004  0.00  0.00    +0.000 C 
ATOM     26  C   UNL     1       7.681   7.904  17.559  0.00  0.00    +0.000 C 
ENDBRANCH  21  22
ENDBRANCH  20  21
ENDBRANCH  18  20
ENDBRANCH  12  14
ENDBRANCH   6  10
BRANCH   1  28
ATOM     27  C   UNL     1      -2.583  14.979  22.061  0.00  0.00    +0.000 C 
ATOM     28  C   UNL     1      -1.246  14.536  22.691  0.00  0.00    +0.000 C 
ENDBRANCH   1  28
BRANCH   9  29
ATOM     29  N   UNL     1       0.648  13.472  20.019  0.00  0.00    +0.000 N 
BRANCH  29  30
ATOM     30  C   UNL     1      -0.170  14.087  18.930  0.00  0.00    +0.000 C 
ATOM     31  C   UNL     1      -0.421  15.601  19.010  0.00  0.00    +0.000 C 
ENDBRANCH  29  30
BRANCH  29  32
ATOM     32  C   UNL     1       2.131  13.599  19.878  0.00  0.00    +0.000 C 
BRANCH  32  33
ATOM     33  C   UNL     1       2.744  14.753  20.678  0.00  0.00    +0.000 C 
BRANCH  33  34
ATOM     34  O   UNL     1       3.125  15.851  19.825  0.00  0.00    +0.000 OA
ATOM     35  C   UNL     1       2.870  17.091  20.489  0.00  0.00    +0.000 C 
ENDBRANCH  33  34
ENDBRANCH  32  33
ENDBRANCH  29  32
ENDBRANCH   9  29
TORSDOF 11
ENDMDL
MODEL 9
REMARK VINA RESULT:      -6.7      2.940     10.674
REMARK  Name = 
REMARK  16 active torsions:
REMARK  status: ('A' for Active; 'I' for Inactive)
REMARK    1  A    between atoms: C_1  and  C_2
REMARK    2  A    between atoms: C_2  and  C_3
REMARK    3  A    between atoms: C_8  and  C_9
REMARK    4  A    between atoms: N_11  and  C_12
REMARK    5  A    between atoms: C_16  and  O_17
REMARK    6  A    between atoms: O_17  and  C_18
REMARK    7  A    between atoms: C_18  and  C_19
REMARK    8  A    between atoms: N_21  and  C_22
REMARK    9  A    between atoms: N_21  and  C_23
REMARK   10  A    between atoms: C_27  and  N_28
REMARK   11  A    between atoms: N_28  and  C_29
REMARK   12  A    between atoms: N_28  and  C_31
REMARK   13  A    between atoms: C_29  and  C_30
REMARK   14  A    between atoms: C_31  and  C_32
REMARK   15  A    between atoms: C_32  and  O_33
REMARK   16  A    between atoms: O_33  and  C_34
REMARK                            x       y       z     vdW  Elec       q    Type
REMARK                         _______ _______ _______ _____ _____    ______ ____
ROOT
ATOM      1  C   UNL     1       5.003   4.422  16.516  0.00  0.00    +0.000 A 
ATOM      2  N   UNL     1       4.967   5.741  16.143  0.00  0.00    +0.000 NA
ATOM      3  C   UNL     1       4.198   6.350  16.992  0.00  0.00    +0.000 A 
ATOM      4  C   UNL     1       3.887   7.737  17.059  0.00  0.00    +0.000 A 
ATOM      5  C   UNL     1       3.081   8.205  18.020  0.00  0.00    +0.000 A 
ATOM      6  C   UNL     1       2.500   7.303  18.994  0.00  0.00    +0.000 A 
ATOM      7  C   UNL     1       2.827   5.982  18.953  0.00  0.00    +0.000 A 
ATOM      8  N   UNL     1       3.672   5.475  17.948  0.00  0.00    +0.000 N 
ATOM      9  C   UNL     1       4.210   4.169  17.667  0.00  0.00    +0.000 A 
ENDROOT
BRANCH   6  10
ATOM     10  C   UNL     1       1.634   7.747  20.139  0.00  0.00    +0.000 C 
ATOM     11  O   UNL     1       1.264   6.916  20.934  0.00  0.00    +0.000 OA
ATOM     12  N   UNL     1       1.266   9.096  20.142  0.00  0.00    +0.000 N 
ATOM     13  H   UNL     1       1.490   9.663  19.344  0.00  0.00    +0.000 HD
BRANCH  12  14
ATOM     14  C   UNL     1       0.438   9.685  21.139  0.00  0.00    +0.000 A 
ATOM     15  C   UNL     1       0.450   9.255  22.469  0.00  0.00    +0.000 A 
ATOM     16  C   UNL     1      -0.382   9.836  23.424  0.00  0.00    +0.000 A 
ATOM     17  C   UNL     1      -1.244  10.860  23.058  0.00  0.00    +0.000 A 
ATOM     18  C   UNL     1      -1.262  11.319  21.741  0.00  0.00    +0.000 A 
ATOM     19  C   UNL     1      -0.423  10.735  20.781  0.00  0.00    +0.000 A 
BRANCH  18  20
ATOM     20  O   UNL     1      -2.170  12.316  21.503  0.00  0.00    +0.000 OA
BRANCH  20  21
ATOM     21  C   UNL     1      -1.803  13.616  21.942  0.00  0.00    +0.000 C 
BRANCH  21  22
ATOM     22  C   UNL     1      -3.007  14.570  21.967  0.00  0.00    +0.000 C 
ATOM     23  O   UNL     1      -3.352  15.200  20.966  0.00  0.00    +0.000 OA
ATOM     24  N   UNL     1      -3.697  14.677  23.176  0.00  0.00    +0.000 N 
ATOM     25  C   UNL     1      -3.372  13.961  24.401  0.00  0.00    +0.000 C 
ATOM     26  C   UNL     1      -4.846  15.567  23.253  0.00  0.00    +0.000 C 
ENDBRANCH  21  22
ENDBRANCH  20  21
ENDBRANCH  18  20
ENDBRANCH  12  14
ENDBRANCH   6  10
BRANCH   1  28
ATOM     27  C   UNL     1       5.972   4.004  14.164  0.00  0.00    +0.000 C 
ATOM     28  C   UNL     1       5.890   3.572  15.644  0.00  0.00    +0.000 C 
ENDBRANCH   1  28
BRANCH   9  29
ATOM     29  N   UNL     1       3.958   2.998  18.435  0.00  0.00    +0.000 N 
BRANCH  29  30
ATOM     30  C   UNL     1       2.968   1.963  18.011  0.00  0.00    +0.000 C 
ATOM     31  C   UNL     1       1.480   2.337  18.096  0.00  0.00    +0.000 C 
ENDBRANCH  29  30
BRANCH  29  32
ATOM     32  C   UNL     1       4.653   2.749  19.735  0.00  0.00    +0.000 C 
BRANCH  32  33
ATOM     33  C   UNL     1       3.722   2.346  20.882  0.00  0.00    +0.000 C 
BRANCH  33  34
ATOM     34  O   UNL     1       2.741   3.365  21.159  0.00  0.00    +0.000 OA
ATOM     35  C   UNL     1       1.558   2.767  21.693  0.00  0.00    +0.000 C 
ENDBRANCH  33  34
ENDBRANCH  32  33
ENDBRANCH  29  32
ENDBRANCH   9  29
TORSDOF 11
ENDMDL
