MODEL 1
REMARK VINA RESULT:      -8.0      0.000      0.000
REMARK  Name = 
REMARK  8 active torsions:
REMARK  status: ('A' for Active; 'I' for Inactive)
REMARK    1  A    between atoms: C_1  and  C_2
REMARK    2  A    between atoms: N_4  and  C_5
REMARK    3  A    between atoms: C_6  and  O_7
REMARK    4  A    between atoms: O_7  and  C_8
REMARK    5  A    between atoms: C_19  and  C_20
REMARK    6  A    between atoms: C_20  and  O_21
REMARK    7  A    between atoms: C_22  and  O_23
REMARK    8  A    between atoms: C_24  and  O_25
REMARK                            x       y       z     vdW  Elec       q    Type
REMARK                         _______ _______ _______ _____ _____    ______ ____
ROOT
ATOM      1  C   UNL     1       3.927   5.308  18.346  0.00  0.00    +0.000 C 
ATOM      2  C   UNL     1       2.764   5.433  19.382  0.00  0.00    +0.000 C 
ATOM      3  O   UNL     1       2.813   4.313  20.285  0.00  0.00    +0.000 OA
ATOM      4  C   UNL     1       2.624   3.025  19.687  0.00  0.00    +0.000 C 
ATOM      5  C   UNL     1       3.576   2.795  18.504  0.00  0.00    +0.000 C 
ATOM      6  C   UNL     1       3.605   4.006  17.567  0.00  0.00    +0.000 C 
ENDROOT
BRANCH   1  10
ATOM      7  C   UNL     1       7.577   5.728  19.483  0.00  0.00    +0.000 C 
ATOM      8  C   UNL     1       6.465   5.572  18.479  0.00  0.00    +0.000 C 
ATOM      9  O   UNL     1       6.681   5.598  17.273  0.00  0.00    +0.000 OA
ATOM     10  N   UNL     1       5.231   5.374  19.044  0.00  0.00    +0.000 N 
ATOM     11  H   UNL     1       5.155   5.546  20.040  0.00  0.00    +0.000 HD
ENDBRANCH   1  10
BRANCH   5  12
ATOM     12  O   UNL     1       3.208   1.625  17.766  0.00  0.00    +0.000 OA
ATOM     13  H   UNL     1       3.113   1.927  16.838  0.00  0.00    +0.000 HD
ENDBRANCH   5  12
BRANCH   6  14
ATOM     14  O   UNL     1       4.427   3.732  16.430  0.00  0.00    +0.000 OA
ATOM     15  H   UNL     1       4.541   2.755  16.376  0.00  0.00    +0.000 HD
ENDBRANCH   6  14
BRANCH   2  16
ATOM     16  O   UNL     1       2.840   6.670  20.126  0.00  0.00    +0.000 OA
BRANCH  16  17
ATOM     17  C   UNL     1       2.169   7.726  19.521  0.00  0.00    +0.000 A 
ATOM     18  C   UNL     1       2.264   7.991  18.144  0.00  0.00    +0.000 A 
ATOM     19  C   UNL     1       1.519   9.007  17.554  0.00  0.00    +0.000 A 
ATOM     20  C   UNL     1       0.685   9.794  18.335  0.00  0.00    +0.000 A 
ATOM     21  C   UNL     1       0.602   9.594  19.716  0.00  0.00    +0.000 A 
ATOM     22  C   UNL     1      -0.238  10.416  20.482  0.00  0.00    +0.000 A 
ATOM     23  C   UNL     1      -0.335  10.250  21.861  0.00  0.00    +0.000 A 
ATOM     24  C   UNL     1       0.406   9.255  22.490  0.00  0.00    +0.000 A 
ATOM     25  C   UNL     1       1.239   8.418  21.737  0.00  0.00    +0.000 A 
ATOM     26  C   UNL     1       1.357   8.560  20.337  0.00  0.00    +0.000 A 
ENDBRANCH  16  17
ENDBRANCH   2  16
BRANCH   4  27
ATOM     27  C   UNL     1       1.140   2.734  19.386  0.00  0.00    +0.000 C 
BRANCH  27  28
ATOM     28  O   UNL     1       0.252   3.260  20.371  0.00  0.00    +0.000 OA
ATOM     29  H   UNL     1      -0.512   3.627  19.890  0.00  0.00    +0.000 HD
ENDBRANCH  27  28
ENDBRANCH   4  27
TORSDOF 7
ENDMDL
MODEL 2
REMARK VINA RESULT:      -7.8      1.583      3.702
REMARK  Name = 
REMARK  8 active torsions:
REMARK  status: ('A' for Active; 'I' for Inactive)
REMARK    1  A    between atoms: C_1  and  C_2
REMARK    2  A    between atoms: N_4  and  C_5
REMARK    3  A    between atoms: C_6  and  O_7
REMARK    4  A    between atoms: O_7  and  C_8
REMARK    5  A    between atoms: C_19  and  C_20
REMARK    6  A    between atoms: C_20  and  O_21
REMARK    7  A    between atoms: C_22  and  O_23
REMARK    8  A    between atoms: C_24  and  O_25
REMARK                            x       y       z     vdW  Elec       q    Type
REMARK                         _______ _______ _______ _____ _____    ______ ____
ROOT
ATOM      1  C   UNL     1       3.548   4.563  19.591  0.00  0.00    +0.000 C 
ATOM      2  C   UNL     1       3.328   6.036  19.119  0.00  0.00    +0.000 C 
ATOM      3  O   UNL     1       3.392   6.087  17.682  0.00  0.00    +0.000 OA
ATOM      4  C   UNL     1       4.647   5.707  17.103  0.00  0.00    +0.000 C 
ATOM      5  C   UNL     1       5.123   4.337  17.608  0.00  0.00    +0.000 C 
ATOM      6  C   UNL     1       4.990   4.225  19.129  0.00  0.00    +0.000 C 
ENDROOT
BRANCH   1  10
ATOM      7  C   UNL     1       0.418   2.416  18.970  0.00  0.00    +0.000 C 
ATOM      8  C   UNL     1       1.457   3.111  19.810  0.00  0.00    +0.000 C 
ATOM      9  O   UNL     1       1.398   3.108  21.035  0.00  0.00    +0.000 OA
ATOM     10  N   UNL     1       2.455   3.704  19.080  0.00  0.00    +0.000 N 
ATOM     11  H   UNL     1       2.300   3.787  18.083  0.00  0.00    +0.000 HD
ENDBRANCH   1  10
BRANCH   5  12
ATOM     12  O   UNL     1       6.479   4.088  17.224  0.00  0.00    +0.000 OA
ATOM     13  H   UNL     1       6.425   3.401  16.526  0.00  0.00    +0.000 HD
ENDBRANCH   5  12
BRANCH   6  14
ATOM     14  O   UNL     1       5.522   2.978  19.582  0.00  0.00    +0.000 OA
ATOM     15  H   UNL     1       4.804   2.308  19.512  0.00  0.00    +0.000 HD
ENDBRANCH   6  14
BRANCH   2  16
ATOM     16  O   UNL     1       2.061   6.561  19.576  0.00  0.00    +0.000 OA
BRANCH  16  17
ATOM     17  C   UNL     1       1.877   7.907  19.282  0.00  0.00    +0.000 A 
ATOM     18  C   UNL     1       2.303   8.481  18.071  0.00  0.00    +0.000 A 
ATOM     19  C   UNL     1       2.035   9.812  17.773  0.00  0.00    +0.000 A 
ATOM     20  C   UNL     1       1.357  10.602  18.691  0.00  0.00    +0.000 A 
ATOM     21  C   UNL     1       0.961  10.081  19.926  0.00  0.00    +0.000 A 
ATOM     22  C   UNL     1       0.292  10.909  20.840  0.00  0.00    +0.000 A 
ATOM     23  C   UNL     1      -0.105  10.424  22.083  0.00  0.00    +0.000 A 
ATOM     24  C   UNL     1       0.159   9.102  22.425  0.00  0.00    +0.000 A 
ATOM     25  C   UNL     1       0.814   8.260  21.518  0.00  0.00    +0.000 A 
ATOM     26  C   UNL     1       1.229   8.721  20.250  0.00  0.00    +0.000 A 
ENDBRANCH  16  17
ENDBRANCH   2  16
BRANCH   4  27
ATOM     27  C   UNL     1       5.698   6.831  17.203  0.00  0.00    +0.000 C 
BRANCH  27  28
ATOM     28  O   UNL     1       6.779   6.675  16.285  0.00  0.00    +0.000 OA
ATOM     29  H   UNL     1       7.299   7.498  16.325  0.00  0.00    +0.000 HD
ENDBRANCH  27  28
ENDBRANCH   4  27
TORSDOF 7
ENDMDL
MODEL 3
REMARK VINA RESULT:      -7.8      1.020      1.112
REMARK  Name = 
REMARK  8 active torsions:
REMARK  status: ('A' for Active; 'I' for Inactive)
REMARK    1  A    between atoms: C_1  and  C_2
REMARK    2  A    between atoms: N_4  and  C_5
REMARK    3  A    between atoms: C_6  and  O_7
REMARK    4  A    between atoms: O_7  and  C_8
REMARK    5  A    between atoms: C_19  and  C_20
REMARK    6  A    between atoms: C_20  and  O_21
REMARK    7  A    between atoms: C_22  and  O_23
REMARK    8  A    between atoms: C_24  and  O_25
REMARK                            x       y       z     vdW  Elec       q    Type
REMARK                         _______ _______ _______ _____ _____    ______ ____
ROOT
ATOM      1  C   UNL     1       2.992   5.116  18.253  0.00  0.00    +0.000 C 
ATOM      2  C   UNL     1       2.495   5.544  19.672  0.00  0.00    +0.000 C 
ATOM      3  O   UNL     1       2.976   4.600  20.646  0.00  0.00    +0.000 OA
ATOM      4  C   UNL     1       2.506   3.255  20.491  0.00  0.00    +0.000 C 
ATOM      5  C   UNL     1       2.745   2.721  19.071  0.00  0.00    +0.000 C 
ATOM      6  C   UNL     1       2.316   3.740  18.012  0.00  0.00    +0.000 C 
ENDROOT
BRANCH   1  10
ATOM      7  C   UNL     1       6.729   5.336  17.372  0.00  0.00    +0.000 C 
ATOM      8  C   UNL     1       5.265   5.130  17.086  0.00  0.00    +0.000 C 
ATOM      9  O   UNL     1       4.855   4.931  15.948  0.00  0.00    +0.000 OA
ATOM     10  N   UNL     1       4.471   5.161  18.204  0.00  0.00    +0.000 N 
ATOM     11  H   UNL     1       4.900   5.504  19.056  0.00  0.00    +0.000 HD
ENDBRANCH   1  10
BRANCH   5  12
ATOM     12  O   UNL     1       2.051   1.487  18.860  0.00  0.00    +0.000 OA
ATOM     13  H   UNL     1       2.718   0.787  19.022  0.00  0.00    +0.000 HD
ENDBRANCH   5  12
BRANCH   6  14
ATOM     14  O   UNL     1       2.465   3.186  16.703  0.00  0.00    +0.000 OA
ATOM     15  H   UNL     1       1.888   3.703  16.095  0.00  0.00    +0.000 HD
ENDBRANCH   6  14
BRANCH   2  16
ATOM     16  O   UNL     1       2.939   6.876  20.015  0.00  0.00    +0.000 OA
BRANCH  16  17
ATOM     17  C   UNL     1       2.153   7.883  19.471  0.00  0.00    +0.000 A 
ATOM     18  C   UNL     1       2.145   8.175  18.095  0.00  0.00    +0.000 A 
ATOM     19  C   UNL     1       1.289   9.137  17.569  0.00  0.00    +0.000 A 
ATOM     20  C   UNL     1       0.442   9.842  18.412  0.00  0.00    +0.000 A 
ATOM     21  C   UNL     1       0.457   9.616  19.791  0.00  0.00    +0.000 A 
ATOM     22  C   UNL     1      -0.399  10.357  20.620  0.00  0.00    +0.000 A 
ATOM     23  C   UNL     1      -0.402  10.163  21.998  0.00  0.00    +0.000 A 
ATOM     24  C   UNL     1       0.451   9.222  22.564  0.00  0.00    +0.000 A 
ATOM     25  C   UNL     1       1.303   8.465  21.750  0.00  0.00    +0.000 A 
ATOM     26  C   UNL     1       1.327   8.637  20.348  0.00  0.00    +0.000 A 
ENDBRANCH  16  17
ENDBRANCH   2  16
BRANCH   4  27
ATOM     27  C   UNL     1       1.065   3.078  21.012  0.00  0.00    +0.000 C 
BRANCH  27  28
ATOM     28  O   UNL     1       0.089   3.051  19.972  0.00  0.00    +0.000 OA
ATOM     29  H   UNL     1       0.043   3.954  19.610  0.00  0.00    +0.000 HD
ENDBRANCH  27  28
ENDBRANCH   4  27
TORSDOF 7
ENDMDL
MODEL 4
REMARK VINA RESULT:      -7.4      1.655      3.592
REMARK  Name = 
REMARK  8 active torsions:
REMARK  status: ('A' for Active; 'I' for Inactive)
REMARK    1  A    between atoms: C_1  and  C_2
REMARK    2  A    between atoms: N_4  and  C_5
REMARK    3  A    between atoms: C_6  and  O_7
REMARK    4  A    between atoms: O_7  and  C_8
REMARK    5  A    between atoms: C_19  and  C_20
REMARK    6  A    between atoms: C_20  and  O_21
REMARK    7  A    between atoms: C_22  and  O_23
REMARK    8  A    between atoms: C_24  and  O_25
REMARK                            x       y       z     vdW  Elec       q    Type
REMARK                         _______ _______ _______ _____ _____    ______ ____
ROOT
ATOM      1  C   UNL     1       4.254   5.351  19.599  0.00  0.00    +0.000 C 
ATOM      2  C   UNL     1       3.507   6.241  18.553  0.00  0.00    +0.000 C 
ATOM      3  O   UNL     1       3.398   5.522  17.312  0.00  0.00    +0.000 OA
ATOM      4  C   UNL     1       4.639   5.187  16.678  0.00  0.00    +0.000 C 
ATOM      5  C   UNL     1       5.595   4.456  17.632  0.00  0.00    +0.000 C 
ATOM      6  C   UNL     1       5.668   5.156  18.992  0.00  0.00    +0.000 C 
ENDROOT
BRANCH   1  10
ATOM      7  C   UNL     1       1.772   2.649  20.752  0.00  0.00    +0.000 C 
ATOM      8  C   UNL     1       2.483   3.975  20.822  0.00  0.00    +0.000 C 
ATOM      9  O   UNL     1       2.203   4.808  21.677  0.00  0.00    +0.000 OA
ATOM     10  N   UNL     1       3.463   4.131  19.875  0.00  0.00    +0.000 N 
ATOM     11  H   UNL     1       3.479   3.452  19.124  0.00  0.00    +0.000 HD
ENDBRANCH   1  10
BRANCH   5  12
ATOM     12  O   UNL     1       6.908   4.356  17.071  0.00  0.00    +0.000 OA
ATOM     13  H   UNL     1       7.170   3.420  17.200  0.00  0.00    +0.000 HD
ENDBRANCH   5  12
BRANCH   6  14
ATOM     14  O   UNL     1       6.630   4.511  19.829  0.00  0.00    +0.000 OA
ATOM     15  H   UNL     1       7.522   4.817  19.547  0.00  0.00    +0.000 HD
ENDBRANCH   6  14
BRANCH   2  16
ATOM     16  O   UNL     1       2.193   6.625  19.018  0.00  0.00    +0.000 OA
BRANCH  16  17
ATOM     17  C   UNL     1       1.946   7.989  18.928  0.00  0.00    +0.000 A 
ATOM     18  C   UNL     1       2.315   8.750  17.805  0.00  0.00    +0.000 A 
ATOM     19  C   UNL     1       1.985  10.098  17.709  0.00  0.00    +0.000 A 
ATOM     20  C   UNL     1       1.301  10.716  18.747  0.00  0.00    +0.000 A 
ATOM     21  C   UNL     1       0.961  10.005  19.901  0.00  0.00    +0.000 A 
ATOM     22  C   UNL     1       0.284  10.661  20.940  0.00  0.00    +0.000 A 
ATOM     23  C   UNL     1      -0.060   9.984  22.107  0.00  0.00    +0.000 A 
ATOM     24  C   UNL     1       0.267   8.640  22.247  0.00  0.00    +0.000 A 
ATOM     25  C   UNL     1       0.932   7.967  21.214  0.00  0.00    +0.000 A 
ATOM     26  C   UNL     1       1.292   8.626  20.017  0.00  0.00    +0.000 A 
ENDBRANCH  16  17
ENDBRANCH   2  16
BRANCH   4  27
ATOM     27  C   UNL     1       5.260   6.391  15.940  0.00  0.00    +0.000 C 
BRANCH  27  28
ATOM     28  O   UNL     1       6.215   6.015  14.950  0.00  0.00    +0.000 OA
ATOM     29  H   UNL     1       7.036   5.794  15.426  0.00  0.00    +0.000 HD
ENDBRANCH  27  28
ENDBRANCH   4  27
TORSDOF 7
ENDMDL
MODEL 5
REMARK VINA RESULT:      -7.0      1.442      2.396
REMARK  Name = 
REMARK  8 active torsions:
REMARK  status: ('A' for Active; 'I' for Inactive)
REMARK    1  A    between atoms: C_1  and  C_2
REMARK    2  A    between atoms: N_4  and  C_5
REMARK    3  A    between atoms: C_6  and  O_7
REMARK    4  A    between atoms: O_7  and  C_8
REMARK    5  A    between atoms: C_19  and  C_20
REMARK    6  A    between atoms: C_20  and  O_21
REMARK    7  A    between atoms: C_22  and  O_23
REMARK    8  A    between atoms: C_24  and  O_25
REMARK                            x       y       z     vdW  Elec       q    Type
REMARK                         _______ _______ _______ _____ _____    ______ ____
ROOT
ATOM      1  C   UNL     1       2.883   5.122  17.939  0.00  0.00    +0.000 C 
ATOM      2  C   UNL     1       2.443   5.639  19.346  0.00  0.00    +0.000 C 
ATOM      3  O   UNL     1       3.055   4.823  20.362  0.00  0.00    +0.000 OA
ATOM      4  C   UNL     1       2.681   3.439  20.354  0.00  0.00    +0.000 C 
ATOM      5  C   UNL     1       2.873   2.799  18.972  0.00  0.00    +0.000 C 
ATOM      6  C   UNL     1       2.302   3.685  17.862  0.00  0.00    +0.000 C 
ENDROOT
BRANCH   1  10
ATOM      7  C   UNL     1       6.543   5.414  16.791  0.00  0.00    +0.000 C 
ATOM      8  C   UNL     1       5.091   5.034  16.656  0.00  0.00    +0.000 C 
ATOM      9  O   UNL     1       4.651   4.540  15.624  0.00  0.00    +0.000 OA
ATOM     10  N   UNL     1       4.349   5.268  17.785  0.00  0.00    +0.000 N 
ATOM     11  H   UNL     1       4.782   5.836  18.504  0.00  0.00    +0.000 HD
ENDBRANCH   1  10
BRANCH   5  12
ATOM     12  O   UNL     1       2.264   1.504  18.915  0.00  0.00    +0.000 OA
ATOM     13  H   UNL     1       1.422   1.596  19.408  0.00  0.00    +0.000 HD
ENDBRANCH   5  12
BRANCH   6  14
ATOM     14  O   UNL     1       2.412   3.028  16.598  0.00  0.00    +0.000 OA
ATOM     15  H   UNL     1       3.037   2.275  16.709  0.00  0.00    +0.000 HD
ENDBRANCH   6  14
BRANCH   2  16
ATOM     16  O   UNL     1       2.803   7.025  19.544  0.00  0.00    +0.000 OA
BRANCH  16  17
ATOM     17  C   UNL     1       1.782   7.795  20.087  0.00  0.00    +0.000 A 
ATOM     18  C   UNL     1       1.009   7.362  21.179  0.00  0.00    +0.000 A 
ATOM     19  C   UNL     1       0.046   8.187  21.750  0.00  0.00    +0.000 A 
ATOM     20  C   UNL     1      -0.180   9.451  21.223  0.00  0.00    +0.000 A 
ATOM     21  C   UNL     1       0.533   9.897  20.107  0.00  0.00    +0.000 A 
ATOM     22  C   UNL     1       0.271  11.174  19.587  0.00  0.00    +0.000 A 
ATOM     23  C   UNL     1       0.956  11.644  18.470  0.00  0.00    +0.000 A 
ATOM     24  C   UNL     1       1.915  10.843  17.862  0.00  0.00    +0.000 A 
ATOM     25  C   UNL     1       2.198   9.571  18.376  0.00  0.00    +0.000 A 
ATOM     26  C   UNL     1       1.521   9.067  19.508  0.00  0.00    +0.000 A 
ENDBRANCH  16  17
ENDBRANCH   2  16
BRANCH   4  27
ATOM     27  C   UNL     1       1.293   3.208  20.986  0.00  0.00    +0.000 C 
BRANCH  27  28
ATOM     28  O   UNL     1       1.350   2.537  22.243  0.00  0.00    +0.000 OA
ATOM     29  H   UNL     1       1.526   3.221  22.915  0.00  0.00    +0.000 HD
ENDBRANCH  27  28
ENDBRANCH   4  27
TORSDOF 7
ENDMDL
MODEL 6
REMARK VINA RESULT:      -7.0      1.297      2.395
REMARK  Name = 
REMARK  8 active torsions:
REMARK  status: ('A' for Active; 'I' for Inactive)
REMARK    1  A    between atoms: C_1  and  C_2
REMARK    2  A    between atoms: N_4  and  C_5
REMARK    3  A    between atoms: C_6  and  O_7
REMARK    4  A    between atoms: O_7  and  C_8
REMARK    5  A    between atoms: C_19  and  C_20
REMARK    6  A    between atoms: C_20  and  O_21
REMARK    7  A    between atoms: C_22  and  O_23
REMARK    8  A    between atoms: C_24  and  O_25
REMARK                            x       y       z     vdW  Elec       q    Type
REMARK                         _______ _______ _______ _____ _____    ______ ____
ROOT
ATOM      1  C   UNL     1       3.138   5.898  17.828  0.00  0.00    +0.000 C 
ATOM      2  C   UNL     1       2.299   6.487  19.007  0.00  0.00    +0.000 C 
ATOM      3  O   UNL     1       2.724   5.878  20.240  0.00  0.00    +0.000 OA
ATOM      4  C   UNL     1       2.527   4.461  20.332  0.00  0.00    +0.000 C 
ATOM      5  C   UNL     1       3.136   3.717  19.134  0.00  0.00    +0.000 C 
ATOM      6  C   UNL     1       2.766   4.392  17.811  0.00  0.00    +0.000 C 
ENDROOT
BRANCH   1  10
ATOM      7  C   UNL     1       6.879   6.739  17.530  0.00  0.00    +0.000 C 
ATOM      8  C   UNL     1       5.558   6.190  17.060  0.00  0.00    +0.000 C 
ATOM      9  O   UNL     1       5.420   5.726  15.934  0.00  0.00    +0.000 OA
ATOM     10  N   UNL     1       4.567   6.240  18.008  0.00  0.00    +0.000 N 
ATOM     11  H   UNL     1       4.755   6.800  18.831  0.00  0.00    +0.000 HD
ENDBRANCH   1  10
BRANCH   5  12
ATOM     12  O   UNL     1       2.716   2.348  19.110  0.00  0.00    +0.000 OA
ATOM     13  H   UNL     1       2.060   2.269  19.834  0.00  0.00    +0.000 HD
ENDBRANCH   5  12
BRANCH   6  14
ATOM     14  O   UNL     1       3.268   3.631  16.710  0.00  0.00    +0.000 OA
ATOM     15  H   UNL     1       3.404   4.252  15.958  0.00  0.00    +0.000 HD
ENDBRANCH   6  14
BRANCH   2  16
ATOM     16  O   UNL     1       2.434   7.924  19.095  0.00  0.00    +0.000 OA
BRANCH  16  17
ATOM     17  C   UNL     1       1.549   8.513  19.989  0.00  0.00    +0.000 A 
ATOM     18  C   UNL     1       1.622   8.299  21.376  0.00  0.00    +0.000 A 
ATOM     19  C   UNL     1       0.772   8.965  22.253  0.00  0.00    +0.000 A 
ATOM     20  C   UNL     1      -0.185   9.838  21.755  0.00  0.00    +0.000 A 
ATOM     21  C   UNL     1      -0.322  10.040  20.379  0.00  0.00    +0.000 A 
ATOM     22  C   UNL     1      -1.309  10.917  19.905  0.00  0.00    +0.000 A 
ATOM     23  C   UNL     1      -1.478  11.131  18.541  0.00  0.00    +0.000 A 
ATOM     24  C   UNL     1      -0.657  10.472  17.632  0.00  0.00    +0.000 A 
ATOM     25  C   UNL     1       0.341   9.603  18.089  0.00  0.00    +0.000 A 
ATOM     26  C   UNL     1       0.539   9.366  19.467  0.00  0.00    +0.000 A 
ENDBRANCH  16  17
ENDBRANCH   2  16
BRANCH   4  27
ATOM     27  C   UNL     1       1.061   4.095  20.641  0.00  0.00    +0.000 C 
BRANCH  27  28
ATOM     28  O   UNL     1       0.924   2.863  21.345  0.00  0.00    +0.000 OA
ATOM     29  H   UNL     1       1.803   2.651  21.708  0.00  0.00    +0.000 HD
ENDBRANCH  27  28
ENDBRANCH   4  27
TORSDOF 7
ENDMDL
MODEL 7
REMARK VINA RESULT:      -6.9      1.243      2.141
REMARK  Name = 
REMARK  8 active torsions:
REMARK  status: ('A' for Active; 'I' for Inactive)
REMARK    1  A    between atoms: C_1  and  C_2
REMARK    2  A    between atoms: N_4  and  C_5
REMARK    3  A    between atoms: C_6  and  O_7
REMARK    4  A    between atoms: O_7  and  C_8
REMARK    5  A    between atoms: C_19  and  C_20
REMARK    6  A    between atoms: C_20  and  O_21
REMARK    7  A    between atoms: C_22  and  O_23
REMARK    8  A    between atoms: C_24  and  O_25
REMARK                            x       y       z     vdW  Elec       q    Type
REMARK                         _______ _______ _______ _____ _____    ______ ____
ROOT
ATOM      1  C   UNL     1       4.728   5.151  17.309  0.00  0.00    +0.000 C 
ATOM      2  C   UNL     1       3.358   5.619  17.896  0.00  0.00    +0.000 C 
ATOM      3  O   UNL     1       3.086   4.886  19.104  0.00  0.00    +0.000 OA
ATOM      4  C   UNL     1       2.945   3.468  18.951  0.00  0.00    +0.000 C 
ATOM      5  C   UNL     1       4.140   2.848  18.212  0.00  0.00    +0.000 C 
ATOM      6  C   UNL     1       4.504   3.655  16.963  0.00  0.00    +0.000 C 
ENDROOT
BRANCH   1  10
ATOM      7  C   UNL     1       8.010   5.911  19.166  0.00  0.00    +0.000 C 
ATOM      8  C   UNL     1       7.167   5.378  18.036  0.00  0.00    +0.000 C 
ATOM      9  O   UNL     1       7.674   4.892  17.032  0.00  0.00    +0.000 OA
ATOM     10  N   UNL     1       5.817   5.468  18.261  0.00  0.00    +0.000 N 
ATOM     11  H   UNL     1       5.525   6.043  19.043  0.00  0.00    +0.000 HD
ENDBRANCH   1  10
BRANCH   5  12
ATOM     12  O   UNL     1       3.871   1.490  17.846  0.00  0.00    +0.000 OA
ATOM     13  H   UNL     1       3.894   0.989  18.688  0.00  0.00    +0.000 HD
ENDBRANCH   5  12
BRANCH   6  14
ATOM     14  O   UNL     1       5.557   3.009  16.246  0.00  0.00    +0.000 OA
ATOM     15  H   UNL     1       6.320   2.914  16.862  0.00  0.00    +0.000 HD
ENDBRANCH   6  14
BRANCH   2  16
ATOM     16  O   UNL     1       3.349   7.039  18.168  0.00  0.00    +0.000 OA
BRANCH  16  17
ATOM     17  C   UNL     1       2.428   7.416  19.137  0.00  0.00    +0.000 A 
ATOM     18  C   UNL     1       2.067   6.574  20.203  0.00  0.00    +0.000 A 
ATOM     19  C   UNL     1       1.201   7.008  21.201  0.00  0.00    +0.000 A 
ATOM     20  C   UNL     1       0.660   8.285  21.138  0.00  0.00    +0.000 A 
ATOM     21  C   UNL     1       0.956   9.133  20.067  0.00  0.00    +0.000 A 
ATOM     22  C   UNL     1       0.381  10.412  20.022  0.00  0.00    +0.000 A 
ATOM     23  C   UNL     1       0.646  11.277  18.964  0.00  0.00    +0.000 A 
ATOM     24  C   UNL     1       1.494  10.873  17.939  0.00  0.00    +0.000 A 
ATOM     25  C   UNL     1       2.086   9.604  17.976  0.00  0.00    +0.000 A 
ATOM     26  C   UNL     1       1.839   8.705  19.036  0.00  0.00    +0.000 A 
ENDBRANCH  16  17
ENDBRANCH   2  16
BRANCH   4  27
ATOM     27  C   UNL     1       1.564   3.077  18.387  0.00  0.00    +0.000 C 
BRANCH  27  28
ATOM     28  O   UNL     1       1.208   1.722  18.655  0.00  0.00    +0.000 OA
ATOM     29  H   UNL     1       1.663   1.474  19.481  0.00  0.00    +0.000 HD
ENDBRANCH  27  28
ENDBRANCH   4  27
TORSDOF 7
ENDMDL
MODEL 8
REMARK VINA RESULT:      -6.7      1.394      2.238
REMARK  Name = 
REMARK  8 active torsions:
REMARK  status: ('A' for Active; 'I' for Inactive)
REMARK    1  A    between atoms: C_1  and  C_2
REMARK    2  A    between atoms: N_4  and  C_5
REMARK    3  A    between atoms: C_6  and  O_7
REMARK    4  A    between atoms: O_7  and  C_8
REMARK    5  A    between atoms: C_19  and  C_20
REMARK    6  A    between atoms: C_20  and  O_21
REMARK    7  A    between atoms: C_22  and  O_23
REMARK    8  A    between atoms: C_24  and  O_25
REMARK                            x       y       z     vdW  Elec       q    Type
REMARK                         _______ _______ _______ _____ _____    ______ ____
ROOT
ATOM      1  C   UNL     1       4.312   5.627  17.467  0.00  0.00    +0.000 C 
ATOM      2  C   UNL     1       3.182   6.036  18.465  0.00  0.00    +0.000 C 
ATOM      3  O   UNL     1       3.553   5.627  19.794  0.00  0.00    +0.000 OA
ATOM      4  C   UNL     1       3.712   4.216  19.988  0.00  0.00    +0.000 C 
ATOM      5  C   UNL     1       4.665   3.596  18.955  0.00  0.00    +0.000 C 
ATOM      6  C   UNL     1       4.343   4.078  17.538  0.00  0.00    +0.000 C 
ENDROOT
BRANCH   1  10
ATOM      7  C   UNL     1       7.708   7.430  17.593  0.00  0.00    +0.000 C 
ATOM      8  C   UNL     1       6.655   6.534  16.996  0.00  0.00    +0.000 C 
ATOM      9  O   UNL     1       6.802   6.016  15.895  0.00  0.00    +0.000 OA
ATOM     10  N   UNL     1       5.563   6.345  17.805  0.00  0.00    +0.000 N 
ATOM     11  H   UNL     1       5.481   6.959  18.606  0.00  0.00    +0.000 HD
ENDBRANCH   1  10
BRANCH   5  12
ATOM     12  O   UNL     1       4.616   2.166  19.000  0.00  0.00    +0.000 OA
ATOM     13  H   UNL     1       3.785   1.954  19.476  0.00  0.00    +0.000 HD
ENDBRANCH   5  12
BRANCH   6  14
ATOM     14  O   UNL     1       5.184   3.420  16.589  0.00  0.00    +0.000 OA
ATOM     15  H   UNL     1       6.092   3.785  16.694  0.00  0.00    +0.000 HD
ENDBRANCH   6  14
BRANCH   2  16
ATOM     16  O   UNL     1       2.932   7.459  18.438  0.00  0.00    +0.000 OA
BRANCH  16  17
ATOM     17  C   UNL     1       2.010   7.882  19.388  0.00  0.00    +0.000 A 
ATOM     18  C   UNL     1       1.581   7.058  20.443  0.00  0.00    +0.000 A 
ATOM     19  C   UNL     1       0.717   7.534  21.423  0.00  0.00    +0.000 A 
ATOM     20  C   UNL     1       0.246   8.838  21.352  0.00  0.00    +0.000 A 
ATOM     21  C   UNL     1       0.609   9.672  20.291  0.00  0.00    +0.000 A 
ATOM     22  C   UNL     1       0.103  10.979  20.237  0.00  0.00    +0.000 A 
ATOM     23  C   UNL     1       0.437  11.831  19.188  0.00  0.00    +0.000 A 
ATOM     24  C   UNL     1       1.286  11.386  18.181  0.00  0.00    +0.000 A 
ATOM     25  C   UNL     1       1.809  10.088  18.227  0.00  0.00    +0.000 A 
ATOM     26  C   UNL     1       1.491   9.201  19.278  0.00  0.00    +0.000 A 
ENDBRANCH  16  17
ENDBRANCH   2  16
BRANCH   4  27
ATOM     27  C   UNL     1       2.357   3.492  20.130  0.00  0.00    +0.000 C 
BRANCH  27  28
ATOM     28  O   UNL     1       1.769   3.645  21.421  0.00  0.00    +0.000 OA
ATOM     29  H   UNL     1       2.141   2.940  21.981  0.00  0.00    +0.000 HD
ENDBRANCH  27  28
ENDBRANCH   4  27
TORSDOF 7
ENDMDL
MODEL 9
REMARK VINA RESULT:      -6.6      1.685      4.251
REMARK  Name = 
REMARK  8 active torsions:
REMARK  status: ('A' for Active; 'I' for Inactive)
REMARK    1  A    between atoms: C_1  and  C_2
REMARK    2  A    between atoms: N_4  and  C_5
REMARK    3  A    between atoms: C_6  and  O_7
REMARK    4  A    between atoms: O_7  and  C_8
REMARK    5  A    between atoms: C_19  and  C_20
REMARK    6  A    between atoms: C_20  and  O_21
REMARK    7  A    between atoms: C_22  and  O_23
REMARK    8  A    between atoms: C_24  and  O_25
REMARK                            x       y       z     vdW  Elec       q    Type
REMARK                         _______ _______ _______ _____ _____    ______ ____
ROOT
ATOM      1  C   UNL     1       3.592   5.207  19.214  0.00  0.00    +0.000 C 
ATOM      2  C   UNL     1       3.572   6.461  18.281  0.00  0.00    +0.000 C 
ATOM      3  O   UNL     1       4.097   6.099  16.991  0.00  0.00    +0.000 OA
ATOM      4  C   UNL     1       5.462   5.662  16.977  0.00  0.00    +0.000 C 
ATOM      5  C   UNL     1       5.716   4.535  17.990  0.00  0.00    +0.000 C 
ATOM      6  C   UNL     1       5.097   4.859  19.352  0.00  0.00    +0.000 C 
ENDROOT
BRANCH   1  10
ATOM      7  C   UNL     1       1.203   2.274  18.521  0.00  0.00    +0.000 C 
ATOM      8  C   UNL     1       2.190   3.074  19.330  0.00  0.00    +0.000 C 
ATOM      9  O   UNL     1       2.505   2.744  20.467  0.00  0.00    +0.000 OA
ATOM     10  N   UNL     1       2.702   4.159  18.664  0.00  0.00    +0.000 N 
ATOM     11  H   UNL     1       2.238   4.424  17.804  0.00  0.00    +0.000 HD
ENDBRANCH   1  10
BRANCH   5  12
ATOM     12  O   UNL     1       7.118   4.288  18.144  0.00  0.00    +0.000 OA
ATOM     13  H   UNL     1       7.176   3.400  18.556  0.00  0.00    +0.000 HD
ENDBRANCH   5  12
BRANCH   6  14
ATOM     14  O   UNL     1       5.424   3.839  20.298  0.00  0.00    +0.000 OA
ATOM     15  H   UNL     1       6.385   3.917  20.497  0.00  0.00    +0.000 HD
ENDBRANCH   6  14
BRANCH   2  16
ATOM     16  O   UNL     1       2.238   7.000  18.137  0.00  0.00    +0.000 OA
BRANCH  16  17
ATOM     17  C   UNL     1       1.795   7.697  19.254  0.00  0.00    +0.000 A 
ATOM     18  C   UNL     1       1.500   7.062  20.473  0.00  0.00    +0.000 A 
ATOM     19  C   UNL     1       1.133   7.795  21.596  0.00  0.00    +0.000 A 
ATOM     20  C   UNL     1       1.032   9.176  21.515  0.00  0.00    +0.000 A 
ATOM     21  C   UNL     1       1.269   9.840  20.308  0.00  0.00    +0.000 A 
ATOM     22  C   UNL     1       1.142  11.237  20.253  0.00  0.00    +0.000 A 
ATOM     23  C   UNL     1       1.361  11.927  19.065  0.00  0.00    +0.000 A 
ATOM     24  C   UNL     1       1.713  11.227  17.915  0.00  0.00    +0.000 A 
ATOM     25  C   UNL     1       1.856   9.835  17.957  0.00  0.00    +0.000 A 
ATOM     26  C   UNL     1       1.643   9.106  19.148  0.00  0.00    +0.000 A 
ENDBRANCH  16  17
ENDBRANCH   2  16
BRANCH   4  27
ATOM     27  C   UNL     1       6.452   6.842  17.064  0.00  0.00    +0.000 C 
BRANCH  27  28
ATOM     28  O   UNL     1       7.663   6.616  16.345  0.00  0.00    +0.000 OA
ATOM     29  H   UNL     1       8.107   7.480  16.269  0.00  0.00    +0.000 HD
ENDBRANCH  27  28
ENDBRANCH   4  27
TORSDOF 7
ENDMDL
