MODEL 1
REMARK VINA RESULT:      -7.7      0.000      0.000
REMARK  Name = 
REMARK  1 active torsions:
REMARK  status: ('A' for Active; 'I' for Inactive)
REMARK    1  A    between atoms: C_5  and  C_6
REMARK                            x       y       z     vdW  Elec       q    Type
REMARK                         _______ _______ _______ _____ _____    ______ ____
ROOT
ATOM      1  O   UNL     1       0.603   2.686  18.200  0.00  0.00    +0.000 OA
ATOM      2  C   UNL     1       1.268   3.638  18.631  0.00  0.00    +0.000 C 
ATOM      3  C   UNL     1       1.133   4.039  20.082  0.00  0.00    +0.000 C 
ATOM      4  S   UNL     1       2.617   4.459  21.006  0.00  0.00    +0.000 S 
ATOM      5  C   UNL     1       3.247   5.867  19.995  0.00  0.00    +0.000 C 
ATOM      6  C   UNL     1       3.958   5.226  18.835  0.00  0.00    +0.000 A 
ATOM      7  C   UNL     1       5.367   5.167  18.834  0.00  0.00    +0.000 A 
ATOM      8  C   UNL     1       6.047   4.597  17.762  0.00  0.00    +0.000 A 
ATOM      9 CL   UNL     1       7.754   4.460  17.777  0.00  0.00    +0.000 Cl
ATOM     10  C   UNL     1       5.299   4.138  16.698  0.00  0.00    +0.000 A 
ATOM     11  N   UNL     1       3.949   4.138  16.679  0.00  0.00    +0.000 NA
ATOM     12  C   UNL     1       3.305   4.615  17.771  0.00  0.00    +0.000 A 
ATOM     13  N   UNL     1       1.926   4.405  17.714  0.00  0.00    +0.000 N 
ATOM     14  H   UNL     1       1.734   4.013  16.792  0.00  0.00    +0.000 HD
ENDROOT
BRANCH   5  15
ATOM     15  C   UNL     1       2.287   7.057  19.810  0.00  0.00    +0.000 A 
ATOM     16  C   UNL     1       1.441   7.398  20.901  0.00  0.00    +0.000 A 
ATOM     17  C   UNL     1       0.609   8.522  20.900  0.00  0.00    +0.000 A 
ATOM     18  C   UNL     1       0.598   9.370  19.805  0.00  0.00    +0.000 A 
ATOM     19  C   UNL     1       1.426   9.090  18.726  0.00  0.00    +0.000 A 
ATOM     20  C   UNL     1       2.275   7.966  18.727  0.00  0.00    +0.000 A 
ATOM     21 CL   UNL     1       3.323   7.869  17.356  0.00  0.00    +0.000 Cl
ENDBRANCH   5  15
TORSDOF 1
ENDMDL
MODEL 2
REMARK VINA RESULT:      -6.9      2.231      5.237
REMARK  Name = 
REMARK  1 active torsions:
REMARK  status: ('A' for Active; 'I' for Inactive)
REMARK    1  A    between atoms: C_5  and  C_6
REMARK                            x       y       z     vdW  Elec       q    Type
REMARK                         _______ _______ _______ _____ _____    ______ ____
ROOT
ATOM      1  O   UNL     1       2.158   3.475  21.140  0.00  0.00    +0.000 OA
ATOM      2  C   UNL     1       2.654   4.106  20.197  0.00  0.00    +0.000 C 
ATOM      3  C   UNL     1       2.914   3.398  18.887  0.00  0.00    +0.000 C 
ATOM      4  S   UNL     1       2.515   4.244  17.351  0.00  0.00    +0.000 S 
ATOM      5  C   UNL     1       3.585   5.738  17.510  0.00  0.00    +0.000 C 
ATOM      6  C   UNL     1       2.819   6.671  18.408  0.00  0.00    +0.000 A 
ATOM      7  C   UNL     1       2.129   7.764  17.845  0.00  0.00    +0.000 A 
ATOM      8  C   UNL     1       1.432   8.651  18.658  0.00  0.00    +0.000 A 
ATOM      9 CL   UNL     1       0.536   9.945  17.983  0.00  0.00    +0.000 Cl
ATOM     10  C   UNL     1       1.478   8.445  20.021  0.00  0.00    +0.000 A 
ATOM     11  N   UNL     1       2.092   7.388  20.596  0.00  0.00    +0.000 NA
ATOM     12  C   UNL     1       2.689   6.487  19.780  0.00  0.00    +0.000 A 
ATOM     13  N   UNL     1       3.133   5.356  20.466  0.00  0.00    +0.000 N 
ATOM     14  H   UNL     1       2.972   5.539  21.456  0.00  0.00    +0.000 HD
ENDROOT
BRANCH   5  15
ATOM     15  C   UNL     1       5.092   5.481  17.690  0.00  0.00    +0.000 A 
ATOM     16  C   UNL     1       5.665   5.776  18.957  0.00  0.00    +0.000 A 
ATOM     17  C   UNL     1       6.994   5.482  19.281  0.00  0.00    +0.000 A 
ATOM     18  C   UNL     1       7.810   4.862  18.350  0.00  0.00    +0.000 A 
ATOM     19  C   UNL     1       7.286   4.533  17.107  0.00  0.00    +0.000 A 
ATOM     20  C   UNL     1       5.945   4.816  16.779  0.00  0.00    +0.000 A 
ATOM     21 CL   UNL     1       5.449   4.207  15.240  0.00  0.00    +0.000 Cl
ENDBRANCH   5  15
TORSDOF 1
ENDMDL
MODEL 3
REMARK VINA RESULT:      -6.4      1.244      1.664
REMARK  Name = 
REMARK  1 active torsions:
REMARK  status: ('A' for Active; 'I' for Inactive)
REMARK    1  A    between atoms: C_5  and  C_6
REMARK                            x       y       z     vdW  Elec       q    Type
REMARK                         _______ _______ _______ _____ _____    ______ ____
ROOT
ATOM      1  O   UNL     1       0.641   3.045  18.161  0.00  0.00    +0.000 OA
ATOM      2  C   UNL     1       1.326   4.017  18.509  0.00  0.00    +0.000 C 
ATOM      3  C   UNL     1       1.134   4.602  19.889  0.00  0.00    +0.000 C 
ATOM      4  S   UNL     1       2.586   5.076  20.839  0.00  0.00    +0.000 S 
ATOM      5  C   UNL     1       3.334   6.319  19.700  0.00  0.00    +0.000 C 
ATOM      6  C   UNL     1       4.074   5.509  18.671  0.00  0.00    +0.000 A 
ATOM      7  C   UNL     1       5.477   5.393  18.759  0.00  0.00    +0.000 A 
ATOM      8  C   UNL     1       6.184   4.667  17.807  0.00  0.00    +0.000 A 
ATOM      9 CL   UNL     1       7.880   4.464  17.937  0.00  0.00    +0.000 Cl
ATOM     10  C   UNL     1       5.473   4.108  16.767  0.00  0.00    +0.000 A 
ATOM     11  N   UNL     1       4.127   4.160  16.670  0.00  0.00    +0.000 NA
ATOM     12  C   UNL     1       3.449   4.796  17.655  0.00  0.00    +0.000 A 
ATOM     13  N   UNL     1       2.067   4.635  17.544  0.00  0.00    +0.000 N 
ATOM     14  H   UNL     1       1.905   4.139  16.668  0.00  0.00    +0.000 HD
ENDROOT
BRANCH   5  15
ATOM     15  C   UNL     1       2.442   7.513  19.315  0.00  0.00    +0.000 A 
ATOM     16  C   UNL     1       2.357   7.857  17.938  0.00  0.00    +0.000 A 
ATOM     17  C   UNL     1       1.497   8.845  17.449  0.00  0.00    +0.000 A 
ATOM     18  C   UNL     1       0.666   9.529  18.321  0.00  0.00    +0.000 A 
ATOM     19  C   UNL     1       0.697   9.210  19.671  0.00  0.00    +0.000 A 
ATOM     20  C   UNL     1       1.553   8.207  20.168  0.00  0.00    +0.000 A 
ATOM     21 CL   UNL     1       1.345   7.867  21.849  0.00  0.00    +0.000 Cl
ENDBRANCH   5  15
TORSDOF 1
ENDMDL
MODEL 4
REMARK VINA RESULT:      -6.1      4.400      6.355
REMARK  Name = 
REMARK  1 active torsions:
REMARK  status: ('A' for Active; 'I' for Inactive)
REMARK    1  A    between atoms: C_5  and  C_6
REMARK                            x       y       z     vdW  Elec       q    Type
REMARK                         _______ _______ _______ _____ _____    ______ ____
ROOT
ATOM      1  O   UNL     1       0.195  10.185  23.516  0.00  0.00    +0.000 OA
ATOM      2  C   UNL     1       0.027  10.415  22.311  0.00  0.00    +0.000 C 
ATOM      3  C   UNL     1      -0.080  11.847  21.839  0.00  0.00    +0.000 C 
ATOM      4  S   UNL     1       0.773  12.329  20.331  0.00  0.00    +0.000 S 
ATOM      5  C   UNL     1      -0.020  11.182  19.123  0.00  0.00    +0.000 C 
ATOM      6  C   UNL     1       0.698   9.872  19.301  0.00  0.00    +0.000 A 
ATOM      7  C   UNL     1       1.675   9.485  18.361  0.00  0.00    +0.000 A 
ATOM      8  C   UNL     1       2.337   8.269  18.494  0.00  0.00    +0.000 A 
ATOM      9 CL   UNL     1       3.572   7.815  17.396  0.00  0.00    +0.000 Cl
ATOM     10  C   UNL     1       1.974   7.451  19.543  0.00  0.00    +0.000 A 
ATOM     11  N   UNL     1       1.075   7.803  20.488  0.00  0.00    +0.000 NA
ATOM     12  C   UNL     1       0.508   9.029  20.390  0.00  0.00    +0.000 A 
ATOM     13  N   UNL     1      -0.265   9.352  21.507  0.00  0.00    +0.000 N 
ATOM     14  H   UNL     1      -0.282   8.519  22.094  0.00  0.00    +0.000 HD
ENDROOT
BRANCH   5  15
ATOM     15  C   UNL     1      -1.553  11.266  19.009  0.00  0.00    +0.000 A 
ATOM     16  C   UNL     1      -2.229  12.182  19.859  0.00  0.00    +0.000 A 
ATOM     17  C   UNL     1      -3.602  12.433  19.774  0.00  0.00    +0.000 A 
ATOM     18  C   UNL     1      -4.364  11.784  18.816  0.00  0.00    +0.000 A 
ATOM     19  C   UNL     1      -3.742  10.898  17.947  0.00  0.00    +0.000 A 
ATOM     20  C   UNL     1      -2.356  10.650  18.021  0.00  0.00    +0.000 A 
ATOM     21 CL   UNL     1      -1.753   9.624  16.768  0.00  0.00    +0.000 Cl
ENDBRANCH   5  15
TORSDOF 1
ENDMDL
MODEL 5
REMARK VINA RESULT:      -5.9      5.097      7.187
REMARK  Name = 
REMARK  1 active torsions:
REMARK  status: ('A' for Active; 'I' for Inactive)
REMARK    1  A    between atoms: C_5  and  C_6
REMARK                            x       y       z     vdW  Elec       q    Type
REMARK                         _______ _______ _______ _____ _____    ______ ____
ROOT
ATOM      1  O   UNL     1      -0.357  11.782  23.127  0.00  0.00    +0.000 OA
ATOM      2  C   UNL     1      -0.583  11.651  21.917  0.00  0.00    +0.000 C 
ATOM      3  C   UNL     1      -0.845  12.879  21.075  0.00  0.00    +0.000 C 
ATOM      4  S   UNL     1      -0.089  12.990  19.447  0.00  0.00    +0.000 S 
ATOM      5  C   UNL     1      -0.800  11.487  18.649  0.00  0.00    +0.000 C 
ATOM      6  C   UNL     1       0.049  10.347  19.141  0.00  0.00    +0.000 A 
ATOM      7  C   UNL     1       1.031   9.798  18.290  0.00  0.00    +0.000 A 
ATOM      8  C   UNL     1       1.813   8.730  18.716  0.00  0.00    +0.000 A 
ATOM      9 CL   UNL     1       3.053   8.095  17.719  0.00  0.00    +0.000 Cl
ATOM     10  C   UNL     1       1.564   8.210  19.969  0.00  0.00    +0.000 A 
ATOM     11  N   UNL     1       0.663   8.733  20.829  0.00  0.00    +0.000 NA
ATOM     12  C   UNL     1      -0.025   9.829  20.428  0.00  0.00    +0.000 A 
ATOM     13  N   UNL     1      -0.792  10.384  21.455  0.00  0.00    +0.000 N 
ATOM     14  H   UNL     1      -0.710   9.750  22.249  0.00  0.00    +0.000 HD
ENDROOT
BRANCH   5  15
ATOM     15  C   UNL     1      -2.337  11.403  18.602  0.00  0.00    +0.000 A 
ATOM     16  C   UNL     1      -3.072  12.267  19.459  0.00  0.00    +0.000 A 
ATOM     17  C   UNL     1      -4.466  12.367  19.430  0.00  0.00    +0.000 A 
ATOM     18  C   UNL     1      -5.192  11.612  18.524  0.00  0.00    +0.000 A 
ATOM     19  C   UNL     1      -4.516  10.772  17.650  0.00  0.00    +0.000 A 
ATOM     20  C   UNL     1      -3.109  10.676  17.667  0.00  0.00    +0.000 A 
ATOM     21 CL   UNL     1      -2.452   9.684  16.414  0.00  0.00    +0.000 Cl
ENDBRANCH   5  15
TORSDOF 1
ENDMDL
MODEL 6
REMARK VINA RESULT:      -5.8      3.689      4.955
REMARK  Name = 
REMARK  1 active torsions:
REMARK  status: ('A' for Active; 'I' for Inactive)
REMARK    1  A    between atoms: C_5  and  C_6
REMARK                            x       y       z     vdW  Elec       q    Type
REMARK                         _______ _______ _______ _____ _____    ______ ____
ROOT
ATOM      1  O   UNL     1       7.269   5.570  20.026  0.00  0.00    +0.000 OA
ATOM      2  C   UNL     1       6.345   5.315  19.242  0.00  0.00    +0.000 C 
ATOM      3  C   UNL     1       5.016   6.015  19.412  0.00  0.00    +0.000 C 
ATOM      4  S   UNL     1       4.159   6.613  17.949  0.00  0.00    +0.000 S 
ATOM      5  C   UNL     1       3.951   5.034  17.019  0.00  0.00    +0.000 C 
ATOM      6  C   UNL     1       5.276   4.802  16.344  0.00  0.00    +0.000 A 
ATOM      7  C   UNL     1       5.411   5.084  14.969  0.00  0.00    +0.000 A 
ATOM      8  C   UNL     1       6.620   4.858  14.320  0.00  0.00    +0.000 A 
ATOM      9 CL   UNL     1       6.817   5.256  12.666  0.00  0.00    +0.000 Cl
ATOM     10  C   UNL     1       7.652   4.316  15.056  0.00  0.00    +0.000 A 
ATOM     11  N   UNL     1       7.577   4.072  16.382  0.00  0.00    +0.000 NA
ATOM     12  C   UNL     1       6.419   4.382  17.013  0.00  0.00    +0.000 A 
ATOM     13  N   UNL     1       6.515   4.255  18.400  0.00  0.00    +0.000 N 
ATOM     14  H   UNL     1       7.436   3.859  18.589  0.00  0.00    +0.000 HD
ENDROOT
BRANCH   5  15
ATOM     15  C   UNL     1       3.196   3.908  17.749  0.00  0.00    +0.000 A 
ATOM     16  C   UNL     1       3.683   2.581  17.598  0.00  0.00    +0.000 A 
ATOM     17  C   UNL     1       3.156   1.489  18.296  0.00  0.00    +0.000 A 
ATOM     18  C   UNL     1       2.121   1.682  19.196  0.00  0.00    +0.000 A 
ATOM     19  C   UNL     1       1.629   2.964  19.395  0.00  0.00    +0.000 A 
ATOM     20  C   UNL     1       2.164   4.070  18.702  0.00  0.00    +0.000 A 
ATOM     21 CL   UNL     1       1.512   5.593  19.189  0.00  0.00    +0.000 Cl
ENDBRANCH   5  15
TORSDOF 1
ENDMDL
MODEL 7
REMARK VINA RESULT:      -5.7      8.343     10.113
REMARK  Name = 
REMARK  1 active torsions:
REMARK  status: ('A' for Active; 'I' for Inactive)
REMARK    1  A    between atoms: C_5  and  C_6
REMARK                            x       y       z     vdW  Elec       q    Type
REMARK                         _______ _______ _______ _____ _____    ______ ____
ROOT
ATOM      1  O   UNL     1       0.962  15.068  18.810  0.00  0.00    +0.000 OA
ATOM      2  C   UNL     1       0.202  14.130  19.086  0.00  0.00    +0.000 C 
ATOM      3  C   UNL     1       0.705  12.710  18.967  0.00  0.00    +0.000 C 
ATOM      4  S   UNL     1       0.281  11.529  20.255  0.00  0.00    +0.000 S 
ATOM      5  C   UNL     1      -1.560  11.581  20.157  0.00  0.00    +0.000 C 
ATOM      6  C   UNL     1      -1.957  12.809  20.930  0.00  0.00    +0.000 A 
ATOM      7  C   UNL     1      -2.468  12.670  22.237  0.00  0.00    +0.000 A 
ATOM      8  C   UNL     1      -2.860  13.789  22.962  0.00  0.00    +0.000 A 
ATOM      9 CL   UNL     1      -3.422  13.641  24.574  0.00  0.00    +0.000 Cl
ATOM     10  C   UNL     1      -2.770  15.019  22.344  0.00  0.00    +0.000 A 
ATOM     11  N   UNL     1      -2.248  15.199  21.112  0.00  0.00    +0.000 NA
ATOM     12  C   UNL     1      -1.789  14.105  20.458  0.00  0.00    +0.000 A 
ATOM     13  N   UNL     1      -1.116  14.430  19.279  0.00  0.00    +0.000 N 
ATOM     14  H   UNL     1      -1.222  15.437  19.156  0.00  0.00    +0.000 HD
ENDROOT
BRANCH   5  15
ATOM     15  C   UNL     1      -2.180  11.238  18.790  0.00  0.00    +0.000 A 
ATOM     16  C   UNL     1      -1.421  10.422  17.907  0.00  0.00    +0.000 A 
ATOM     17  C   UNL     1      -1.916   9.949  16.688  0.00  0.00    +0.000 A 
ATOM     18  C   UNL     1      -3.209  10.261  16.302  0.00  0.00    +0.000 A 
ATOM     19  C   UNL     1      -3.996  11.035  17.143  0.00  0.00    +0.000 A 
ATOM     20  C   UNL     1      -3.506  11.505  18.379  0.00  0.00    +0.000 A 
ATOM     21 CL   UNL     1      -4.681  12.332  19.338  0.00  0.00    +0.000 Cl
ENDBRANCH   5  15
TORSDOF 1
ENDMDL
MODEL 8
REMARK VINA RESULT:      -5.7      6.431      8.041
REMARK  Name = 
REMARK  1 active torsions:
REMARK  status: ('A' for Active; 'I' for Inactive)
REMARK    1  A    between atoms: C_5  and  C_6
REMARK                            x       y       z     vdW  Elec       q    Type
REMARK                         _______ _______ _______ _____ _____    ______ ____
ROOT
ATOM      1  O   UNL     1      -2.520  11.728  17.300  0.00  0.00    +0.000 OA
ATOM      2  C   UNL     1      -1.558  11.653  18.077  0.00  0.00    +0.000 C 
ATOM      3  C   UNL     1      -0.809  10.347  18.204  0.00  0.00    +0.000 C 
ATOM      4  S   UNL     1       0.988  10.382  18.282  0.00  0.00    +0.000 S 
ATOM      5  C   UNL     1       1.232  11.425  19.784  0.00  0.00    +0.000 C 
ATOM      6  C   UNL     1       1.066  12.841  19.305  0.00  0.00    +0.000 A 
ATOM      7  C   UNL     1       2.209  13.642  19.100  0.00  0.00    +0.000 A 
ATOM      8  C   UNL     1       2.078  14.960  18.678  0.00  0.00    +0.000 A 
ATOM      9 CL   UNL     1       3.459  15.924  18.362  0.00  0.00    +0.000 Cl
ATOM     10  C   UNL     1       0.803  15.458  18.512  0.00  0.00    +0.000 A 
ATOM     11  N   UNL     1      -0.314  14.713  18.657  0.00  0.00    +0.000 NA
ATOM     12  C   UNL     1      -0.162  13.407  18.982  0.00  0.00    +0.000 A 
ATOM     13  N   UNL     1      -1.364  12.699  18.932  0.00  0.00    +0.000 N 
ATOM     14  H   UNL     1      -2.094  13.386  18.746  0.00  0.00    +0.000 HD
ENDROOT
BRANCH   5  15
ATOM     15  C   UNL     1       0.577  10.916  21.081  0.00  0.00    +0.000 A 
ATOM     16  C   UNL     1      -0.310  11.795  21.761  0.00  0.00    +0.000 A 
ATOM     17  C   UNL     1      -1.052  11.414  22.883  0.00  0.00    +0.000 A 
ATOM     18  C   UNL     1      -0.952  10.120  23.369  0.00  0.00    +0.000 A 
ATOM     19  C   UNL     1      -0.116   9.220  22.722  0.00  0.00    +0.000 A 
ATOM     20  C   UNL     1       0.625   9.596  21.584  0.00  0.00    +0.000 A 
ATOM     21 CL   UNL     1       1.496   8.298  20.846  0.00  0.00    +0.000 Cl
ENDBRANCH   5  15
TORSDOF 1
ENDMDL
MODEL 9
REMARK VINA RESULT:      -5.6      7.466     10.476
REMARK  Name = 
REMARK  1 active torsions:
REMARK  status: ('A' for Active; 'I' for Inactive)
REMARK    1  A    between atoms: C_5  and  C_6
REMARK                            x       y       z     vdW  Elec       q    Type
REMARK                         _______ _______ _______ _____ _____    ______ ____
ROOT
ATOM      1  O   UNL     1      -5.244  12.584  21.153  0.00  0.00    +0.000 OA
ATOM      2  C   UNL     1      -4.039  12.635  21.435  0.00  0.00    +0.000 C 
ATOM      3  C   UNL     1      -3.025  12.781  20.324  0.00  0.00    +0.000 C 
ATOM      4  S   UNL     1      -1.644  13.910  20.554  0.00  0.00    +0.000 S 
ATOM      5  C   UNL     1      -0.866  13.177  22.057  0.00  0.00    +0.000 C 
ATOM      6  C   UNL     1      -1.685  13.691  23.209  0.00  0.00    +0.000 A 
ATOM      7  C   UNL     1      -1.184  14.746  23.999  0.00  0.00    +0.000 A 
ATOM      8  C   UNL     1      -1.915  15.223  25.082  0.00  0.00    +0.000 A 
ATOM      9 CL   UNL     1      -1.348  16.546  26.011  0.00  0.00    +0.000 Cl
ATOM     10  C   UNL     1      -3.112  14.603  25.372  0.00  0.00    +0.000 A 
ATOM     11  N   UNL     1      -3.646  13.620  24.616  0.00  0.00    +0.000 NA
ATOM     12  C   UNL     1      -2.961  13.231  23.515  0.00  0.00    +0.000 A 
ATOM     13  N   UNL     1      -3.686  12.341  22.720  0.00  0.00    +0.000 N 
ATOM     14  H   UNL     1      -4.541  12.130  23.232  0.00  0.00    +0.000 HD
ENDROOT
BRANCH   5  15
ATOM     15  C   UNL     1      -0.436  11.703  21.951  0.00  0.00    +0.000 A 
ATOM     16  C   UNL     1      -0.839  10.821  22.991  0.00  0.00    +0.000 A 
ATOM     17  C   UNL     1      -0.609   9.442  22.956  0.00  0.00    +0.000 A 
ATOM     18  C   UNL     1       0.026   8.877  21.862  0.00  0.00    +0.000 A 
ATOM     19  C   UNL     1       0.417   9.696  20.812  0.00  0.00    +0.000 A 
ATOM     20  C   UNL     1       0.177  11.085  20.836  0.00  0.00    +0.000 A 
ATOM     21 CL   UNL     1       0.613  11.905  19.380  0.00  0.00    +0.000 Cl
ENDBRANCH   5  15
TORSDOF 1
ENDMDL
