MODEL 1
REMARK VINA RESULT:      -7.7      0.000      0.000
REMARK  Name = 
REMARK  4 active torsions:
REMARK  status: ('A' for Active; 'I' for Inactive)
REMARK    1  A    between atoms: C_2  and  C_4
REMARK    2  A    between atoms: C_8  and  C_10
REMARK    3  A    between atoms: C_13  and  C_14
REMARK    4  A    between atoms: C_14  and  N_15
REMARK                            x       y       z     vdW  Elec       q    Type
REMARK                         _______ _______ _______ _____ _____    ______ ____
ROOT
ATOM      1  C   UNL     1       2.485   2.841  17.462  0.00  0.00    +0.000 C 
ATOM      2  C   UNL     1       3.756   3.538  16.958  0.00  0.00    +0.000 C 
ATOM      3  C   UNL     1       4.278   4.568  17.958  0.00  0.00    +0.000 C 
ATOM      4  N   UNL     1       3.233   5.528  18.309  0.00  0.00    +0.000 N 
ATOM      5  C   UNL     1       3.480   6.891  18.101  0.00  0.00    +0.000 C 
ATOM      6  O   UNL     1       4.485   7.299  17.521  0.00  0.00    +0.000 OA
ATOM      7  C   UNL     1       2.005   4.925  18.831  0.00  0.00    +0.000 C 
ATOM      8  C   UNL     1       1.441   3.879  17.873  0.00  0.00    +0.000 C 
ENDROOT
BRANCH   5   9
ATOM      9  C   UNL     1       2.496   7.915  18.550  0.00  0.00    +0.000 A 
ATOM     10  C   UNL     1       1.954   7.919  19.835  0.00  0.00    +0.000 A 
ATOM     11  C   UNL     1       0.959   8.832  20.177  0.00  0.00    +0.000 A 
ATOM     12  C   UNL     1       0.558   9.823  19.272  0.00  0.00    +0.000 A 
ATOM     13  C   UNL     1       1.185   9.894  18.020  0.00  0.00    +0.000 A 
ATOM     14  C   UNL     1       2.141   8.938  17.658  0.00  0.00    +0.000 A 
BRANCH  12  15
ATOM     15  C   UNL     1      -0.475  10.839  19.694  0.00  0.00    +0.000 C 
BRANCH  15  16
ATOM     16  N   UNL     1      -1.645  10.762  18.829  0.00  0.00    +0.000 N 
ATOM     17  C   UNL     1      -2.633  11.700  18.710  0.00  0.00    +0.000 A 
ATOM     18  C   UNL     1      -3.566  11.136  17.884  0.00  0.00    +0.000 A 
ATOM     19 BR   UNL     1      -5.204  11.843  17.343  0.00  0.00    +0.000 Br
ATOM     20  C   UNL     1      -3.053   9.885  17.520  0.00  0.00    +0.000 A 
ATOM     21  N   UNL     1      -1.854   9.661  18.067  0.00  0.00    +0.000 NA
ENDBRANCH  15  16
ENDBRANCH  12  15
ENDBRANCH   5   9
BRANCH   1  23
ATOM     22  N   UNL     1       3.945   1.175  18.490  0.00  0.00    +0.000 N 
ATOM     23  C   UNL     1       2.770   1.861  18.597  0.00  0.00    +0.000 C 
ATOM     24  O   UNL     1       2.017   1.655  19.537  0.00  0.00    +0.000 OA
ATOM     25  H   UNL     1       4.128   0.467  19.187  0.00  0.00    +0.000 HD
ATOM     26  H   UNL     1       4.508   1.182  17.653  0.00  0.00    +0.000 HD
ENDBRANCH   1  23
TORSDOF 4
ENDMDL
MODEL 2
REMARK VINA RESULT:      -7.7      2.160      2.672
REMARK  Name = 
REMARK  4 active torsions:
REMARK  status: ('A' for Active; 'I' for Inactive)
REMARK    1  A    between atoms: C_2  and  C_4
REMARK    2  A    between atoms: C_8  and  C_10
REMARK    3  A    between atoms: C_13  and  C_14
REMARK    4  A    between atoms: C_14  and  N_15
REMARK                            x       y       z     vdW  Elec       q    Type
REMARK                         _______ _______ _______ _____ _____    ______ ____
ROOT
ATOM      1  C   UNL     1       2.439   2.780  17.538  0.00  0.00    +0.000 C 
ATOM      2  C   UNL     1       3.637   3.515  16.922  0.00  0.00    +0.000 C 
ATOM      3  C   UNL     1       4.215   4.563  17.870  0.00  0.00    +0.000 C 
ATOM      4  N   UNL     1       3.176   5.492  18.314  0.00  0.00    +0.000 N 
ATOM      5  C   UNL     1       3.360   6.861  18.085  0.00  0.00    +0.000 C 
ATOM      6  O   UNL     1       4.296   7.298  17.416  0.00  0.00    +0.000 OA
ATOM      7  C   UNL     1       2.019   4.852  18.945  0.00  0.00    +0.000 C 
ATOM      8  C   UNL     1       1.404   3.787  18.042  0.00  0.00    +0.000 C 
ENDROOT
BRANCH   5   9
ATOM      9  C   UNL     1       2.389   7.855  18.619  0.00  0.00    +0.000 A 
ATOM     10  C   UNL     1       2.026   7.895  19.965  0.00  0.00    +0.000 A 
ATOM     11  C   UNL     1       1.036   8.773  20.402  0.00  0.00    +0.000 A 
ATOM     12  C   UNL     1       0.462   9.697  19.519  0.00  0.00    +0.000 A 
ATOM     13  C   UNL     1       0.909   9.737  18.191  0.00  0.00    +0.000 A 
ATOM     14  C   UNL     1       1.861   8.813  17.742  0.00  0.00    +0.000 A 
BRANCH  12  15
ATOM     15  C   UNL     1      -0.561  10.680  20.035  0.00  0.00    +0.000 C 
BRANCH  15  16
ATOM     16  N   UNL     1       0.034  12.002  20.181  0.00  0.00    +0.000 N 
ATOM     17  C   UNL     1      -0.121  13.062  19.331  0.00  0.00    +0.000 A 
ATOM     18  C   UNL     1       0.717  14.031  19.810  0.00  0.00    +0.000 A 
ATOM     19 BR   UNL     1       1.051  15.722  19.099  0.00  0.00    +0.000 Br
ATOM     20  C   UNL     1       1.305  13.497  20.964  0.00  0.00    +0.000 A 
ATOM     21  N   UNL     1       0.863  12.262  21.220  0.00  0.00    +0.000 NA
ENDBRANCH  15  16
ENDBRANCH  12  15
ENDBRANCH   5   9
BRANCH   1  23
ATOM     22  N   UNL     1       3.878   0.968  18.320  0.00  0.00    +0.000 N 
ATOM     23  C   UNL     1       2.855   1.813  18.644  0.00  0.00    +0.000 C 
ATOM     24  O   UNL     1       2.323   1.747  19.741  0.00  0.00    +0.000 OA
ATOM     25  H   UNL     1       4.128   0.268  19.004  0.00  0.00    +0.000 HD
ATOM     26  H   UNL     1       4.227   0.867  17.379  0.00  0.00    +0.000 HD
ENDBRANCH   1  23
TORSDOF 4
ENDMDL
MODEL 3
REMARK VINA RESULT:      -7.6      0.836      1.441
REMARK  Name = 
REMARK  4 active torsions:
REMARK  status: ('A' for Active; 'I' for Inactive)
REMARK    1  A    between atoms: C_2  and  C_4
REMARK    2  A    between atoms: C_8  and  C_10
REMARK    3  A    between atoms: C_13  and  C_14
REMARK    4  A    between atoms: C_14  and  N_15
REMARK                            x       y       z     vdW  Elec       q    Type
REMARK                         _______ _______ _______ _____ _____    ______ ____
ROOT
ATOM      1  C   UNL     1       2.690   2.744  17.371  0.00  0.00    +0.000 C 
ATOM      2  C   UNL     1       3.980   3.464  16.955  0.00  0.00    +0.000 C 
ATOM      3  C   UNL     1       4.428   4.484  17.999  0.00  0.00    +0.000 C 
ATOM      4  N   UNL     1       3.352   5.428  18.299  0.00  0.00    +0.000 N 
ATOM      5  C   UNL     1       3.594   6.796  18.126  0.00  0.00    +0.000 C 
ATOM      6  O   UNL     1       4.628   7.224  17.613  0.00  0.00    +0.000 OA
ATOM      7  C   UNL     1       2.101   4.803  18.737  0.00  0.00    +0.000 C 
ATOM      8  C   UNL     1       1.609   3.765  17.732  0.00  0.00    +0.000 C 
ENDROOT
BRANCH   5   9
ATOM      9  C   UNL     1       2.572   7.802  18.526  0.00  0.00    +0.000 A 
ATOM     10  C   UNL     1       2.120   8.795  17.657  0.00  0.00    +0.000 A 
ATOM     11  C   UNL     1       1.242   9.779  18.107  0.00  0.00    +0.000 A 
ATOM     12  C   UNL     1       0.721   9.730  19.407  0.00  0.00    +0.000 A 
ATOM     13  C   UNL     1       1.084   8.667  20.245  0.00  0.00    +0.000 A 
ATOM     14  C   UNL     1       2.013   7.714  19.810  0.00  0.00    +0.000 A 
BRANCH  12  15
ATOM     15  C   UNL     1      -0.279  10.772  19.846  0.00  0.00    +0.000 C 
BRANCH  15  16
ATOM     16  N   UNL     1      -1.358  10.881  18.872  0.00  0.00    +0.000 N 
ATOM     17  C   UNL     1      -1.474  10.178  17.704  0.00  0.00    +0.000 A 
ATOM     18  C   UNL     1      -2.568  10.704  17.076  0.00  0.00    +0.000 A 
ATOM     19 BR   UNL     1      -3.266  10.254  15.407  0.00  0.00    +0.000 Br
ATOM     20  C   UNL     1      -3.075  11.684  17.939  0.00  0.00    +0.000 A 
ATOM     21  N   UNL     1      -2.358  11.773  19.064  0.00  0.00    +0.000 NA
ENDBRANCH  15  16
ENDBRANCH  12  15
ENDBRANCH   5   9
BRANCH   1  23
ATOM     22  N   UNL     1       3.960   0.890  18.326  0.00  0.00    +0.000 N 
ATOM     23  C   UNL     1       2.916   1.752  18.508  0.00  0.00    +0.000 C 
ATOM     24  O   UNL     1       2.223   1.681  19.512  0.00  0.00    +0.000 OA
ATOM     25  H   UNL     1       4.091   0.175  19.027  0.00  0.00    +0.000 HD
ATOM     26  H   UNL     1       4.444   0.797  17.447  0.00  0.00    +0.000 HD
ENDBRANCH   1  23
TORSDOF 4
ENDMDL
MODEL 4
REMARK VINA RESULT:      -7.6      1.050      1.226
REMARK  Name = 
REMARK  4 active torsions:
REMARK  status: ('A' for Active; 'I' for Inactive)
REMARK    1  A    between atoms: C_2  and  C_4
REMARK    2  A    between atoms: C_8  and  C_10
REMARK    3  A    between atoms: C_13  and  C_14
REMARK    4  A    between atoms: C_14  and  N_15
REMARK                            x       y       z     vdW  Elec       q    Type
REMARK                         _______ _______ _______ _____ _____    ______ ____
ROOT
ATOM      1  C   UNL     1       2.538   2.810  17.312  0.00  0.00    +0.000 C 
ATOM      2  C   UNL     1       3.834   3.502  16.871  0.00  0.00    +0.000 C 
ATOM      3  C   UNL     1       4.341   4.489  17.920  0.00  0.00    +0.000 C 
ATOM      4  N   UNL     1       3.301   5.455  18.272  0.00  0.00    +0.000 N 
ATOM      5  C   UNL     1       3.575   6.820  18.118  0.00  0.00    +0.000 C 
ATOM      6  O   UNL     1       4.604   7.230  17.582  0.00  0.00    +0.000 OA
ATOM      7  C   UNL     1       2.048   4.855  18.736  0.00  0.00    +0.000 C 
ATOM      8  C   UNL     1       1.497   3.851  17.727  0.00  0.00    +0.000 C 
ENDROOT
BRANCH   5   9
ATOM      9  C   UNL     1       2.594   7.844  18.570  0.00  0.00    +0.000 A 
ATOM     10  C   UNL     1       2.015   7.815  19.839  0.00  0.00    +0.000 A 
ATOM     11  C   UNL     1       1.023   8.733  20.182  0.00  0.00    +0.000 A 
ATOM     12  C   UNL     1       0.665   9.759  19.298  0.00  0.00    +0.000 A 
ATOM     13  C   UNL     1       1.329   9.859  18.068  0.00  0.00    +0.000 A 
ATOM     14  C   UNL     1       2.281   8.901  17.702  0.00  0.00    +0.000 A 
BRANCH  12  15
ATOM     15  C   UNL     1      -0.365  10.778  19.723  0.00  0.00    +0.000 C 
BRANCH  15  16
ATOM     16  N   UNL     1      -1.447  10.841  18.748  0.00  0.00    +0.000 N 
ATOM     17  C   UNL     1      -1.508  10.173  17.556  0.00  0.00    +0.000 A 
ATOM     18  C   UNL     1      -2.637  10.640  16.941  0.00  0.00    +0.000 A 
ATOM     19 BR   UNL     1      -3.296  10.199  15.254  0.00  0.00    +0.000 Br
ATOM     20  C   UNL     1      -3.216  11.548  17.836  0.00  0.00    +0.000 A 
ATOM     21  N   UNL     1      -2.510  11.651  18.966  0.00  0.00    +0.000 NA
ENDBRANCH  15  16
ENDBRANCH  12  15
ENDBRANCH   5   9
BRANCH   1  23
ATOM     22  N   UNL     1       1.681   1.516  19.198  0.00  0.00    +0.000 N 
ATOM     23  C   UNL     1       2.772   1.788  18.422  0.00  0.00    +0.000 C 
ATOM     24  O   UNL     1       3.844   1.250  18.652  0.00  0.00    +0.000 OA
ATOM     25  H   UNL     1       1.822   0.899  19.986  0.00  0.00    +0.000 HD
ATOM     26  H   UNL     1       0.833   2.059  19.159  0.00  0.00    +0.000 HD
ENDBRANCH   1  23
TORSDOF 4
ENDMDL
MODEL 5
REMARK VINA RESULT:      -7.6      2.032      2.661
REMARK  Name = 
REMARK  4 active torsions:
REMARK  status: ('A' for Active; 'I' for Inactive)
REMARK    1  A    between atoms: C_2  and  C_4
REMARK    2  A    between atoms: C_8  and  C_10
REMARK    3  A    between atoms: C_13  and  C_14
REMARK    4  A    between atoms: C_14  and  N_15
REMARK                            x       y       z     vdW  Elec       q    Type
REMARK                         _______ _______ _______ _____ _____    ______ ____
ROOT
ATOM      1  C   UNL     1       2.564   2.929  17.406  0.00  0.00    +0.000 C 
ATOM      2  C   UNL     1       3.795   3.705  16.918  0.00  0.00    +0.000 C 
ATOM      3  C   UNL     1       4.254   4.747  17.936  0.00  0.00    +0.000 C 
ATOM      4  N   UNL     1       3.155   5.641  18.297  0.00  0.00    +0.000 N 
ATOM      5  C   UNL     1       3.325   7.019  18.111  0.00  0.00    +0.000 C 
ATOM      6  O   UNL     1       4.308   7.492  17.541  0.00  0.00    +0.000 OA
ATOM      7  C   UNL     1       1.961   4.961  18.804  0.00  0.00    +0.000 C 
ATOM      8  C   UNL     1       1.461   3.900  17.829  0.00  0.00    +0.000 C 
ENDROOT
BRANCH   5   9
ATOM      9  C   UNL     1       2.283   7.978  18.570  0.00  0.00    +0.000 A 
ATOM     10  C   UNL     1       1.603   8.820  17.689  0.00  0.00    +0.000 A 
ATOM     11  C   UNL     1       0.711   9.775  18.175  0.00  0.00    +0.000 A 
ATOM     12  C   UNL     1       0.408   9.838  19.541  0.00  0.00    +0.000 A 
ATOM     13  C   UNL     1       1.003   8.916  20.413  0.00  0.00    +0.000 A 
ATOM     14  C   UNL     1       1.943   7.998  19.930  0.00  0.00    +0.000 A 
BRANCH  12  15
ATOM     15  C   UNL     1      -0.610  10.840  20.030  0.00  0.00    +0.000 C 
BRANCH  15  16
ATOM     16  N   UNL     1      -0.089  12.195  19.904  0.00  0.00    +0.000 N 
ATOM     17  C   UNL     1      -0.769  13.289  19.444  0.00  0.00    +0.000 A 
ATOM     18  C   UNL     1       0.159  14.292  19.393  0.00  0.00    +0.000 A 
ATOM     19 BR   UNL     1      -0.070  16.044  18.799  0.00  0.00    +0.000 Br
ATOM     20  C   UNL     1       1.353  13.739  19.872  0.00  0.00    +0.000 A 
ATOM     21  N   UNL     1       1.201  12.458  20.224  0.00  0.00    +0.000 NA
ENDBRANCH  15  16
ENDBRANCH  12  15
ENDBRANCH   5   9
BRANCH   1  23
ATOM     22  N   UNL     1       4.054   1.242  18.353  0.00  0.00    +0.000 N 
ATOM     23  C   UNL     1       2.900   1.949  18.528  0.00  0.00    +0.000 C 
ATOM     24  O   UNL     1       2.203   1.762  19.513  0.00  0.00    +0.000 OA
ATOM     25  H   UNL     1       4.267   0.534  19.042  0.00  0.00    +0.000 HD
ATOM     26  H   UNL     1       4.565   1.235  17.484  0.00  0.00    +0.000 HD
ENDBRANCH   1  23
TORSDOF 4
ENDMDL
MODEL 6
REMARK VINA RESULT:      -7.6      2.103      3.143
REMARK  Name = 
REMARK  4 active torsions:
REMARK  status: ('A' for Active; 'I' for Inactive)
REMARK    1  A    between atoms: C_2  and  C_4
REMARK    2  A    between atoms: C_8  and  C_10
REMARK    3  A    between atoms: C_13  and  C_14
REMARK    4  A    between atoms: C_14  and  N_15
REMARK                            x       y       z     vdW  Elec       q    Type
REMARK                         _______ _______ _______ _____ _____    ______ ____
ROOT
ATOM      1  C   UNL     1       6.874   5.428  17.276  0.00  0.00    +0.000 C 
ATOM      2  C   UNL     1       6.243   4.562  18.376  0.00  0.00    +0.000 C 
ATOM      3  C   UNL     1       4.727   4.463  18.226  0.00  0.00    +0.000 C 
ATOM      4  N   UNL     1       4.121   5.792  18.167  0.00  0.00    +0.000 N 
ATOM      5  C   UNL     1       3.134   6.121  19.104  0.00  0.00    +0.000 C 
ATOM      6  O   UNL     1       2.849   5.385  20.048  0.00  0.00    +0.000 OA
ATOM      7  C   UNL     1       4.656   6.656  17.111  0.00  0.00    +0.000 C 
ATOM      8  C   UNL     1       6.174   6.786  17.207  0.00  0.00    +0.000 C 
ENDROOT
BRANCH   5   9
ATOM      9  C   UNL     1       2.407   7.417  19.014  0.00  0.00    +0.000 A 
ATOM     10  C   UNL     1       2.335   8.152  17.831  0.00  0.00    +0.000 A 
ATOM     11  C   UNL     1       1.733   9.409  17.818  0.00  0.00    +0.000 A 
ATOM     12  C   UNL     1       1.103   9.910  18.965  0.00  0.00    +0.000 A 
ATOM     13  C   UNL     1       1.074   9.121  20.123  0.00  0.00    +0.000 A 
ATOM     14  C   UNL     1       1.731   7.886  20.150  0.00  0.00    +0.000 A 
BRANCH  12  15
ATOM     15  C   UNL     1       0.403  11.246  18.904  0.00  0.00    +0.000 C 
BRANCH  15  16
ATOM     16  N   UNL     1      -0.972  11.077  18.452  0.00  0.00    +0.000 N 
ATOM     17  C   UNL     1      -2.047  11.841  18.815  0.00  0.00    +0.000 A 
ATOM     18  C   UNL     1      -3.130  11.231  18.243  0.00  0.00    +0.000 A 
ATOM     19 BR   UNL     1      -4.926  11.709  18.377  0.00  0.00    +0.000 Br
ATOM     20  C   UNL     1      -2.623  10.140  17.525  0.00  0.00    +0.000 A 
ATOM     21  N   UNL     1      -1.292  10.059  17.618  0.00  0.00    +0.000 NA
ENDBRANCH  15  16
ENDBRANCH  12  15
ENDBRANCH   5   9
BRANCH   1  23
ATOM     22  N   UNL     1       7.641   5.332  14.959  0.00  0.00    +0.000 N 
ATOM     23  C   UNL     1       6.871   4.734  15.916  0.00  0.00    +0.000 C 
ATOM     24  O   UNL     1       6.223   3.734  15.651  0.00  0.00    +0.000 OA
ATOM     25  H   UNL     1       7.604   4.939  14.029  0.00  0.00    +0.000 HD
ATOM     26  H   UNL     1       8.050   6.246  15.079  0.00  0.00    +0.000 HD
ENDBRANCH   1  23
TORSDOF 4
ENDMDL
MODEL 7
REMARK VINA RESULT:      -7.5      3.403      4.585
REMARK  Name = 
REMARK  4 active torsions:
REMARK  status: ('A' for Active; 'I' for Inactive)
REMARK    1  A    between atoms: C_2  and  C_4
REMARK    2  A    between atoms: C_8  and  C_10
REMARK    3  A    between atoms: C_13  and  C_14
REMARK    4  A    between atoms: C_14  and  N_15
REMARK                            x       y       z     vdW  Elec       q    Type
REMARK                         _______ _______ _______ _____ _____    ______ ____
ROOT
ATOM      1  C   UNL     1       6.858   5.490  17.339  0.00  0.00    +0.000 C 
ATOM      2  C   UNL     1       6.193   4.589  18.389  0.00  0.00    +0.000 C 
ATOM      3  C   UNL     1       4.680   4.508  18.198  0.00  0.00    +0.000 C 
ATOM      4  N   UNL     1       4.087   5.844  18.173  0.00  0.00    +0.000 N 
ATOM      5  C   UNL     1       3.079   6.146  19.097  0.00  0.00    +0.000 C 
ATOM      6  O   UNL     1       2.764   5.378  20.005  0.00  0.00    +0.000 OA
ATOM      7  C   UNL     1       4.655   6.742  17.165  0.00  0.00    +0.000 C 
ATOM      8  C   UNL     1       6.171   6.856  17.304  0.00  0.00    +0.000 C 
ENDROOT
BRANCH   5   9
ATOM      9  C   UNL     1       2.363   7.450  19.037  0.00  0.00    +0.000 A 
ATOM     10  C   UNL     1       2.242   8.183  17.856  0.00  0.00    +0.000 A 
ATOM     11  C   UNL     1       1.656   9.447  17.868  0.00  0.00    +0.000 A 
ATOM     12  C   UNL     1       1.089   9.959  19.043  0.00  0.00    +0.000 A 
ATOM     13  C   UNL     1       1.107   9.175  20.204  0.00  0.00    +0.000 A 
ATOM     14  C   UNL     1       1.749   7.931  20.203  0.00  0.00    +0.000 A 
BRANCH  12  15
ATOM     15  C   UNL     1       0.403  11.304  19.010  0.00  0.00    +0.000 C 
BRANCH  15  16
ATOM     16  N   UNL     1       1.376  12.373  19.190  0.00  0.00    +0.000 N 
ATOM     17  C   UNL     1       2.039  13.046  18.200  0.00  0.00    +0.000 A 
ATOM     18  C   UNL     1       2.925  13.859  18.850  0.00  0.00    +0.000 A 
ATOM     19 BR   UNL     1       4.189  15.012  18.110  0.00  0.00    +0.000 Br
ATOM     20  C   UNL     1       2.708  13.651  20.218  0.00  0.00    +0.000 A 
ATOM     21  N   UNL     1       1.731  12.765  20.437  0.00  0.00    +0.000 NA
ENDBRANCH  15  16
ENDBRANCH  12  15
ENDBRANCH   5   9
BRANCH   1  23
ATOM     22  N   UNL     1       7.497   5.589  14.984  0.00  0.00    +0.000 N 
ATOM     23  C   UNL     1       6.885   4.848  15.954  0.00  0.00    +0.000 C 
ATOM     24  O   UNL     1       6.387   3.766  15.684  0.00  0.00    +0.000 OA
ATOM     25  H   UNL     1       7.467   5.225  14.042  0.00  0.00    +0.000 HD
ATOM     26  H   UNL     1       7.764   6.552  15.119  0.00  0.00    +0.000 HD
ENDBRANCH   1  23
TORSDOF 4
ENDMDL
MODEL 8
REMARK VINA RESULT:      -7.4      2.090      3.201
REMARK  Name = 
REMARK  4 active torsions:
REMARK  status: ('A' for Active; 'I' for Inactive)
REMARK    1  A    between atoms: C_2  and  C_4
REMARK    2  A    between atoms: C_8  and  C_10
REMARK    3  A    between atoms: C_13  and  C_14
REMARK    4  A    between atoms: C_14  and  N_15
REMARK                            x       y       z     vdW  Elec       q    Type
REMARK                         _______ _______ _______ _____ _____    ______ ____
ROOT
ATOM      1  C   UNL     1       6.613   5.203  17.411  0.00  0.00    +0.000 C 
ATOM      2  C   UNL     1       5.772   4.313  18.336  0.00  0.00    +0.000 C 
ATOM      3  C   UNL     1       4.279   4.421  18.030  0.00  0.00    +0.000 C 
ATOM      4  N   UNL     1       3.839   5.815  18.069  0.00  0.00    +0.000 N 
ATOM      5  C   UNL     1       2.799   6.164  18.940  0.00  0.00    +0.000 C 
ATOM      6  O   UNL     1       2.330   5.374  19.759  0.00  0.00    +0.000 OA
ATOM      7  C   UNL     1       4.582   6.710  17.179  0.00  0.00    +0.000 C 
ATOM      8  C   UNL     1       6.085   6.639  17.435  0.00  0.00    +0.000 C 
ENDROOT
BRANCH   5   9
ATOM      9  C   UNL     1       2.238   7.543  18.933  0.00  0.00    +0.000 A 
ATOM     10  C   UNL     1       2.232   8.341  17.789  0.00  0.00    +0.000 A 
ATOM     11  C   UNL     1       1.793   9.662  17.854  0.00  0.00    +0.000 A 
ATOM     12  C   UNL     1       1.257  10.178  19.041  0.00  0.00    +0.000 A 
ATOM     13  C   UNL     1       1.155   9.341  20.161  0.00  0.00    +0.000 A 
ATOM     14  C   UNL     1       1.653   8.034  20.109  0.00  0.00    +0.000 A 
BRANCH  12  15
ATOM     15  C   UNL     1       0.729  11.592  19.064  0.00  0.00    +0.000 C 
BRANCH  15  16
ATOM     16  N   UNL     1      -0.724  11.592  18.957  0.00  0.00    +0.000 N 
ATOM     17  C   UNL     1      -1.464  11.085  17.925  0.00  0.00    +0.000 A 
ATOM     18  C   UNL     1      -2.758  11.423  18.211  0.00  0.00    +0.000 A 
ATOM     19 BR   UNL     1      -4.286  11.098  17.194  0.00  0.00    +0.000 Br
ATOM     20  C   UNL     1      -2.719  12.091  19.441  0.00  0.00    +0.000 A 
ATOM     21  N   UNL     1      -1.476  12.167  19.926  0.00  0.00    +0.000 NA
ENDBRANCH  15  16
ENDBRANCH  12  15
ENDBRANCH   5   9
BRANCH   1  23
ATOM     22  N   UNL     1       7.356   5.451  15.098  0.00  0.00    +0.000 N 
ATOM     23  C   UNL     1       6.682   4.663  15.985  0.00  0.00    +0.000 C 
ATOM     24  O   UNL     1       6.163   3.621  15.616  0.00  0.00    +0.000 OA
ATOM     25  H   UNL     1       7.357   5.157  14.132  0.00  0.00    +0.000 HD
ATOM     26  H   UNL     1       7.647   6.393  15.314  0.00  0.00    +0.000 HD
ENDBRANCH   1  23
TORSDOF 4
ENDMDL
MODEL 9
REMARK VINA RESULT:      -7.4      2.055      2.939
REMARK  Name = 
REMARK  4 active torsions:
REMARK  status: ('A' for Active; 'I' for Inactive)
REMARK    1  A    between atoms: C_2  and  C_4
REMARK    2  A    between atoms: C_8  and  C_10
REMARK    3  A    between atoms: C_13  and  C_14
REMARK    4  A    between atoms: C_14  and  N_15
REMARK                            x       y       z     vdW  Elec       q    Type
REMARK                         _______ _______ _______ _____ _____    ______ ____
ROOT
ATOM      1  C   UNL     1       6.700   5.245  17.378  0.00  0.00    +0.000 C 
ATOM      2  C   UNL     1       5.922   4.331  18.336  0.00  0.00    +0.000 C 
ATOM      3  C   UNL     1       4.419   4.374  18.072  0.00  0.00    +0.000 C 
ATOM      4  N   UNL     1       3.922   5.749  18.109  0.00  0.00    +0.000 N 
ATOM      5  C   UNL     1       2.894   6.065  19.004  0.00  0.00    +0.000 C 
ATOM      6  O   UNL     1       2.481   5.266  19.845  0.00  0.00    +0.000 OA
ATOM      7  C   UNL     1       4.602   6.664  17.188  0.00  0.00    +0.000 C 
ATOM      8  C   UNL     1       6.113   6.657  17.402  0.00  0.00    +0.000 C 
ENDROOT
BRANCH   5   9
ATOM      9  C   UNL     1       2.275   7.419  18.999  0.00  0.00    +0.000 A 
ATOM     10  C   UNL     1       1.690   7.978  20.135  0.00  0.00    +0.000 A 
ATOM     11  C   UNL     1       1.030   9.203  20.057  0.00  0.00    +0.000 A 
ATOM     12  C   UNL     1       1.032   9.940  18.865  0.00  0.00    +0.000 A 
ATOM     13  C   UNL     1       1.719   9.433  17.754  0.00  0.00    +0.000 A 
ATOM     14  C   UNL     1       2.329   8.175  17.818  0.00  0.00    +0.000 A 
BRANCH  12  15
ATOM     15  C   UNL     1       0.365  11.294  18.829  0.00  0.00    +0.000 C 
BRANCH  15  16
ATOM     16  N   UNL     1      -1.034  11.160  18.445  0.00  0.00    +0.000 N 
ATOM     17  C   UNL     1      -2.076  11.928  18.887  0.00  0.00    +0.000 A 
ATOM     18  C   UNL     1      -3.196  11.353  18.353  0.00  0.00    +0.000 A 
ATOM     19 BR   UNL     1      -4.976  11.853  18.596  0.00  0.00    +0.000 Br
ATOM     20  C   UNL     1      -2.746  10.279  17.575  0.00  0.00    +0.000 A 
ATOM     21  N   UNL     1      -1.413  10.175  17.596  0.00  0.00    +0.000 NA
ENDBRANCH  15  16
ENDBRANCH  12  15
ENDBRANCH   5   9
BRANCH   1  23
ATOM     22  N   UNL     1       7.467   5.440  15.068  0.00  0.00    +0.000 N 
ATOM     23  C   UNL     1       6.751   4.691  15.957  0.00  0.00    +0.000 C 
ATOM     24  O   UNL     1       6.186   3.671  15.592  0.00  0.00    +0.000 OA
ATOM     25  H   UNL     1       7.459   5.139  14.104  0.00  0.00    +0.000 HD
ATOM     26  H   UNL     1       7.799   6.368  15.279  0.00  0.00    +0.000 HD
ENDBRANCH   1  23
TORSDOF 4
ENDMDL
