MODEL 1
REMARK VINA RESULT:      -7.1      0.000      0.000
REMARK  Name = 
REMARK  6 active torsions:
REMARK  status: ('A' for Active; 'I' for Inactive)
REMARK    1  A    between atoms: C_1  and  S_2
REMARK    2  A    between atoms: S_2  and  C_3
REMARK    3  A    between atoms: C_3  and  C_4
REMARK    4  A    between atoms: C_10  and  C_11
REMARK    5  A    between atoms: C_11  and  N_12
REMARK    6  A    between atoms: C_13  and  C_15
REMARK                            x       y       z     vdW  Elec       q    Type
REMARK                         _______ _______ _______ _____ _____    ______ ____
ROOT
ATOM      1  C   UNL     1       3.673   3.176  17.128  0.00  0.00    +0.000 C 
ENDROOT
BRANCH   1   8
ATOM      2  C   UNL     1       2.024   4.231  18.821  0.00  0.00    +0.000 A 
ATOM      3  C   UNL     1       1.297   4.094  20.024  0.00  0.00    +0.000 A 
ATOM      4  C   UNL     1       1.468   2.982  20.838  0.00  0.00    +0.000 A 
ATOM      5  F   UNL     1       0.786   2.891  21.987  0.00  0.00    +0.000 F 
ATOM      6  C   UNL     1       2.343   1.971  20.480  0.00  0.00    +0.000 A 
ATOM      7  C   UNL     1       3.038   2.063  19.275  0.00  0.00    +0.000 A 
ATOM      8  C   UNL     1       2.893   3.181  18.426  0.00  0.00    +0.000 A 
BRANCH   2   9
ATOM      9  C   UNL     1       1.831   5.500  18.013  0.00  0.00    +0.000 C 
BRANCH   9  11
ATOM     10  C   UNL     1       2.175   8.260  18.104  0.00  0.00    +0.000 C 
ATOM     11  S   UNL     1       3.149   6.744  18.273  0.00  0.00    +0.000 S 
ENDBRANCH   9  11
ENDBRANCH   2   9
ENDBRANCH   1   8
BRANCH   1  12
ATOM     12  N   UNL     1       5.016   3.694  17.305  0.00  0.00    +0.000 N 
ATOM     13  C   UNL     1       5.711   4.228  16.235  0.00  0.00    +0.000 C 
ATOM     14  O   UNL     1       5.293   4.160  15.082  0.00  0.00    +0.000 OA
ATOM     15  H   UNL     1       5.271   4.044  18.221  0.00  0.00    +0.000 HD
BRANCH  13  16
ATOM     16  C   UNL     1       7.146   4.697  16.570  0.00  0.00    +0.000 C 
ATOM     17  C   UNL     1       7.299   6.215  16.575  0.00  0.00    +0.000 C 
ATOM     18  C   UNL     1       7.200   6.598  18.051  0.00  0.00    +0.000 C 
ATOM     19  C   UNL     1       7.722   5.368  18.746  0.00  0.00    +0.000 C 
ATOM     20  O   UNL     1       8.149   5.299  19.881  0.00  0.00    +0.000 OA
ATOM     21  N   UNL     1       7.617   4.304  17.878  0.00  0.00    +0.000 N 
ATOM     22  H   UNL     1       8.028   3.409  18.113  0.00  0.00    +0.000 HD
ENDBRANCH  13  16
ENDBRANCH   1  12
TORSDOF 5
ENDMDL
MODEL 2
REMARK VINA RESULT:      -7.0      1.285      1.293
REMARK  Name = 
REMARK  6 active torsions:
REMARK  status: ('A' for Active; 'I' for Inactive)
REMARK    1  A    between atoms: C_1  and  S_2
REMARK    2  A    between atoms: S_2  and  C_3
REMARK    3  A    between atoms: C_3  and  C_4
REMARK    4  A    between atoms: C_10  and  C_11
REMARK    5  A    between atoms: C_11  and  N_12
REMARK    6  A    between atoms: C_13  and  C_15
REMARK                            x       y       z     vdW  Elec       q    Type
REMARK                         _______ _______ _______ _____ _____    ______ ____
ROOT
ATOM      1  C   UNL     1       3.025   4.136  17.282  0.00  0.00    +0.000 C 
ENDROOT
BRANCH   1   8
ATOM      2  C   UNL     1       2.549   4.621  19.779  0.00  0.00    +0.000 A 
ATOM      3  C   UNL     1       1.933   4.204  20.980  0.00  0.00    +0.000 A 
ATOM      4  C   UNL     1       1.310   2.967  21.071  0.00  0.00    +0.000 A 
ATOM      5  F   UNL     1       0.759   2.586  22.230  0.00  0.00    +0.000 F 
ATOM      6  C   UNL     1       1.261   2.118  19.978  0.00  0.00    +0.000 A 
ATOM      7  C   UNL     1       1.822   2.526  18.769  0.00  0.00    +0.000 A 
ATOM      8  C   UNL     1       2.468   3.774  18.643  0.00  0.00    +0.000 A 
BRANCH   2   9
ATOM      9  C   UNL     1       3.263   5.959  19.772  0.00  0.00    +0.000 C 
BRANCH   9  11
ATOM     10  C   UNL     1       1.533   7.959  20.637  0.00  0.00    +0.000 C 
ATOM     11  S   UNL     1       2.251   7.328  19.100  0.00  0.00    +0.000 S 
ENDBRANCH   9  11
ENDBRANCH   2   9
ENDBRANCH   1   8
BRANCH   1  12
ATOM     12  N   UNL     1       4.474   4.168  17.284  0.00  0.00    +0.000 N 
ATOM     13  C   UNL     1       5.154   5.314  16.913  0.00  0.00    +0.000 C 
ATOM     14  O   UNL     1       4.582   6.290  16.437  0.00  0.00    +0.000 OA
ATOM     15  H   UNL     1       4.960   3.549  17.923  0.00  0.00    +0.000 HD
BRANCH  13  16
ATOM     16  C   UNL     1       6.695   5.179  16.922  0.00  0.00    +0.000 C 
ATOM     17  C   UNL     1       7.418   6.522  16.896  0.00  0.00    +0.000 C 
ATOM     18  C   UNL     1       7.777   6.784  18.358  0.00  0.00    +0.000 C 
ATOM     19  C   UNL     1       7.917   5.392  18.917  0.00  0.00    +0.000 C 
ATOM     20  O   UNL     1       8.506   5.068  19.929  0.00  0.00    +0.000 OA
ATOM     21  N   UNL     1       7.234   4.525  18.091  0.00  0.00    +0.000 N 
ATOM     22  H   UNL     1       7.308   3.525  18.227  0.00  0.00    +0.000 HD
ENDBRANCH  13  16
ENDBRANCH   1  12
TORSDOF 5
ENDMDL
MODEL 3
REMARK VINA RESULT:      -7.0      2.167      3.102
REMARK  Name = 
REMARK  6 active torsions:
REMARK  status: ('A' for Active; 'I' for Inactive)
REMARK    1  A    between atoms: C_1  and  S_2
REMARK    2  A    between atoms: S_2  and  C_3
REMARK    3  A    between atoms: C_3  and  C_4
REMARK    4  A    between atoms: C_10  and  C_11
REMARK    5  A    between atoms: C_11  and  N_12
REMARK    6  A    between atoms: C_13  and  C_15
REMARK                            x       y       z     vdW  Elec       q    Type
REMARK                         _______ _______ _______ _____ _____    ______ ____
ROOT
ATOM      1  C   UNL     1       3.486   6.111  17.498  0.00  0.00    +0.000 C 
ENDROOT
BRANCH   1   8
ATOM      2  C   UNL     1       2.196   5.990  19.739  0.00  0.00    +0.000 A 
ATOM      3  C   UNL     1       1.529   5.187  20.690  0.00  0.00    +0.000 A 
ATOM      4  C   UNL     1       1.515   3.804  20.573  0.00  0.00    +0.000 A 
ATOM      5  F   UNL     1       0.899   3.066  21.505  0.00  0.00    +0.000 F 
ATOM      6  C   UNL     1       2.137   3.179  19.507  0.00  0.00    +0.000 A 
ATOM      7  C   UNL     1       2.763   3.952  18.530  0.00  0.00    +0.000 A 
ATOM      8  C   UNL     1       2.803   5.359  18.621  0.00  0.00    +0.000 A 
BRANCH   2   9
ATOM      9  C   UNL     1       2.223   7.489  19.965  0.00  0.00    +0.000 C 
BRANCH   9  11
ATOM     10  C   UNL     1       0.455   9.596  20.383  0.00  0.00    +0.000 C 
ATOM     11  S   UNL     1       0.995   8.069  21.191  0.00  0.00    +0.000 S 
ENDBRANCH   9  11
ENDBRANCH   2   9
ENDBRANCH   1   8
BRANCH   1  12
ATOM     12  N   UNL     1       4.521   5.315  16.868  0.00  0.00    +0.000 N 
ATOM     13  C   UNL     1       5.851   5.680  16.968  0.00  0.00    +0.000 C 
ATOM     14  O   UNL     1       6.202   6.749  17.462  0.00  0.00    +0.000 OA
ATOM     15  H   UNL     1       4.339   4.327  16.730  0.00  0.00    +0.000 HD
BRANCH  13  16
ATOM     16  C   UNL     1       6.831   4.758  16.206  0.00  0.00    +0.000 C 
ATOM     17  C   UNL     1       6.132   3.646  15.430  0.00  0.00    +0.000 C 
ATOM     18  C   UNL     1       6.058   4.176  13.998  0.00  0.00    +0.000 C 
ATOM     19  C   UNL     1       7.261   5.079  13.918  0.00  0.00    +0.000 C 
ATOM     20  O   UNL     1       7.818   5.464  12.910  0.00  0.00    +0.000 OA
ATOM     21  N   UNL     1       7.625   5.427  15.201  0.00  0.00    +0.000 N 
ATOM     22  H   UNL     1       8.485   5.932  15.369  0.00  0.00    +0.000 HD
ENDBRANCH  13  16
ENDBRANCH   1  12
TORSDOF 5
ENDMDL
MODEL 4
REMARK VINA RESULT:      -6.9      3.555      6.078
REMARK  Name = 
REMARK  6 active torsions:
REMARK  status: ('A' for Active; 'I' for Inactive)
REMARK    1  A    between atoms: C_1  and  S_2
REMARK    2  A    between atoms: S_2  and  C_3
REMARK    3  A    between atoms: C_3  and  C_4
REMARK    4  A    between atoms: C_10  and  C_11
REMARK    5  A    between atoms: C_11  and  N_12
REMARK    6  A    between atoms: C_13  and  C_15
REMARK                            x       y       z     vdW  Elec       q    Type
REMARK                         _______ _______ _______ _____ _____    ______ ____
ROOT
ATOM      1  C   UNL     1       4.624   3.521  17.120  0.00  0.00    +0.000 C 
ENDROOT
BRANCH   1   8
ATOM      2  C   UNL     1       6.220   5.468  16.519  0.00  0.00    +0.000 A 
ATOM      3  C   UNL     1       7.145   6.435  16.969  0.00  0.00    +0.000 A 
ATOM      4  C   UNL     1       7.562   6.463  18.293  0.00  0.00    +0.000 A 
ATOM      5  F   UNL     1       8.461   7.374  18.687  0.00  0.00    +0.000 F 
ATOM      6  C   UNL     1       7.064   5.553  19.210  0.00  0.00    +0.000 A 
ATOM      7  C   UNL     1       6.115   4.618  18.801  0.00  0.00    +0.000 A 
ATOM      8  C   UNL     1       5.674   4.558  17.461  0.00  0.00    +0.000 A 
BRANCH   2   9
ATOM      9  C   UNL     1       5.858   5.459  15.047  0.00  0.00    +0.000 C 
BRANCH   9  11
ATOM     10  C   UNL     1       6.088   3.619  12.972  0.00  0.00    +0.000 C 
ATOM     11  S   UNL     1       7.136   4.698  13.980  0.00  0.00    +0.000 S 
ENDBRANCH   9  11
ENDBRANCH   2   9
ENDBRANCH   1   8
BRANCH   1  12
ATOM     12  N   UNL     1       3.481   3.599  18.007  0.00  0.00    +0.000 N 
ATOM     13  C   UNL     1       3.003   2.467  18.642  0.00  0.00    +0.000 C 
ATOM     14  O   UNL     1       3.421   1.342  18.380  0.00  0.00    +0.000 OA
ATOM     15  H   UNL     1       3.306   4.480  18.477  0.00  0.00    +0.000 HD
BRANCH  13  16
ATOM     16  C   UNL     1       1.751   2.701  19.519  0.00  0.00    +0.000 C 
ATOM     17  C   UNL     1       2.001   2.457  21.004  0.00  0.00    +0.000 C 
ATOM     18  C   UNL     1       2.241   3.852  21.580  0.00  0.00    +0.000 C 
ATOM     19  C   UNL     1       1.435   4.731  20.659  0.00  0.00    +0.000 C 
ATOM     20  O   UNL     1       1.039   5.857  20.888  0.00  0.00    +0.000 OA
ATOM     21  N   UNL     1       1.233   4.049  19.479  0.00  0.00    +0.000 N 
ATOM     22  H   UNL     1       0.609   4.421  18.774  0.00  0.00    +0.000 HD
ENDBRANCH  13  16
ENDBRANCH   1  12
TORSDOF 5
ENDMDL
MODEL 5
REMARK VINA RESULT:      -6.9      2.173      3.645
REMARK  Name = 
REMARK  6 active torsions:
REMARK  status: ('A' for Active; 'I' for Inactive)
REMARK    1  A    between atoms: C_1  and  S_2
REMARK    2  A    between atoms: S_2  and  C_3
REMARK    3  A    between atoms: C_3  and  C_4
REMARK    4  A    between atoms: C_10  and  C_11
REMARK    5  A    between atoms: C_11  and  N_12
REMARK    6  A    between atoms: C_13  and  C_15
REMARK                            x       y       z     vdW  Elec       q    Type
REMARK                         _______ _______ _______ _____ _____    ______ ____
ROOT
ATOM      1  C   UNL     1       3.157   5.272  17.770  0.00  0.00    +0.000 C 
ENDROOT
BRANCH   1   8
ATOM      2  C   UNL     1       2.174   6.282  19.941  0.00  0.00    +0.000 A 
ATOM      3  C   UNL     1       1.683   7.425  20.610  0.00  0.00    +0.000 A 
ATOM      4  C   UNL     1       1.518   8.629  19.939  0.00  0.00    +0.000 A 
ATOM      5  F   UNL     1       1.024   9.689  20.592  0.00  0.00    +0.000 F 
ATOM      6  C   UNL     1       1.849   8.744  18.600  0.00  0.00    +0.000 A 
ATOM      7  C   UNL     1       2.378   7.643  17.929  0.00  0.00    +0.000 A 
ATOM      8  C   UNL     1       2.554   6.402  18.578  0.00  0.00    +0.000 A 
BRANCH   2   9
ATOM      9  C   UNL     1       2.270   4.986  20.721  0.00  0.00    +0.000 C 
BRANCH   9  11
ATOM     10  C   UNL     1       1.965   2.350  19.884  0.00  0.00    +0.000 C 
ATOM     11  S   UNL     1       0.950   3.785  20.316  0.00  0.00    +0.000 S 
ENDBRANCH   9  11
ENDBRANCH   2   9
ENDBRANCH   1   8
BRANCH   1  12
ATOM     12  N   UNL     1       4.605   5.341  17.745  0.00  0.00    +0.000 N 
ATOM     13  C   UNL     1       5.322   4.725  16.736  0.00  0.00    +0.000 C 
ATOM     14  O   UNL     1       4.791   3.987  15.911  0.00  0.00    +0.000 OA
ATOM     15  H   UNL     1       5.048   6.141  18.183  0.00  0.00    +0.000 HD
BRANCH  13  16
ATOM     16  C   UNL     1       6.858   4.847  16.871  0.00  0.00    +0.000 C 
ATOM     17  C   UNL     1       7.357   6.287  16.807  0.00  0.00    +0.000 C 
ATOM     18  C   UNL     1       7.542   6.686  18.271  0.00  0.00    +0.000 C 
ATOM     19  C   UNL     1       7.853   5.370  18.934  0.00  0.00    +0.000 C 
ATOM     20  O   UNL     1       8.397   5.205  20.008  0.00  0.00    +0.000 OA
ATOM     21  N   UNL     1       7.392   4.357  18.121  0.00  0.00    +0.000 N 
ATOM     22  H   UNL     1       7.612   3.392  18.331  0.00  0.00    +0.000 HD
ENDBRANCH  13  16
ENDBRANCH   1  12
TORSDOF 5
ENDMDL
MODEL 6
REMARK VINA RESULT:      -6.8      1.377      1.516
REMARK  Name = 
REMARK  6 active torsions:
REMARK  status: ('A' for Active; 'I' for Inactive)
REMARK    1  A    between atoms: C_1  and  S_2
REMARK    2  A    between atoms: S_2  and  C_3
REMARK    3  A    between atoms: C_3  and  C_4
REMARK    4  A    between atoms: C_10  and  C_11
REMARK    5  A    between atoms: C_11  and  N_12
REMARK    6  A    between atoms: C_13  and  C_15
REMARK                            x       y       z     vdW  Elec       q    Type
REMARK                         _______ _______ _______ _____ _____    ______ ____
ROOT
ATOM      1  C   UNL     1       3.104   5.320  17.378  0.00  0.00    +0.000 C 
ENDROOT
BRANCH   1   8
ATOM      2  C   UNL     1       2.156   5.484  19.781  0.00  0.00    +0.000 A 
ATOM      3  C   UNL     1       1.582   4.818  20.885  0.00  0.00    +0.000 A 
ATOM      4  C   UNL     1       1.449   3.437  20.895  0.00  0.00    +0.000 A 
ATOM      5  F   UNL     1       0.926   2.828  21.968  0.00  0.00    +0.000 F 
ATOM      6  C   UNL     1       1.858   2.679  19.812  0.00  0.00    +0.000 A 
ATOM      7  C   UNL     1       2.387   3.317  18.691  0.00  0.00    +0.000 A 
ATOM      8  C   UNL     1       2.542   4.719  18.649  0.00  0.00    +0.000 A 
BRANCH   2   9
ATOM      9  C   UNL     1       2.326   6.989  19.865  0.00  0.00    +0.000 C 
BRANCH   9  11
ATOM     10  C   UNL     1       0.881   9.343  20.203  0.00  0.00    +0.000 C 
ATOM     11  S   UNL     1       1.205   7.788  21.071  0.00  0.00    +0.000 S 
ENDBRANCH   9  11
ENDBRANCH   2   9
ENDBRANCH   1   8
BRANCH   1  12
ATOM     12  N   UNL     1       4.549   5.429  17.426  0.00  0.00    +0.000 N 
ATOM     13  C   UNL     1       5.340   4.685  16.569  0.00  0.00    +0.000 C 
ATOM     14  O   UNL     1       4.877   3.810  15.843  0.00  0.00    +0.000 OA
ATOM     15  H   UNL     1       4.946   6.301  17.756  0.00  0.00    +0.000 HD
BRANCH  13  16
ATOM     16  C   UNL     1       6.862   4.875  16.771  0.00  0.00    +0.000 C 
ATOM     17  C   UNL     1       7.293   6.338  16.768  0.00  0.00    +0.000 C 
ATOM     18  C   UNL     1       7.400   6.702  18.248  0.00  0.00    +0.000 C 
ATOM     19  C   UNL     1       7.747   5.383  18.887  0.00  0.00    +0.000 C 
ATOM     20  O   UNL     1       8.254   5.213  19.978  0.00  0.00    +0.000 OA
ATOM     21  N   UNL     1       7.368   4.374  18.029  0.00  0.00    +0.000 N 
ATOM     22  H   UNL     1       7.625   3.415  18.221  0.00  0.00    +0.000 HD
ENDBRANCH  13  16
ENDBRANCH   1  12
TORSDOF 5
ENDMDL
MODEL 7
REMARK VINA RESULT:      -6.8      2.584      3.943
REMARK  Name = 
REMARK  6 active torsions:
REMARK  status: ('A' for Active; 'I' for Inactive)
REMARK    1  A    between atoms: C_1  and  S_2
REMARK    2  A    between atoms: S_2  and  C_3
REMARK    3  A    between atoms: C_3  and  C_4
REMARK    4  A    between atoms: C_10  and  C_11
REMARK    5  A    between atoms: C_11  and  N_12
REMARK    6  A    between atoms: C_13  and  C_15
REMARK                            x       y       z     vdW  Elec       q    Type
REMARK                         _______ _______ _______ _____ _____    ______ ____
ROOT
ATOM      1  C   UNL     1       3.201   5.037  17.881  0.00  0.00    +0.000 C 
ENDROOT
BRANCH   1   8
ATOM      2  C   UNL     1       2.221   6.307  19.913  0.00  0.00    +0.000 A 
ATOM      3  C   UNL     1       1.754   7.529  20.445  0.00  0.00    +0.000 A 
ATOM      4  C   UNL     1       1.628   8.654  19.642  0.00  0.00    +0.000 A 
ATOM      5  F   UNL     1       1.156   9.793  20.166  0.00  0.00    +0.000 F 
ATOM      6  C   UNL     1       1.977   8.611  18.303  0.00  0.00    +0.000 A 
ATOM      7  C   UNL     1       2.483   7.429  17.766  0.00  0.00    +0.000 A 
ATOM      8  C   UNL     1       2.619   6.265  18.551  0.00  0.00    +0.000 A 
BRANCH   2   9
ATOM      9  C   UNL     1       2.275   5.103  20.834  0.00  0.00    +0.000 C 
BRANCH   9  11
ATOM     10  C   UNL     1       1.533   2.539  21.619  0.00  0.00    +0.000 C 
ATOM     11  S   UNL     1       1.056   3.803  20.415  0.00  0.00    +0.000 S 
ENDBRANCH   9  11
ENDBRANCH   2   9
ENDBRANCH   1   8
BRANCH   1  12
ATOM     12  N   UNL     1       4.618   5.188  17.616  0.00  0.00    +0.000 N 
ATOM     13  C   UNL     1       5.552   4.479  18.349  0.00  0.00    +0.000 C 
ATOM     14  O   UNL     1       5.243   3.813  19.334  0.00  0.00    +0.000 OA
ATOM     15  H   UNL     1       4.897   5.456  16.679  0.00  0.00    +0.000 HD
BRANCH  13  16
ATOM     16  C   UNL     1       7.023   4.781  17.981  0.00  0.00    +0.000 C 
ATOM     17  C   UNL     1       7.182   5.418  16.605  0.00  0.00    +0.000 C 
ATOM     18  C   UNL     1       7.309   6.914  16.894  0.00  0.00    +0.000 C 
ATOM     19  C   UNL     1       7.925   6.931  18.269  0.00  0.00    +0.000 C 
ATOM     20  O   UNL     1       8.519   7.854  18.790  0.00  0.00    +0.000 OA
ATOM     21  N   UNL     1       7.684   5.713  18.865  0.00  0.00    +0.000 N 
ATOM     22  H   UNL     1       8.122   5.480  19.747  0.00  0.00    +0.000 HD
ENDBRANCH  13  16
ENDBRANCH   1  12
TORSDOF 5
ENDMDL
MODEL 8
REMARK VINA RESULT:      -6.8      2.060      3.181
REMARK  Name = 
REMARK  6 active torsions:
REMARK  status: ('A' for Active; 'I' for Inactive)
REMARK    1  A    between atoms: C_1  and  S_2
REMARK    2  A    between atoms: S_2  and  C_3
REMARK    3  A    between atoms: C_3  and  C_4
REMARK    4  A    between atoms: C_10  and  C_11
REMARK    5  A    between atoms: C_11  and  N_12
REMARK    6  A    between atoms: C_13  and  C_15
REMARK                            x       y       z     vdW  Elec       q    Type
REMARK                         _______ _______ _______ _____ _____    ______ ____
ROOT
ATOM      1  C   UNL     1       3.240   4.697  17.511  0.00  0.00    +0.000 C 
ENDROOT
BRANCH   1   8
ATOM      2  C   UNL     1       1.926   4.938  19.728  0.00  0.00    +0.000 A 
ATOM      3  C   UNL     1       1.428   5.795  20.733  0.00  0.00    +0.000 A 
ATOM      4  C   UNL     1       1.540   7.173  20.616  0.00  0.00    +0.000 A 
ATOM      5  F   UNL     1       1.034   7.964  21.571  0.00  0.00    +0.000 F 
ATOM      6  C   UNL     1       2.162   7.741  19.517  0.00  0.00    +0.000 A 
ATOM      7  C   UNL     1       2.702   6.915  18.533  0.00  0.00    +0.000 A 
ATOM      8  C   UNL     1       2.601   5.510  18.618  0.00  0.00    +0.000 A 
BRANCH   2   9
ATOM      9  C   UNL     1       1.713   3.446  19.894  0.00  0.00    +0.000 C 
BRANCH   9  11
ATOM     10  C   UNL     1       4.226   2.295  20.223  0.00  0.00    +0.000 C 
ATOM     11  S   UNL     1       2.755   2.696  21.199  0.00  0.00    +0.000 S 
ENDBRANCH   9  11
ENDBRANCH   2   9
ENDBRANCH   1   8
BRANCH   1  12
ATOM     12  N   UNL     1       4.687   4.723  17.590  0.00  0.00    +0.000 N 
ATOM     13  C   UNL     1       5.427   5.512  16.728  0.00  0.00    +0.000 C 
ATOM     14  O   UNL     1       4.916   6.105  15.781  0.00  0.00    +0.000 OA
ATOM     15  H   UNL     1       5.115   4.520  18.487  0.00  0.00    +0.000 HD
BRANCH  13  16
ATOM     16  C   UNL     1       6.959   5.398  16.904  0.00  0.00    +0.000 C 
ATOM     17  C   UNL     1       7.652   6.749  17.045  0.00  0.00    +0.000 C 
ATOM     18  C   UNL     1       7.838   6.922  18.552  0.00  0.00    +0.000 C 
ATOM     19  C   UNL     1       7.942   5.499  19.036  0.00  0.00    +0.000 C 
ATOM     20  O   UNL     1       8.419   5.119  20.086  0.00  0.00    +0.000 OA
ATOM     21  N   UNL     1       7.375   4.678  18.085  0.00  0.00    +0.000 N 
ATOM     22  H   UNL     1       7.454   3.672  18.167  0.00  0.00    +0.000 HD
ENDBRANCH  13  16
ENDBRANCH   1  12
TORSDOF 5
ENDMDL
MODEL 9
REMARK VINA RESULT:      -6.6      4.388      6.609
REMARK  Name = 
REMARK  6 active torsions:
REMARK  status: ('A' for Active; 'I' for Inactive)
REMARK    1  A    between atoms: C_1  and  S_2
REMARK    2  A    between atoms: S_2  and  C_3
REMARK    3  A    between atoms: C_3  and  C_4
REMARK    4  A    between atoms: C_10  and  C_11
REMARK    5  A    between atoms: C_11  and  N_12
REMARK    6  A    between atoms: C_13  and  C_15
REMARK                            x       y       z     vdW  Elec       q    Type
REMARK                         _______ _______ _______ _____ _____    ______ ____
ROOT
ATOM      1  C   UNL     1       1.738   8.282  19.952  0.00  0.00    +0.000 C 
ENDROOT
BRANCH   1   8
ATOM      2  C   UNL     1       0.049  10.202  20.350  0.00  0.00    +0.000 A 
ATOM      3  C   UNL     1      -0.775  10.897  21.263  0.00  0.00    +0.000 A 
ATOM      4  C   UNL     1      -0.749  10.599  22.618  0.00  0.00    +0.000 A 
ATOM      5  F   UNL     1      -1.521  11.293  23.464  0.00  0.00    +0.000 F 
ATOM      6  C   UNL     1       0.072   9.597  23.106  0.00  0.00    +0.000 A 
ATOM      7  C   UNL     1       0.861   8.866  22.219  0.00  0.00    +0.000 A 
ATOM      8  C   UNL     1       0.864   9.147  20.836  0.00  0.00    +0.000 A 
BRANCH   2   9
ATOM      9  C   UNL     1       0.013  10.624  18.894  0.00  0.00    +0.000 C 
BRANCH   9  11
ATOM     10  C   UNL     1      -1.951   9.935  17.047  0.00  0.00    +0.000 C 
ATOM     11  S   UNL     1      -1.639  11.174  18.329  0.00  0.00    +0.000 S 
ENDBRANCH   9  11
ENDBRANCH   2   9
ENDBRANCH   1   8
BRANCH   1  12
ATOM     12  N   UNL     1       1.932   6.960  20.514  0.00  0.00    +0.000 N 
ATOM     13  C   UNL     1       2.363   5.913  19.719  0.00  0.00    +0.000 C 
ATOM     14  O   UNL     1       2.462   6.013  18.499  0.00  0.00    +0.000 OA
ATOM     15  H   UNL     1       2.158   6.893  21.500  0.00  0.00    +0.000 HD
BRANCH  13  16
ATOM     16  C   UNL     1       2.478   4.555  20.451  0.00  0.00    +0.000 C 
ATOM     17  C   UNL     1       1.141   3.839  20.607  0.00  0.00    +0.000 C 
ATOM     18  C   UNL     1       1.118   2.828  19.461  0.00  0.00    +0.000 C 
ATOM     19  C   UNL     1       2.581   2.539  19.249  0.00  0.00    +0.000 C 
ATOM     20  O   UNL     1       3.060   1.572  18.691  0.00  0.00    +0.000 OA
ATOM     21  N   UNL     1       3.309   3.581  19.781  0.00  0.00    +0.000 N 
ATOM     22  H   UNL     1       4.317   3.519  19.848  0.00  0.00    +0.000 HD
ENDBRANCH  13  16
ENDBRANCH   1  12
TORSDOF 5
ENDMDL
