MODEL 1
REMARK VINA RESULT:      -5.8      0.000      0.000
REMARK  Name = 
REMARK  7 active torsions:
REMARK  status: ('A' for Active; 'I' for Inactive)
REMARK    1  A    between atoms: C_1  and  O_2
REMARK    2  A    between atoms: O_2  and  C_3
REMARK    3  A    between atoms: C_6  and  C_7
REMARK    4  A    between atoms: C_7  and  C_8
REMARK    5  A    between atoms: C_8  and  C_9
REMARK    6  A    between atoms: C_12  and  O_13
REMARK    7  A    between atoms: O_13  and  C_14
REMARK                            x       y       z     vdW  Elec       q    Type
REMARK                         _______ _______ _______ _____ _____    ______ ____
ROOT
ATOM      1  C   UNL     1       2.243   4.589  18.469  0.00  0.00    +0.000 A 
ATOM      2  C   UNL     1       2.645   5.932  18.475  0.00  0.00    +0.000 A 
ATOM      3  C   UNL     1       3.722   6.361  17.691  0.00  0.00    +0.000 A 
ATOM      4  C   UNL     1       4.430   5.450  16.907  0.00  0.00    +0.000 A 
ATOM      5  C   UNL     1       4.056   4.100  16.941  0.00  0.00    +0.000 A 
ATOM      6  C   UNL     1       2.988   3.657  17.733  0.00  0.00    +0.000 A 
ENDROOT
BRANCH   1   8
ATOM      7  C   UNL     1       1.338   4.036  20.578  0.00  0.00    +0.000 C 
ATOM      8  O   UNL     1       1.151   4.153  19.169  0.00  0.00    +0.000 OA
ENDBRANCH   1   8
BRANCH   6   9
ATOM      9  O   UNL     1       2.747   2.312  17.632  0.00  0.00    +0.000 OA
ATOM     10  C   UNL     1       3.523   1.475  18.484  0.00  0.00    +0.000 C 
ENDBRANCH   6   9
BRANCH   4  11
ATOM     11  C   UNL     1       5.601   5.896  16.063  0.00  0.00    +0.000 C 
BRANCH  11  12
ATOM     12  C   UNL     1       6.955   5.847  16.742  0.00  0.00    +0.000 C 
ATOM     13  C   UNL     1       7.428   7.042  17.528  0.00  0.00    +0.000 C 
ATOM     14  O   UNL     1       7.688   4.864  16.605  0.00  0.00    +0.000 OA
ENDBRANCH  11  12
ENDBRANCH   4  11
TORSDOF 4
ENDMDL
MODEL 2
REMARK VINA RESULT:      -5.7      1.453      5.203
REMARK  Name = 
REMARK  7 active torsions:
REMARK  status: ('A' for Active; 'I' for Inactive)
REMARK    1  A    between atoms: C_1  and  O_2
REMARK    2  A    between atoms: O_2  and  C_3
REMARK    3  A    between atoms: C_6  and  C_7
REMARK    4  A    between atoms: C_7  and  C_8
REMARK    5  A    between atoms: C_8  and  C_9
REMARK    6  A    between atoms: C_12  and  O_13
REMARK    7  A    between atoms: O_13  and  C_14
REMARK                            x       y       z     vdW  Elec       q    Type
REMARK                         _______ _______ _______ _____ _____    ______ ____
ROOT
ATOM      1  C   UNL     1       6.008   6.449  16.817  0.00  0.00    +0.000 A 
ATOM      2  C   UNL     1       4.834   6.681  17.548  0.00  0.00    +0.000 A 
ATOM      3  C   UNL     1       3.908   5.655  17.762  0.00  0.00    +0.000 A 
ATOM      4  C   UNL     1       4.129   4.384  17.229  0.00  0.00    +0.000 A 
ATOM      5  C   UNL     1       5.280   4.169  16.458  0.00  0.00    +0.000 A 
ATOM      6  C   UNL     1       6.207   5.194  16.226  0.00  0.00    +0.000 A 
ENDROOT
BRANCH   1   8
ATOM      7  C   UNL     1       7.746   7.699  17.811  0.00  0.00    +0.000 C 
ATOM      8  O   UNL     1       6.965   7.414  16.652  0.00  0.00    +0.000 OA
ENDBRANCH   1   8
BRANCH   6   9
ATOM      9  O   UNL     1       7.281   4.805  15.471  0.00  0.00    +0.000 OA
ATOM     10  C   UNL     1       7.062   4.735  14.065  0.00  0.00    +0.000 C 
ENDBRANCH   6   9
BRANCH   4  11
ATOM     11  C   UNL     1       3.134   3.268  17.443  0.00  0.00    +0.000 C 
BRANCH  11  12
ATOM     12  C   UNL     1       1.773   3.691  17.957  0.00  0.00    +0.000 C 
ATOM     13  C   UNL     1       1.418   3.433  19.399  0.00  0.00    +0.000 C 
ATOM     14  O   UNL     1       0.943   4.190  17.193  0.00  0.00    +0.000 OA
ENDBRANCH  11  12
ENDBRANCH   4  11
TORSDOF 4
ENDMDL
MODEL 3
REMARK VINA RESULT:      -5.7      1.452      4.944
REMARK  Name = 
REMARK  7 active torsions:
REMARK  status: ('A' for Active; 'I' for Inactive)
REMARK    1  A    between atoms: C_1  and  O_2
REMARK    2  A    between atoms: O_2  and  C_3
REMARK    3  A    between atoms: C_6  and  C_7
REMARK    4  A    between atoms: C_7  and  C_8
REMARK    5  A    between atoms: C_8  and  C_9
REMARK    6  A    between atoms: C_12  and  O_13
REMARK    7  A    between atoms: O_13  and  C_14
REMARK                            x       y       z     vdW  Elec       q    Type
REMARK                         _______ _______ _______ _____ _____    ______ ____
ROOT
ATOM      1  C   UNL     1       5.433   6.227  16.785  0.00  0.00    +0.000 A 
ATOM      2  C   UNL     1       4.312   6.644  17.517  0.00  0.00    +0.000 A 
ATOM      3  C   UNL     1       3.298   5.740  17.852  0.00  0.00    +0.000 A 
ATOM      4  C   UNL     1       3.377   4.408  17.441  0.00  0.00    +0.000 A 
ATOM      5  C   UNL     1       4.475   4.007  16.668  0.00  0.00    +0.000 A 
ATOM      6  C   UNL     1       5.489   4.908  16.315  0.00  0.00    +0.000 A 
ENDROOT
BRANCH   1   8
ATOM      7  C   UNL     1       7.433   7.222  17.549  0.00  0.00    +0.000 C 
ATOM      8  O   UNL     1       6.473   7.072  16.505  0.00  0.00    +0.000 OA
ENDBRANCH   1   8
BRANCH   6   9
ATOM      9  O   UNL     1       6.495   4.344  15.576  0.00  0.00    +0.000 OA
ATOM     10  C   UNL     1       6.152   3.961  14.247  0.00  0.00    +0.000 C 
ENDBRANCH   6   9
BRANCH   4  11
ATOM     11  C   UNL     1       2.286   3.423  17.786  0.00  0.00    +0.000 C 
BRANCH  11  12
ATOM     12  C   UNL     1       2.162   3.068  19.254  0.00  0.00    +0.000 C 
ATOM     13  C   UNL     1       0.939   3.506  20.017  0.00  0.00    +0.000 C 
ATOM     14  O   UNL     1       3.078   2.480  19.835  0.00  0.00    +0.000 OA
ENDBRANCH  11  12
ENDBRANCH   4  11
TORSDOF 4
ENDMDL
MODEL 4
REMARK VINA RESULT:      -5.7      0.881      1.310
REMARK  Name = 
REMARK  7 active torsions:
REMARK  status: ('A' for Active; 'I' for Inactive)
REMARK    1  A    between atoms: C_1  and  O_2
REMARK    2  A    between atoms: O_2  and  C_3
REMARK    3  A    between atoms: C_6  and  C_7
REMARK    4  A    between atoms: C_7  and  C_8
REMARK    5  A    between atoms: C_8  and  C_9
REMARK    6  A    between atoms: C_12  and  O_13
REMARK    7  A    between atoms: O_13  and  C_14
REMARK                            x       y       z     vdW  Elec       q    Type
REMARK                         _______ _______ _______ _____ _____    ______ ____
ROOT
ATOM      1  C   UNL     1       2.428   4.734  18.651  0.00  0.00    +0.000 A 
ATOM      2  C   UNL     1       2.907   6.052  18.638  0.00  0.00    +0.000 A 
ATOM      3  C   UNL     1       3.914   6.440  17.747  0.00  0.00    +0.000 A 
ATOM      4  C   UNL     1       4.475   5.511  16.869  0.00  0.00    +0.000 A 
ATOM      5  C   UNL     1       4.027   4.184  16.919  0.00  0.00    +0.000 A 
ATOM      6  C   UNL     1       3.029   3.781  17.818  0.00  0.00    +0.000 A 
ENDROOT
BRANCH   1   8
ATOM      7  C   UNL     1       1.742   4.136  20.829  0.00  0.00    +0.000 C 
ATOM      8  O   UNL     1       1.396   4.344  19.461  0.00  0.00    +0.000 OA
ENDBRANCH   1   8
BRANCH   6   9
ATOM      9  O   UNL     1       2.699   2.456  17.717  0.00  0.00    +0.000 OA
ATOM     10  C   UNL     1       3.512   1.554  18.461  0.00  0.00    +0.000 C 
ENDBRANCH   6   9
BRANCH   4  11
ATOM     11  C   UNL     1       5.568   5.912  15.908  0.00  0.00    +0.000 C 
BRANCH  11  12
ATOM     12  C   UNL     1       6.574   4.830  15.570  0.00  0.00    +0.000 C 
ATOM     13  C   UNL     1       6.395   4.026  14.309  0.00  0.00    +0.000 C 
ATOM     14  O   UNL     1       7.497   4.570  16.347  0.00  0.00    +0.000 OA
ENDBRANCH  11  12
ENDBRANCH   4  11
TORSDOF 4
ENDMDL
MODEL 5
REMARK VINA RESULT:      -5.7      1.616      5.248
REMARK  Name = 
REMARK  7 active torsions:
REMARK  status: ('A' for Active; 'I' for Inactive)
REMARK    1  A    between atoms: C_1  and  O_2
REMARK    2  A    between atoms: O_2  and  C_3
REMARK    3  A    between atoms: C_6  and  C_7
REMARK    4  A    between atoms: C_7  and  C_8
REMARK    5  A    between atoms: C_8  and  C_9
REMARK    6  A    between atoms: C_12  and  O_13
REMARK    7  A    between atoms: O_13  and  C_14
REMARK                            x       y       z     vdW  Elec       q    Type
REMARK                         _______ _______ _______ _____ _____    ______ ____
ROOT
ATOM      1  C   UNL     1       6.517   5.382  17.274  0.00  0.00    +0.000 A 
ATOM      2  C   UNL     1       6.088   4.944  18.535  0.00  0.00    +0.000 A 
ATOM      3  C   UNL     1       4.967   4.117  18.664  0.00  0.00    +0.000 A 
ATOM      4  C   UNL     1       4.241   3.732  17.536  0.00  0.00    +0.000 A 
ATOM      5  C   UNL     1       4.645   4.211  16.282  0.00  0.00    +0.000 A 
ATOM      6  C   UNL     1       5.757   5.051  16.143  0.00  0.00    +0.000 A 
ENDROOT
BRANCH   1   8
ATOM      7  C   UNL     1       7.574   7.465  17.609  0.00  0.00    +0.000 C 
ATOM      8  O   UNL     1       7.650   6.131  17.110  0.00  0.00    +0.000 OA
ENDBRANCH   1   8
BRANCH   6   9
ATOM      9  O   UNL     1       6.021   5.407  14.846  0.00  0.00    +0.000 OA
ATOM     10  C   UNL     1       6.566   4.384  14.019  0.00  0.00    +0.000 C 
ENDBRANCH   6   9
BRANCH   4  11
ATOM     11  C   UNL     1       3.023   2.848  17.660  0.00  0.00    +0.000 C 
BRANCH  11  12
ATOM     12  C   UNL     1       1.749   3.544  18.094  0.00  0.00    +0.000 C 
ATOM     13  C   UNL     1       1.223   3.314  19.488  0.00  0.00    +0.000 C 
ATOM     14  O   UNL     1       1.117   4.244  17.299  0.00  0.00    +0.000 OA
ENDBRANCH  11  12
ENDBRANCH   4  11
TORSDOF 4
ENDMDL
MODEL 6
REMARK VINA RESULT:      -5.6      1.176      1.176
REMARK  Name = 
REMARK  7 active torsions:
REMARK  status: ('A' for Active; 'I' for Inactive)
REMARK    1  A    between atoms: C_1  and  O_2
REMARK    2  A    between atoms: O_2  and  C_3
REMARK    3  A    between atoms: C_6  and  C_7
REMARK    4  A    between atoms: C_7  and  C_8
REMARK    5  A    between atoms: C_8  and  C_9
REMARK    6  A    between atoms: C_12  and  O_13
REMARK    7  A    between atoms: O_13  and  C_14
REMARK                            x       y       z     vdW  Elec       q    Type
REMARK                         _______ _______ _______ _____ _____    ______ ____
ROOT
ATOM      1  C   UNL     1       3.058   4.748  19.761  0.00  0.00    +0.000 A 
ATOM      2  C   UNL     1       2.988   6.073  19.306  0.00  0.00    +0.000 A 
ATOM      3  C   UNL     1       3.682   6.476  18.161  0.00  0.00    +0.000 A 
ATOM      4  C   UNL     1       4.478   5.566  17.463  0.00  0.00    +0.000 A 
ATOM      5  C   UNL     1       4.584   4.255  17.948  0.00  0.00    +0.000 A 
ATOM      6  C   UNL     1       3.904   3.845  19.103  0.00  0.00    +0.000 A 
ENDROOT
BRANCH   1   8
ATOM      7  C   UNL     1       1.031   3.815  20.530  0.00  0.00    +0.000 C 
ATOM      8  O   UNL     1       2.333   4.309  20.836  0.00  0.00    +0.000 OA
ENDBRANCH   1   8
BRANCH   6   9
ATOM      9  O   UNL     1       4.104   2.528  19.422  0.00  0.00    +0.000 OA
ATOM     10  C   UNL     1       3.517   1.577  18.539  0.00  0.00    +0.000 C 
ENDBRANCH   6   9
BRANCH   4  11
ATOM     11  C   UNL     1       5.242   5.987  16.230  0.00  0.00    +0.000 C 
BRANCH  11  12
ATOM     12  C   UNL     1       6.746   6.081  16.390  0.00  0.00    +0.000 C 
ATOM     13  C   UNL     1       7.316   6.856  17.550  0.00  0.00    +0.000 C 
ATOM     14  O   UNL     1       7.497   5.580  15.549  0.00  0.00    +0.000 OA
ENDBRANCH  11  12
ENDBRANCH   4  11
TORSDOF 4
ENDMDL
MODEL 7
REMARK VINA RESULT:      -5.6      2.377      3.621
REMARK  Name = 
REMARK  7 active torsions:
REMARK  status: ('A' for Active; 'I' for Inactive)
REMARK    1  A    between atoms: C_1  and  O_2
REMARK    2  A    between atoms: O_2  and  C_3
REMARK    3  A    between atoms: C_6  and  C_7
REMARK    4  A    between atoms: C_7  and  C_8
REMARK    5  A    between atoms: C_8  and  C_9
REMARK    6  A    between atoms: C_12  and  O_13
REMARK    7  A    between atoms: O_13  and  C_14
REMARK                            x       y       z     vdW  Elec       q    Type
REMARK                         _______ _______ _______ _____ _____    ______ ____
ROOT
ATOM      1  C   UNL     1       4.940   3.772  19.004  0.00  0.00    +0.000 A 
ATOM      2  C   UNL     1       4.099   3.442  17.931  0.00  0.00    +0.000 A 
ATOM      3  C   UNL     1       4.290   4.013  16.668  0.00  0.00    +0.000 A 
ATOM      4  C   UNL     1       5.311   4.942  16.462  0.00  0.00    +0.000 A 
ATOM      5  C   UNL     1       6.118   5.306  17.548  0.00  0.00    +0.000 A 
ATOM      6  C   UNL     1       5.927   4.750  18.820  0.00  0.00    +0.000 A 
ENDROOT
BRANCH   1   8
ATOM      7  C   UNL     1       4.214   1.887  20.223  0.00  0.00    +0.000 C 
ATOM      8  O   UNL     1       4.822   3.176  20.230  0.00  0.00    +0.000 OA
ENDBRANCH   1   8
BRANCH   6   9
ATOM      9  O   UNL     1       6.817   5.202  19.759  0.00  0.00    +0.000 OA
ATOM     10  C   UNL     1       7.899   5.985  19.264  0.00  0.00    +0.000 C 
ENDBRANCH   6   9
BRANCH   4  11
ATOM     11  C   UNL     1       5.523   5.575  15.107  0.00  0.00    +0.000 C 
BRANCH  11  12
ATOM     12  C   UNL     1       6.586   4.930  14.241  0.00  0.00    +0.000 C 
ATOM     13  C   UNL     1       6.219   3.744  13.386  0.00  0.00    +0.000 C 
ATOM     14  O   UNL     1       7.752   5.332  14.278  0.00  0.00    +0.000 OA
ENDBRANCH  11  12
ENDBRANCH   4  11
TORSDOF 4
ENDMDL
MODEL 8
REMARK VINA RESULT:      -5.6      1.897      5.333
REMARK  Name = 
REMARK  7 active torsions:
REMARK  status: ('A' for Active; 'I' for Inactive)
REMARK    1  A    between atoms: C_1  and  O_2
REMARK    2  A    between atoms: O_2  and  C_3
REMARK    3  A    between atoms: C_6  and  C_7
REMARK    4  A    between atoms: C_7  and  C_8
REMARK    5  A    between atoms: C_8  and  C_9
REMARK    6  A    between atoms: C_12  and  O_13
REMARK    7  A    between atoms: O_13  and  C_14
REMARK                            x       y       z     vdW  Elec       q    Type
REMARK                         _______ _______ _______ _____ _____    ______ ____
ROOT
ATOM      1  C   UNL     1       5.289   4.105  16.975  0.00  0.00    +0.000 A 
ATOM      2  C   UNL     1       3.897   4.012  16.839  0.00  0.00    +0.000 A 
ATOM      3  C   UNL     1       3.049   4.351  17.899  0.00  0.00    +0.000 A 
ATOM      4  C   UNL     1       3.580   4.766  19.121  0.00  0.00    +0.000 A 
ATOM      5  C   UNL     1       4.973   4.811  19.268  0.00  0.00    +0.000 A 
ATOM      6  C   UNL     1       5.831   4.461  18.218  0.00  0.00    +0.000 A 
ENDROOT
BRANCH   1   8
ATOM      7  C   UNL     1       5.949   4.662  14.778  0.00  0.00    +0.000 C 
ATOM      8  O   UNL     1       6.141   3.849  15.934  0.00  0.00    +0.000 OA
ENDBRANCH   1   8
BRANCH   6   9
ATOM      9  O   UNL     1       7.160   4.581  18.528  0.00  0.00    +0.000 OA
ATOM     10  C   UNL     1       7.633   5.910  18.731  0.00  0.00    +0.000 C 
ENDBRANCH   6   9
BRANCH   4  11
ATOM     11  C   UNL     1       2.678   5.126  20.277  0.00  0.00    +0.000 C 
BRANCH  11  12
ATOM     12  C   UNL     1       1.713   4.044  20.718  0.00  0.00    +0.000 C 
ATOM     13  C   UNL     1       2.181   2.989  21.687  0.00  0.00    +0.000 C 
ATOM     14  O   UNL     1       0.574   3.992  20.246  0.00  0.00    +0.000 OA
ENDBRANCH  11  12
ENDBRANCH   4  11
TORSDOF 4
ENDMDL
MODEL 9
REMARK VINA RESULT:      -5.5      1.742      2.349
REMARK  Name = 
REMARK  7 active torsions:
REMARK  status: ('A' for Active; 'I' for Inactive)
REMARK    1  A    between atoms: C_1  and  O_2
REMARK    2  A    between atoms: O_2  and  C_3
REMARK    3  A    between atoms: C_6  and  C_7
REMARK    4  A    between atoms: C_7  and  C_8
REMARK    5  A    between atoms: C_8  and  C_9
REMARK    6  A    between atoms: C_12  and  O_13
REMARK    7  A    between atoms: O_13  and  C_14
REMARK                            x       y       z     vdW  Elec       q    Type
REMARK                         _______ _______ _______ _____ _____    ______ ____
ROOT
ATOM      1  C   UNL     1       3.354   5.718  18.081  0.00  0.00    +0.000 A 
ATOM      2  C   UNL     1       4.175   6.674  17.467  0.00  0.00    +0.000 A 
ATOM      3  C   UNL     1       5.347   6.293  16.803  0.00  0.00    +0.000 A 
ATOM      4  C   UNL     1       5.729   4.951  16.762  0.00  0.00    +0.000 A 
ATOM      5  C   UNL     1       4.930   4.005  17.418  0.00  0.00    +0.000 A 
ATOM      6  C   UNL     1       3.763   4.377  18.098  0.00  0.00    +0.000 A 
ENDROOT
BRANCH   1   8
ATOM      7  C   UNL     1       2.261   7.021  19.717  0.00  0.00    +0.000 C 
ATOM      8  O   UNL     1       2.167   6.053  18.675  0.00  0.00    +0.000 OA
ENDBRANCH   1   8
BRANCH   6   9
ATOM      9  O   UNL     1       3.094   3.324  18.664  0.00  0.00    +0.000 OA
ATOM     10  C   UNL     1       2.553   2.370  17.755  0.00  0.00    +0.000 C 
ENDBRANCH   6   9
BRANCH   4  11
ATOM     11  C   UNL     1       6.995   4.525  16.058  0.00  0.00    +0.000 C 
BRANCH  11  12
ATOM     12  C   UNL     1       7.014   4.735  14.557  0.00  0.00    +0.000 C 
ATOM     13  C   UNL     1       6.099   3.914  13.687  0.00  0.00    +0.000 C 
ATOM     14  O   UNL     1       7.810   5.527  14.047  0.00  0.00    +0.000 OA
ENDBRANCH  11  12
ENDBRANCH   4  11
TORSDOF 4
ENDMDL
