MODEL 1
REMARK VINA RESULT:      -7.9      0.000      0.000
REMARK  Name = 
REMARK  12 active torsions:
REMARK  status: ('A' for Active; 'I' for Inactive)
REMARK    1  A    between atoms: C_4  and  C_5
REMARK    2  A    between atoms: C_5  and  O_6
REMARK    3  A    between atoms: C_5  and  C_7
REMARK    4  A    between atoms: C_7  and  N_8
REMARK    5  A    between atoms: C_10  and  C_11
REMARK    6  A    between atoms: C_15  and  O_16
REMARK    7  A    between atoms: C_20  and  O_21
REMARK    8  A    between atoms: O_21  and  C_22
REMARK    9  A    between atoms: C_22  and  C_23
REMARK   10  A    between atoms: C_29  and  O_30
REMARK   11  A    between atoms: O_30  and  C_31
REMARK   12  A    between atoms: C_31  and  C_32
REMARK                            x       y       z     vdW  Elec       q    Type
REMARK                         _______ _______ _______ _____ _____    ______ ____
ROOT
ATOM      1  O   UNL     1      -0.216   7.718  21.998  0.00  0.00    +0.000 OA
ATOM      2  C   UNL     1       0.675   7.828  21.180  0.00  0.00    +0.000 C 
ATOM      3  O   UNL     1       0.961   8.994  20.536  0.00  0.00    +0.000 OA
ATOM      4  C   UNL     1       1.923   8.752  19.496  0.00  0.00    +0.000 C 
ATOM      5  C   UNL     1       2.222   7.300  19.615  0.00  0.00    +0.000 C 
ATOM      6  C   UNL     1       1.552   6.761  20.640  0.00  0.00    +0.000 C 
ENDROOT
BRANCH   4   7
ATOM      7  C   UNL     1       1.318   9.249  18.168  0.00  0.00    +0.000 C 
BRANCH   7   8
ATOM      8  O   UNL     1       2.368   9.251  17.175  0.00  0.00    +0.000 OA
ATOM      9  H   UNL     1       2.013   8.834  16.366  0.00  0.00    +0.000 HD
ENDBRANCH   7   8
BRANCH   7  10
ATOM     10  C   UNL     1       0.739  10.661  18.264  0.00  0.00    +0.000 C 
BRANCH  10  11
ATOM     11  N   UNL     1      -0.700  10.661  18.131  0.00  0.00    +0.000 N 
ATOM     12  C   UNL     1      -1.570  11.531  18.705  0.00  0.00    +0.000 A 
ATOM     13  C   UNL     1      -2.797  11.142  18.216  0.00  0.00    +0.000 A 
ATOM     14  N   UNL     1      -2.628  10.050  17.401  0.00  0.00    +0.000 NA
ATOM     15  N   UNL     1      -1.334   9.750  17.372  0.00  0.00    +0.000 NA
BRANCH  13  16
ATOM     16  C   UNL     1      -4.055  11.813  18.463  0.00  0.00    +0.000 A 
ATOM     17  C   UNL     1      -4.320  12.368  19.723  0.00  0.00    +0.000 A 
ATOM     18  C   UNL     1      -5.554  12.974  19.985  0.00  0.00    +0.000 A 
ATOM     19  C   UNL     1      -6.527  13.044  18.991  0.00  0.00    +0.000 A 
ATOM     20  C   UNL     1      -6.259  12.507  17.736  0.00  0.00    +0.000 A 
ATOM     21  C   UNL     1      -5.037  11.898  17.468  0.00  0.00    +0.000 A 
BRANCH  20  22
ATOM     22  O   UNL     1      -7.175  12.553  16.729  0.00  0.00    +0.000 OA
ATOM     23  H   UNL     1      -7.037  11.785  16.149  0.00  0.00    +0.000 HD
ENDBRANCH  20  22
ENDBRANCH  13  16
ENDBRANCH  10  11
ENDBRANCH   7  10
ENDBRANCH   4   7
BRANCH   5  24
ATOM     24  O   UNL     1       3.071   6.732  18.700  0.00  0.00    +0.000 OA
BRANCH  24  25
ATOM     25  C   UNL     1       4.284   6.090  19.157  0.00  0.00    +0.000 C 
BRANCH  25  26
ATOM     26  C   UNL     1       5.188   5.671  18.013  0.00  0.00    +0.000 A 
ATOM     27  C   UNL     1       4.719   5.687  16.696  0.00  0.00    +0.000 A 
ATOM     28  C   UNL     1       5.439   5.060  15.678  0.00  0.00    +0.000 A 
ATOM     29  C   UNL     1       6.658   4.447  15.957  0.00  0.00    +0.000 A 
ATOM     30  C   UNL     1       7.190   4.525  17.241  0.00  0.00    +0.000 A 
ATOM     31  C   UNL     1       6.473   5.163  18.257  0.00  0.00    +0.000 A 
ENDBRANCH  25  26
ENDBRANCH  24  25
ENDBRANCH   5  24
BRANCH   6  32
ATOM     32  O   UNL     1       1.670   5.471  21.075  0.00  0.00    +0.000 OA
BRANCH  32  33
ATOM     33  C   UNL     1       0.934   4.473  20.367  0.00  0.00    +0.000 C 
BRANCH  33  34
ATOM     34  C   UNL     1       1.828   3.641  19.493  0.00  0.00    +0.000 A 
ATOM     35  C   UNL     1       2.857   2.895  20.079  0.00  0.00    +0.000 A 
ATOM     36  C   UNL     1       3.731   2.166  19.278  0.00  0.00    +0.000 A 
ATOM     37  C   UNL     1       3.571   2.165  17.893  0.00  0.00    +0.000 A 
ATOM     38  C   UNL     1       2.523   2.870  17.306  0.00  0.00    +0.000 A 
ATOM     39  C   UNL     1       1.643   3.594  18.105  0.00  0.00    +0.000 A 
ENDBRANCH  33  34
ENDBRANCH  32  33
ENDBRANCH   6  32
TORSDOF 12
ENDMDL
MODEL 2
REMARK VINA RESULT:      -7.6      3.408      5.320
REMARK  Name = 
REMARK  12 active torsions:
REMARK  status: ('A' for Active; 'I' for Inactive)
REMARK    1  A    between atoms: C_4  and  C_5
REMARK    2  A    between atoms: C_5  and  O_6
REMARK    3  A    between atoms: C_5  and  C_7
REMARK    4  A    between atoms: C_7  and  N_8
REMARK    5  A    between atoms: C_10  and  C_11
REMARK    6  A    between atoms: C_15  and  O_16
REMARK    7  A    between atoms: C_20  and  O_21
REMARK    8  A    between atoms: O_21  and  C_22
REMARK    9  A    between atoms: C_22  and  C_23
REMARK   10  A    between atoms: C_29  and  O_30
REMARK   11  A    between atoms: O_30  and  C_31
REMARK   12  A    between atoms: C_31  and  C_32
REMARK                            x       y       z     vdW  Elec       q    Type
REMARK                         _______ _______ _______ _____ _____    ______ ____
ROOT
ATOM      1  O   UNL     1       2.179   9.878  17.091  0.00  0.00    +0.000 OA
ATOM      2  C   UNL     1       1.877   9.207  18.058  0.00  0.00    +0.000 C 
ATOM      3  O   UNL     1       1.008   9.629  19.020  0.00  0.00    +0.000 OA
ATOM      4  C   UNL     1       1.016   8.704  20.121  0.00  0.00    +0.000 C 
ATOM      5  C   UNL     1       1.966   7.644  19.691  0.00  0.00    +0.000 C 
ATOM      6  C   UNL     1       2.424   7.888  18.457  0.00  0.00    +0.000 C 
ENDROOT
BRANCH   4   7
ATOM      7  C   UNL     1       1.361   9.495  21.398  0.00  0.00    +0.000 C 
BRANCH   7   8
ATOM      8  O   UNL     1       1.633   8.542  22.450  0.00  0.00    +0.000 OA
ATOM      9  H   UNL     1       1.549   7.646  22.069  0.00  0.00    +0.000 HD
ENDBRANCH   7   8
BRANCH   7  10
ATOM     10  C   UNL     1       0.229  10.414  21.858  0.00  0.00    +0.000 C 
BRANCH  10  11
ATOM     11  N   UNL     1       0.203  11.649  21.108  0.00  0.00    +0.000 N 
ATOM     12  C   UNL     1       1.273  12.392  20.727  0.00  0.00    +0.000 A 
ATOM     13  C   UNL     1       0.720  13.417  19.993  0.00  0.00    +0.000 A 
ATOM     14  N   UNL     1      -0.645  13.272  19.981  0.00  0.00    +0.000 NA
ATOM     15  N   UNL     1      -0.955  12.191  20.689  0.00  0.00    +0.000 NA
BRANCH  13  16
ATOM     16  C   UNL     1       1.457  14.443  19.288  0.00  0.00    +0.000 A 
ATOM     17  C   UNL     1       0.932  15.739  19.183  0.00  0.00    +0.000 A 
ATOM     18  C   UNL     1       1.616  16.723  18.460  0.00  0.00    +0.000 A 
ATOM     19  C   UNL     1       2.831  16.427  17.847  0.00  0.00    +0.000 A 
ATOM     20  C   UNL     1       3.360  15.146  17.964  0.00  0.00    +0.000 A 
ATOM     21  C   UNL     1       2.685  14.160  18.677  0.00  0.00    +0.000 A 
BRANCH  20  22
ATOM     22  O   UNL     1       4.547  14.807  17.387  0.00  0.00    +0.000 OA
ATOM     23  H   UNL     1       4.369  14.434  16.507  0.00  0.00    +0.000 HD
ENDBRANCH  20  22
ENDBRANCH  13  16
ENDBRANCH  10  11
ENDBRANCH   7  10
ENDBRANCH   4   7
BRANCH   5  24
ATOM     24  O   UNL     1       2.251   6.629  20.569  0.00  0.00    +0.000 OA
BRANCH  24  25
ATOM     25  C   UNL     1       1.521   5.384  20.480  0.00  0.00    +0.000 C 
BRANCH  25  26
ATOM     26  C   UNL     1       2.198   4.375  19.570  0.00  0.00    +0.000 A 
ATOM     27  C   UNL     1       3.389   3.756  19.960  0.00  0.00    +0.000 A 
ATOM     28  C   UNL     1       4.152   3.039  19.037  0.00  0.00    +0.000 A 
ATOM     29  C   UNL     1       3.711   2.897  17.724  0.00  0.00    +0.000 A 
ATOM     30  C   UNL     1       2.471   3.410  17.355  0.00  0.00    +0.000 A 
ATOM     31  C   UNL     1       1.703   4.117  18.283  0.00  0.00    +0.000 A 
ENDBRANCH  25  26
ENDBRANCH  24  25
ENDBRANCH   5  24
BRANCH   6  32
ATOM     32  O   UNL     1       3.242   7.065  17.737  0.00  0.00    +0.000 OA
BRANCH  32  33
ATOM     33  C   UNL     1       4.637   7.107  18.035  0.00  0.00    +0.000 C 
BRANCH  33  34
ATOM     34  C   UNL     1       5.410   6.120  17.208  0.00  0.00    +0.000 A 
ATOM     35  C   UNL     1       6.521   5.479  17.768  0.00  0.00    +0.000 A 
ATOM     36  C   UNL     1       7.284   4.606  16.998  0.00  0.00    +0.000 A 
ATOM     37  C   UNL     1       6.930   4.356  15.672  0.00  0.00    +0.000 A 
ATOM     38  C   UNL     1       5.799   4.956  15.122  0.00  0.00    +0.000 A 
ATOM     39  C   UNL     1       5.032   5.823  15.892  0.00  0.00    +0.000 A 
ENDBRANCH  33  34
ENDBRANCH  32  33
ENDBRANCH   6  32
TORSDOF 12
ENDMDL
MODEL 3
REMARK VINA RESULT:      -7.4      1.960      3.991
REMARK  Name = 
REMARK  12 active torsions:
REMARK  status: ('A' for Active; 'I' for Inactive)
REMARK    1  A    between atoms: C_4  and  C_5
REMARK    2  A    between atoms: C_5  and  O_6
REMARK    3  A    between atoms: C_5  and  C_7
REMARK    4  A    between atoms: C_7  and  N_8
REMARK    5  A    between atoms: C_10  and  C_11
REMARK    6  A    between atoms: C_15  and  O_16
REMARK    7  A    between atoms: C_20  and  O_21
REMARK    8  A    between atoms: O_21  and  C_22
REMARK    9  A    between atoms: C_22  and  C_23
REMARK   10  A    between atoms: C_29  and  O_30
REMARK   11  A    between atoms: O_30  and  C_31
REMARK   12  A    between atoms: C_31  and  C_32
REMARK                            x       y       z     vdW  Elec       q    Type
REMARK                         _______ _______ _______ _____ _____    ______ ____
ROOT
ATOM      1  O   UNL     1       2.179   9.760  17.309  0.00  0.00    +0.000 OA
ATOM      2  C   UNL     1       1.823   9.068  18.242  0.00  0.00    +0.000 C 
ATOM      3  O   UNL     1       0.925   9.480  19.180  0.00  0.00    +0.000 OA
ATOM      4  C   UNL     1       0.866   8.523  20.251  0.00  0.00    +0.000 C 
ATOM      5  C   UNL     1       1.810   7.454  19.827  0.00  0.00    +0.000 C 
ATOM      6  C   UNL     1       2.324   7.725  18.622  0.00  0.00    +0.000 C 
ENDROOT
BRANCH   4   7
ATOM      7  C   UNL     1       1.175   9.266  21.565  0.00  0.00    +0.000 C 
BRANCH   7   8
ATOM      8  O   UNL     1       0.198   8.856  22.547  0.00  0.00    +0.000 OA
ATOM      9  H   UNL     1      -0.454   9.577  22.639  0.00  0.00    +0.000 HD
ENDBRANCH   7   8
BRANCH   7  10
ATOM     10  C   UNL     1       1.110  10.787  21.423  0.00  0.00    +0.000 C 
BRANCH  10  11
ATOM     11  N   UNL     1      -0.173  11.310  21.837  0.00  0.00    +0.000 N 
ATOM     12  C   UNL     1      -1.157  11.783  21.030  0.00  0.00    +0.000 A 
ATOM     13  C   UNL     1      -2.178  12.093  21.902  0.00  0.00    +0.000 A 
ATOM     14  N   UNL     1      -1.767  11.827  23.184  0.00  0.00    +0.000 NA
ATOM     15  N   UNL     1      -0.522  11.364  23.135  0.00  0.00    +0.000 NA
BRANCH  13  16
ATOM     16  C   UNL     1      -3.495  12.558  21.526  0.00  0.00    +0.000 A 
ATOM     17  C   UNL     1      -4.436  12.879  22.515  0.00  0.00    +0.000 A 
ATOM     18  C   UNL     1      -5.728  13.281  22.159  0.00  0.00    +0.000 A 
ATOM     19  C   UNL     1      -6.088  13.380  20.818  0.00  0.00    +0.000 A 
ATOM     20  C   UNL     1      -5.151  13.077  19.836  0.00  0.00    +0.000 A 
ATOM     21  C   UNL     1      -3.865  12.671  20.180  0.00  0.00    +0.000 A 
BRANCH  20  22
ATOM     22  O   UNL     1      -5.452  13.162  18.510  0.00  0.00    +0.000 OA
ATOM     23  H   UNL     1      -5.121  14.011  18.170  0.00  0.00    +0.000 HD
ENDBRANCH  20  22
ENDBRANCH  13  16
ENDBRANCH  10  11
ENDBRANCH   7  10
ENDBRANCH   4   7
BRANCH   5  24
ATOM     24  O   UNL     1       2.036   6.407  20.684  0.00  0.00    +0.000 OA
BRANCH  24  25
ATOM     25  C   UNL     1       1.250   5.200  20.557  0.00  0.00    +0.000 C 
BRANCH  25  26
ATOM     26  C   UNL     1       2.017   4.071  19.894  0.00  0.00    +0.000 A 
ATOM     27  C   UNL     1       3.409   4.133  19.778  0.00  0.00    +0.000 A 
ATOM     28  C   UNL     1       4.093   3.244  18.946  0.00  0.00    +0.000 A 
ATOM     29  C   UNL     1       3.396   2.257  18.254  0.00  0.00    +0.000 A 
ATOM     30  C   UNL     1       2.026   2.113  18.452  0.00  0.00    +0.000 A 
ATOM     31  C   UNL     1       1.345   2.996  19.294  0.00  0.00    +0.000 A 
ENDBRANCH  25  26
ENDBRANCH  24  25
ENDBRANCH   5  24
BRANCH   6  32
ATOM     32  O   UNL     1       3.153   6.906  17.910  0.00  0.00    +0.000 OA
BRANCH  32  33
ATOM     33  C   UNL     1       4.489   7.360  17.689  0.00  0.00    +0.000 C 
BRANCH  33  34
ATOM     34  C   UNL     1       5.386   6.242  17.241  0.00  0.00    +0.000 A 
ATOM     35  C   UNL     1       6.500   5.905  18.019  0.00  0.00    +0.000 A 
ATOM     36  C   UNL     1       7.376   4.913  17.589  0.00  0.00    +0.000 A 
ATOM     37  C   UNL     1       7.134   4.242  16.391  0.00  0.00    +0.000 A 
ATOM     38  C   UNL     1       6.003   4.541  15.634  0.00  0.00    +0.000 A 
ATOM     39  C   UNL     1       5.123   5.528  16.065  0.00  0.00    +0.000 A 
ENDBRANCH  33  34
ENDBRANCH  32  33
ENDBRANCH   6  32
TORSDOF 12
ENDMDL
MODEL 4
REMARK VINA RESULT:      -7.4      1.932      4.079
REMARK  Name = 
REMARK  12 active torsions:
REMARK  status: ('A' for Active; 'I' for Inactive)
REMARK    1  A    between atoms: C_4  and  C_5
REMARK    2  A    between atoms: C_5  and  O_6
REMARK    3  A    between atoms: C_5  and  C_7
REMARK    4  A    between atoms: C_7  and  N_8
REMARK    5  A    between atoms: C_10  and  C_11
REMARK    6  A    between atoms: C_15  and  O_16
REMARK    7  A    between atoms: C_20  and  O_21
REMARK    8  A    between atoms: O_21  and  C_22
REMARK    9  A    between atoms: C_22  and  C_23
REMARK   10  A    between atoms: C_29  and  O_30
REMARK   11  A    between atoms: O_30  and  C_31
REMARK   12  A    between atoms: C_31  and  C_32
REMARK                            x       y       z     vdW  Elec       q    Type
REMARK                         _______ _______ _______ _____ _____    ______ ____
ROOT
ATOM      1  O   UNL     1       2.717   9.042  17.439  0.00  0.00    +0.000 OA
ATOM      2  C   UNL     1       2.149   8.448  18.333  0.00  0.00    +0.000 C 
ATOM      3  O   UNL     1       1.211   9.023  19.136  0.00  0.00    +0.000 OA
ATOM      4  C   UNL     1       0.878   8.130  20.212  0.00  0.00    +0.000 C 
ATOM      5  C   UNL     1       1.699   6.920  19.939  0.00  0.00    +0.000 C 
ATOM      6  C   UNL     1       2.395   7.064  18.805  0.00  0.00    +0.000 C 
ENDROOT
BRANCH   4   7
ATOM      7  C   UNL     1       1.126   8.875  21.538  0.00  0.00    +0.000 C 
BRANCH   7   8
ATOM      8  O   UNL     1       0.060   8.527  22.449  0.00  0.00    +0.000 OA
ATOM      9  H   UNL     1      -0.664   9.169  22.319  0.00  0.00    +0.000 HD
ENDBRANCH   7   8
BRANCH   7  10
ATOM     10  C   UNL     1       1.149  10.395  21.376  0.00  0.00    +0.000 C 
BRANCH  10  11
ATOM     11  N   UNL     1      -0.071  11.003  21.857  0.00  0.00    +0.000 N 
ATOM     12  C   UNL     1      -1.037  11.593  21.106  0.00  0.00    +0.000 A 
ATOM     13  C   UNL     1      -1.999  11.948  22.025  0.00  0.00    +0.000 A 
ATOM     14  N   UNL     1      -1.572  11.590  23.280  0.00  0.00    +0.000 NA
ATOM     15  N   UNL     1      -0.374  11.028  23.167  0.00  0.00    +0.000 NA
BRANCH  13  16
ATOM     16  C   UNL     1      -3.283  12.538  21.716  0.00  0.00    +0.000 A 
ATOM     17  C   UNL     1      -4.160  12.896  22.751  0.00  0.00    +0.000 A 
ATOM     18  C   UNL     1      -5.423  13.421  22.458  0.00  0.00    +0.000 A 
ATOM     19  C   UNL     1      -5.818  13.605  21.136  0.00  0.00    +0.000 A 
ATOM     20  C   UNL     1      -4.943  13.265  20.109  0.00  0.00    +0.000 A 
ATOM     21  C   UNL     1      -3.686  12.738  20.390  0.00  0.00    +0.000 A 
BRANCH  20  22
ATOM     22  O   UNL     1      -5.280  13.430  18.799  0.00  0.00    +0.000 OA
ATOM     23  H   UNL     1      -4.936  14.287  18.496  0.00  0.00    +0.000 HD
ENDBRANCH  20  22
ENDBRANCH  13  16
ENDBRANCH  10  11
ENDBRANCH   7  10
ENDBRANCH   4   7
BRANCH   5  24
ATOM     24  O   UNL     1       1.659   5.888  20.842  0.00  0.00    +0.000 OA
BRANCH  24  25
ATOM     25  C   UNL     1       0.916   4.689  20.522  0.00  0.00    +0.000 C 
BRANCH  25  26
ATOM     26  C   UNL     1       1.769   3.639  19.835  0.00  0.00    +0.000 A 
ATOM     27  C   UNL     1       2.956   3.194  20.425  0.00  0.00    +0.000 A 
ATOM     28  C   UNL     1       3.873   2.438  19.693  0.00  0.00    +0.000 A 
ATOM     29  C   UNL     1       3.594   2.083  18.375  0.00  0.00    +0.000 A 
ATOM     30  C   UNL     1       2.365   2.422  17.816  0.00  0.00    +0.000 A 
ATOM     31  C   UNL     1       1.444   3.169  18.555  0.00  0.00    +0.000 A 
ENDBRANCH  25  26
ENDBRANCH  24  25
ENDBRANCH   5  24
BRANCH   6  32
ATOM     32  O   UNL     1       3.176   6.105  18.226  0.00  0.00    +0.000 OA
BRANCH  32  33
ATOM     33  C   UNL     1       4.510   5.966  18.715  0.00  0.00    +0.000 C 
BRANCH  33  34
ATOM     34  C   UNL     1       5.419   5.364  17.683  0.00  0.00    +0.000 A 
ATOM     35  C   UNL     1       4.887   4.970  16.449  0.00  0.00    +0.000 A 
ATOM     36  C   UNL     1       5.703   4.355  15.504  0.00  0.00    +0.000 A 
ATOM     37  C   UNL     1       7.054   4.148  15.778  0.00  0.00    +0.000 A 
ATOM     38  C   UNL     1       7.599   4.578  16.986  0.00  0.00    +0.000 A 
ATOM     39  C   UNL     1       6.788   5.199  17.930  0.00  0.00    +0.000 A 
ENDBRANCH  33  34
ENDBRANCH  32  33
ENDBRANCH   6  32
TORSDOF 12
ENDMDL
MODEL 5
REMARK VINA RESULT:      -7.3      5.498      9.552
REMARK  Name = 
REMARK  12 active torsions:
REMARK  status: ('A' for Active; 'I' for Inactive)
REMARK    1  A    between atoms: C_4  and  C_5
REMARK    2  A    between atoms: C_5  and  O_6
REMARK    3  A    between atoms: C_5  and  C_7
REMARK    4  A    between atoms: C_7  and  N_8
REMARK    5  A    between atoms: C_10  and  C_11
REMARK    6  A    between atoms: C_15  and  O_16
REMARK    7  A    between atoms: C_20  and  O_21
REMARK    8  A    between atoms: O_21  and  C_22
REMARK    9  A    between atoms: C_22  and  C_23
REMARK   10  A    between atoms: C_29  and  O_30
REMARK   11  A    between atoms: O_30  and  C_31
REMARK   12  A    between atoms: C_31  and  C_32
REMARK                            x       y       z     vdW  Elec       q    Type
REMARK                         _______ _______ _______ _____ _____    ______ ____
ROOT
ATOM      1  O   UNL     1       6.380   3.377  15.188  0.00  0.00    +0.000 OA
ATOM      2  C   UNL     1       5.974   4.407  15.687  0.00  0.00    +0.000 C 
ATOM      3  O   UNL     1       6.549   5.622  15.468  0.00  0.00    +0.000 OA
ATOM      4  C   UNL     1       5.970   6.600  16.347  0.00  0.00    +0.000 C 
ATOM      5  C   UNL     1       4.938   5.838  17.100  0.00  0.00    +0.000 C 
ATOM      6  C   UNL     1       4.881   4.570  16.676  0.00  0.00    +0.000 C 
ENDROOT
BRANCH   4   7
ATOM      7  C   UNL     1       7.113   7.243  17.157  0.00  0.00    +0.000 C 
BRANCH   7   8
ATOM      8  O   UNL     1       7.342   6.426  18.327  0.00  0.00    +0.000 OA
ATOM      9  H   UNL     1       7.109   6.958  19.112  0.00  0.00    +0.000 HD
ENDBRANCH   7   8
BRANCH   7  10
ATOM     10  C   UNL     1       6.796   8.667  17.615  0.00  0.00    +0.000 C 
BRANCH  10  11
ATOM     11  N   UNL     1       7.974   9.347  18.105  0.00  0.00    +0.000 N 
ATOM     12  C   UNL     1       8.495  10.510  17.638  0.00  0.00    +0.000 A 
ATOM     13  C   UNL     1       9.560  10.755  18.476  0.00  0.00    +0.000 A 
ATOM     14  N   UNL     1       9.658   9.732  19.386  0.00  0.00    +0.000 NA
ATOM     15  N   UNL     1       8.688   8.859  19.135  0.00  0.00    +0.000 NA
BRANCH  13  16
ATOM     16  C   UNL     1      10.400  11.933  18.450  0.00  0.00    +0.000 A 
ATOM     17  C   UNL     1      11.195  12.254  19.559  0.00  0.00    +0.000 A 
ATOM     18  C   UNL     1      11.971  13.418  19.561  0.00  0.00    +0.000 A 
ATOM     19  C   UNL     1      11.972  14.263  18.454  0.00  0.00    +0.000 A 
ATOM     20  C   UNL     1      11.196  13.937  17.347  0.00  0.00    +0.000 A 
ATOM     21  C   UNL     1      10.416  12.784  17.338  0.00  0.00    +0.000 A 
BRANCH  20  22
ATOM     22  O   UNL     1      11.164  14.728  16.238  0.00  0.00    +0.000 OA
ATOM     23  H   UNL     1      11.364  15.642  16.503  0.00  0.00    +0.000 HD
ENDBRANCH  20  22
ENDBRANCH  13  16
ENDBRANCH  10  11
ENDBRANCH   7  10
ENDBRANCH   4   7
BRANCH   5  24
ATOM     24  O   UNL     1       4.241   6.485  18.088  0.00  0.00    +0.000 OA
BRANCH  24  25
ATOM     25  C   UNL     1       3.159   7.376  17.730  0.00  0.00    +0.000 C 
BRANCH  25  26
ATOM     26  C   UNL     1       2.377   7.859  18.937  0.00  0.00    +0.000 A 
ATOM     27  C   UNL     1       2.276   7.062  20.081  0.00  0.00    +0.000 A 
ATOM     28  C   UNL     1       1.352   7.370  21.082  0.00  0.00    +0.000 A 
ATOM     29  C   UNL     1       0.550   8.502  20.970  0.00  0.00    +0.000 A 
ATOM     30  C   UNL     1       0.724   9.365  19.892  0.00  0.00    +0.000 A 
ATOM     31  C   UNL     1       1.656   9.061  18.896  0.00  0.00    +0.000 A 
ENDBRANCH  25  26
ENDBRANCH  24  25
ENDBRANCH   5  24
BRANCH   6  32
ATOM     32  O   UNL     1       3.983   3.632  17.098  0.00  0.00    +0.000 OA
BRANCH  32  33
ATOM     33  C   UNL     1       2.652   4.075  17.366  0.00  0.00    +0.000 C 
BRANCH  33  34
ATOM     34  C   UNL     1       2.212   3.696  18.751  0.00  0.00    +0.000 A 
ATOM     35  C   UNL     1       3.159   3.639  19.779  0.00  0.00    +0.000 A 
ATOM     36  C   UNL     1       2.779   3.233  21.055  0.00  0.00    +0.000 A 
ATOM     37  C   UNL     1       1.450   2.900  21.313  0.00  0.00    +0.000 A 
ATOM     38  C   UNL     1       0.493   2.997  20.305  0.00  0.00    +0.000 A 
ATOM     39  C   UNL     1       0.869   3.410  19.031  0.00  0.00    +0.000 A 
ENDBRANCH  33  34
ENDBRANCH  32  33
ENDBRANCH   6  32
TORSDOF 12
ENDMDL
MODEL 6
REMARK VINA RESULT:      -7.3      4.669      9.703
REMARK  Name = 
REMARK  12 active torsions:
REMARK  status: ('A' for Active; 'I' for Inactive)
REMARK    1  A    between atoms: C_4  and  C_5
REMARK    2  A    between atoms: C_5  and  O_6
REMARK    3  A    between atoms: C_5  and  C_7
REMARK    4  A    between atoms: C_7  and  N_8
REMARK    5  A    between atoms: C_10  and  C_11
REMARK    6  A    between atoms: C_15  and  O_16
REMARK    7  A    between atoms: C_20  and  O_21
REMARK    8  A    between atoms: O_21  and  C_22
REMARK    9  A    between atoms: C_22  and  C_23
REMARK   10  A    between atoms: C_29  and  O_30
REMARK   11  A    between atoms: O_30  and  C_31
REMARK   12  A    between atoms: C_31  and  C_32
REMARK                            x       y       z     vdW  Elec       q    Type
REMARK                         _______ _______ _______ _____ _____    ______ ____
ROOT
ATOM      1  O   UNL     1       3.526   7.758  16.531  0.00  0.00    +0.000 OA
ATOM      2  C   UNL     1       4.194   7.110  17.312  0.00  0.00    +0.000 C 
ATOM      3  O   UNL     1       5.552   7.021  17.240  0.00  0.00    +0.000 OA
ATOM      4  C   UNL     1       6.024   6.031  18.169  0.00  0.00    +0.000 C 
ATOM      5  C   UNL     1       4.788   5.559  18.848  0.00  0.00    +0.000 C 
ATOM      6  C   UNL     1       3.718   6.231  18.406  0.00  0.00    +0.000 C 
ENDROOT
BRANCH   4   7
ATOM      7  C   UNL     1       6.843   4.993  17.377  0.00  0.00    +0.000 C 
BRANCH   7   8
ATOM      8  O   UNL     1       7.613   4.219  18.324  0.00  0.00    +0.000 OA
ATOM      9  H   UNL     1       7.307   4.455  19.221  0.00  0.00    +0.000 HD
ENDBRANCH   7   8
BRANCH   7  10
ATOM     10  C   UNL     1       7.807   5.629  16.374  0.00  0.00    +0.000 C 
BRANCH  10  11
ATOM     11  N   UNL     1       7.544   5.185  15.024  0.00  0.00    +0.000 N 
ATOM     12  C   UNL     1       6.696   4.195  14.644  0.00  0.00    +0.000 A 
ATOM     13  C   UNL     1       6.762   4.213  13.269  0.00  0.00    +0.000 A 
ATOM     14  N   UNL     1       7.656   5.179  12.877  0.00  0.00    +0.000 NA
ATOM     15  N   UNL     1       8.148   5.757  13.967  0.00  0.00    +0.000 NA
BRANCH  13  16
ATOM     16  C   UNL     1       5.969   3.398  12.375  0.00  0.00    +0.000 A 
ATOM     17  C   UNL     1       4.717   3.849  11.936  0.00  0.00    +0.000 A 
ATOM     18  C   UNL     1       3.922   3.044  11.112  0.00  0.00    +0.000 A 
ATOM     19  C   UNL     1       4.375   1.790  10.709  0.00  0.00    +0.000 A 
ATOM     20  C   UNL     1       5.623   1.347  11.132  0.00  0.00    +0.000 A 
ATOM     21  C   UNL     1       6.419   2.139  11.955  0.00  0.00    +0.000 A 
BRANCH  20  22
ATOM     22  O   UNL     1       6.113   0.131  10.764  0.00  0.00    +0.000 OA
ATOM     23  H   UNL     1       6.766   0.260  10.055  0.00  0.00    +0.000 HD
ENDBRANCH  20  22
ENDBRANCH  13  16
ENDBRANCH  10  11
ENDBRANCH   7  10
ENDBRANCH   4   7
BRANCH   5  24
ATOM     24  O   UNL     1       4.894   4.542  19.762  0.00  0.00    +0.000 OA
BRANCH  24  25
ATOM     25  C   UNL     1       4.546   3.193  19.371  0.00  0.00    +0.000 C 
BRANCH  25  26
ATOM     26  C   UNL     1       3.089   2.866  19.637  0.00  0.00    +0.000 A 
ATOM     27  C   UNL     1       2.217   2.603  18.577  0.00  0.00    +0.000 A 
ATOM     28  C   UNL     1       0.837   2.565  18.785  0.00  0.00    +0.000 A 
ATOM     29  C   UNL     1       0.316   2.746  20.063  0.00  0.00    +0.000 A 
ATOM     30  C   UNL     1       1.181   2.893  21.144  0.00  0.00    +0.000 A 
ATOM     31  C   UNL     1       2.562   2.920  20.936  0.00  0.00    +0.000 A 
ENDBRANCH  25  26
ENDBRANCH  24  25
ENDBRANCH   5  24
BRANCH   6  32
ATOM     32  O   UNL     1       2.446   6.102  18.886  0.00  0.00    +0.000 OA
BRANCH  32  33
ATOM     33  C   UNL     1       2.210   6.520  20.231  0.00  0.00    +0.000 C 
BRANCH  33  34
ATOM     34  C   UNL     1       1.505   7.845  20.283  0.00  0.00    +0.000 A 
ATOM     35  C   UNL     1       0.825   8.214  21.449  0.00  0.00    +0.000 A 
ATOM     36  C   UNL     1       0.117   9.411  21.494  0.00  0.00    +0.000 A 
ATOM     37  C   UNL     1       0.101  10.253  20.383  0.00  0.00    +0.000 A 
ATOM     38  C   UNL     1       0.812   9.914  19.234  0.00  0.00    +0.000 A 
ATOM     39  C   UNL     1       1.526   8.721  19.189  0.00  0.00    +0.000 A 
ENDBRANCH  33  34
ENDBRANCH  32  33
ENDBRANCH   6  32
TORSDOF 12
ENDMDL
MODEL 7
REMARK VINA RESULT:      -7.2      1.731      4.074
REMARK  Name = 
REMARK  12 active torsions:
REMARK  status: ('A' for Active; 'I' for Inactive)
REMARK    1  A    between atoms: C_4  and  C_5
REMARK    2  A    between atoms: C_5  and  O_6
REMARK    3  A    between atoms: C_5  and  C_7
REMARK    4  A    between atoms: C_7  and  N_8
REMARK    5  A    between atoms: C_10  and  C_11
REMARK    6  A    between atoms: C_15  and  O_16
REMARK    7  A    between atoms: C_20  and  O_21
REMARK    8  A    between atoms: O_21  and  C_22
REMARK    9  A    between atoms: C_22  and  C_23
REMARK   10  A    between atoms: C_29  and  O_30
REMARK   11  A    between atoms: O_30  and  C_31
REMARK   12  A    between atoms: C_31  and  C_32
REMARK                            x       y       z     vdW  Elec       q    Type
REMARK                         _______ _______ _______ _____ _____    ______ ____
ROOT
ATOM      1  O   UNL     1       3.972   7.741  17.375  0.00  0.00    +0.000 OA
ATOM      2  C   UNL     1       3.186   7.331  18.204  0.00  0.00    +0.000 C 
ATOM      3  O   UNL     1       2.101   8.041  18.623  0.00  0.00    +0.000 OA
ATOM      4  C   UNL     1       1.489   7.379  19.743  0.00  0.00    +0.000 C 
ATOM      5  C   UNL     1       2.311   6.154  19.927  0.00  0.00    +0.000 C 
ATOM      6  C   UNL     1       3.264   6.077  18.991  0.00  0.00    +0.000 C 
ENDROOT
BRANCH   4   7
ATOM      7  C   UNL     1       1.434   8.383  20.911  0.00  0.00    +0.000 C 
BRANCH   7   8
ATOM      8  O   UNL     1       0.153   8.235  21.564  0.00  0.00    +0.000 OA
ATOM      9  H   UNL     1      -0.539   8.281  20.876  0.00  0.00    +0.000 HD
ENDBRANCH   7   8
BRANCH   7  10
ATOM     10  C   UNL     1       1.582   9.837  20.460  0.00  0.00    +0.000 C 
BRANCH  10  11
ATOM     11  N   UNL     1       0.318  10.401  20.046  0.00  0.00    +0.000 N 
ATOM     12  C   UNL     1      -0.240  10.324  18.810  0.00  0.00    +0.000 A 
ATOM     13  C   UNL     1      -1.454  10.958  18.956  0.00  0.00    +0.000 A 
ATOM     14  N   UNL     1      -1.569  11.411  20.247  0.00  0.00    +0.000 NA
ATOM     15  N   UNL     1      -0.463  11.081  20.904  0.00  0.00    +0.000 NA
BRANCH  13  16
ATOM     16  C   UNL     1      -2.475  11.069  17.938  0.00  0.00    +0.000 A 
ATOM     17  C   UNL     1      -3.721  11.631  18.249  0.00  0.00    +0.000 A 
ATOM     18  C   UNL     1      -4.731  11.697  17.283  0.00  0.00    +0.000 A 
ATOM     19  C   UNL     1      -4.503  11.215  15.996  0.00  0.00    +0.000 A 
ATOM     20  C   UNL     1      -3.262  10.671  15.681  0.00  0.00    +0.000 A 
ATOM     21  C   UNL     1      -2.254  10.597  16.637  0.00  0.00    +0.000 A 
BRANCH  20  22
ATOM     22  O   UNL     1      -2.988  10.189  14.437  0.00  0.00    +0.000 OA
ATOM     23  H   UNL     1      -2.314  10.757  14.026  0.00  0.00    +0.000 HD
ENDBRANCH  20  22
ENDBRANCH  13  16
ENDBRANCH  10  11
ENDBRANCH   7  10
ENDBRANCH   4   7
BRANCH   5  24
ATOM     24  O   UNL     1       2.021   5.327  20.982  0.00  0.00    +0.000 OA
BRANCH  24  25
ATOM     25  C   UNL     1       1.223   4.141  20.759  0.00  0.00    +0.000 C 
BRANCH  25  26
ATOM     26  C   UNL     1       1.953   3.091  19.943  0.00  0.00    +0.000 A 
ATOM     27  C   UNL     1       3.142   2.526  20.416  0.00  0.00    +0.000 A 
ATOM     28  C   UNL     1       3.953   1.768  19.570  0.00  0.00    +0.000 A 
ATOM     29  C   UNL     1       3.565   1.530  18.255  0.00  0.00    +0.000 A 
ATOM     30  C   UNL     1       2.329   1.989  17.808  0.00  0.00    +0.000 A 
ATOM     31  C   UNL     1       1.513   2.739  18.659  0.00  0.00    +0.000 A 
ENDBRANCH  25  26
ENDBRANCH  24  25
ENDBRANCH   5  24
BRANCH   6  32
ATOM     32  O   UNL     1       4.131   5.034  18.824  0.00  0.00    +0.000 OA
BRANCH  32  33
ATOM     33  C   UNL     1       5.497   5.355  18.564  0.00  0.00    +0.000 C 
BRANCH  33  34
ATOM     34  C   UNL     1       5.884   5.027  17.150  0.00  0.00    +0.000 A 
ATOM     35  C   UNL     1       5.071   4.169  16.400  0.00  0.00    +0.000 A 
ATOM     36  C   UNL     1       5.446   3.806  15.110  0.00  0.00    +0.000 A 
ATOM     37  C   UNL     1       6.621   4.313  14.557  0.00  0.00    +0.000 A 
ATOM     38  C   UNL     1       7.411   5.203  15.281  0.00  0.00    +0.000 A 
ATOM     39  C   UNL     1       7.036   5.572  16.568  0.00  0.00    +0.000 A 
ENDBRANCH  33  34
ENDBRANCH  32  33
ENDBRANCH   6  32
TORSDOF 12
ENDMDL
MODEL 8
REMARK VINA RESULT:      -7.2      2.218      2.837
REMARK  Name = 
REMARK  12 active torsions:
REMARK  status: ('A' for Active; 'I' for Inactive)
REMARK    1  A    between atoms: C_4  and  C_5
REMARK    2  A    between atoms: C_5  and  O_6
REMARK    3  A    between atoms: C_5  and  C_7
REMARK    4  A    between atoms: C_7  and  N_8
REMARK    5  A    between atoms: C_10  and  C_11
REMARK    6  A    between atoms: C_15  and  O_16
REMARK    7  A    between atoms: C_20  and  O_21
REMARK    8  A    between atoms: O_21  and  C_22
REMARK    9  A    between atoms: C_22  and  C_23
REMARK   10  A    between atoms: C_29  and  O_30
REMARK   11  A    between atoms: O_30  and  C_31
REMARK   12  A    between atoms: C_31  and  C_32
REMARK                            x       y       z     vdW  Elec       q    Type
REMARK                         _______ _______ _______ _____ _____    ______ ____
ROOT
ATOM      1  O   UNL     1       0.575   8.717  22.646  0.00  0.00    +0.000 OA
ATOM      2  C   UNL     1       0.930   8.935  21.505  0.00  0.00    +0.000 C 
ATOM      3  O   UNL     1       0.777  10.142  20.891  0.00  0.00    +0.000 OA
ATOM      4  C   UNL     1       1.107  10.024  19.497  0.00  0.00    +0.000 C 
ATOM      5  C   UNL     1       1.521   8.604  19.347  0.00  0.00    +0.000 C 
ATOM      6  C   UNL     1       1.490   7.973  20.526  0.00  0.00    +0.000 C 
ENDROOT
BRANCH   4   7
ATOM      7  C   UNL     1      -0.111  10.502  18.683  0.00  0.00    +0.000 C 
BRANCH   7   8
ATOM      8  O   UNL     1       0.008   9.960  17.348  0.00  0.00    +0.000 OA
ATOM      9  H   UNL     1      -0.865   9.605  17.092  0.00  0.00    +0.000 HD
ENDBRANCH   7   8
BRANCH   7  10
ATOM     10  C   UNL     1      -0.205  12.025  18.581  0.00  0.00    +0.000 C 
BRANCH  10  11
ATOM     11  N   UNL     1      -1.206  12.561  19.475  0.00  0.00    +0.000 N 
ATOM     12  C   UNL     1      -2.486  12.130  19.615  0.00  0.00    +0.000 A 
ATOM     13  C   UNL     1      -2.991  12.919  20.624  0.00  0.00    +0.000 A 
ATOM     14  N   UNL     1      -2.021  13.802  21.029  0.00  0.00    +0.000 NA
ATOM     15  N   UNL     1      -0.932  13.587  20.300  0.00  0.00    +0.000 NA
BRANCH  13  16
ATOM     16  C   UNL     1      -4.307  12.795  21.212  0.00  0.00    +0.000 A 
ATOM     17  C   UNL     1      -5.400  12.421  20.418  0.00  0.00    +0.000 A 
ATOM     18  C   UNL     1      -6.684  12.348  20.969  0.00  0.00    +0.000 A 
ATOM     19  C   UNL     1      -6.887  12.634  22.317  0.00  0.00    +0.000 A 
ATOM     20  C   UNL     1      -5.801  12.991  23.109  0.00  0.00    +0.000 A 
ATOM     21  C   UNL     1      -4.521  13.071  22.569  0.00  0.00    +0.000 A 
BRANCH  20  22
ATOM     22  O   UNL     1      -5.945  13.277  24.433  0.00  0.00    +0.000 OA
ATOM     23  H   UNL     1      -6.816  12.959  24.726  0.00  0.00    +0.000 HD
ENDBRANCH  20  22
ENDBRANCH  13  16
ENDBRANCH  10  11
ENDBRANCH   7  10
ENDBRANCH   4   7
BRANCH   5  24
ATOM     24  O   UNL     1       1.838   8.147  18.093  0.00  0.00    +0.000 OA
BRANCH  24  25
ATOM     25  C   UNL     1       3.185   8.310  17.594  0.00  0.00    +0.000 C 
BRANCH  25  26
ATOM     26  C   UNL     1       3.859   6.986  17.288  0.00  0.00    +0.000 A 
ATOM     27  C   UNL     1       4.942   6.928  16.406  0.00  0.00    +0.000 A 
ATOM     28  C   UNL     1       5.395   5.702  15.916  0.00  0.00    +0.000 A 
ATOM     29  C   UNL     1       4.796   4.516  16.336  0.00  0.00    +0.000 A 
ATOM     30  C   UNL     1       3.795   4.555  17.301  0.00  0.00    +0.000 A 
ATOM     31  C   UNL     1       3.351   5.783  17.799  0.00  0.00    +0.000 A 
ENDBRANCH  25  26
ENDBRANCH  24  25
ENDBRANCH   5  24
BRANCH   6  32
ATOM     32  O   UNL     1       1.895   6.688  20.749  0.00  0.00    +0.000 OA
BRANCH  32  33
ATOM     33  C   UNL     1       0.887   5.676  20.756  0.00  0.00    +0.000 C 
BRANCH  33  34
ATOM     34  C   UNL     1       1.440   4.340  20.354  0.00  0.00    +0.000 A 
ATOM     35  C   UNL     1       2.647   3.903  20.912  0.00  0.00    +0.000 A 
ATOM     36  C   UNL     1       3.205   2.694  20.506  0.00  0.00    +0.000 A 
ATOM     37  C   UNL     1       2.552   1.909  19.556  0.00  0.00    +0.000 A 
ATOM     38  C   UNL     1       1.329   2.317  19.030  0.00  0.00    +0.000 A 
ATOM     39  C   UNL     1       0.766   3.521  19.438  0.00  0.00    +0.000 A 
ENDBRANCH  33  34
ENDBRANCH  32  33
ENDBRANCH   6  32
TORSDOF 12
ENDMDL
MODEL 9
REMARK VINA RESULT:      -7.2      3.063     10.335
REMARK  Name = 
REMARK  12 active torsions:
REMARK  status: ('A' for Active; 'I' for Inactive)
REMARK    1  A    between atoms: C_4  and  C_5
REMARK    2  A    between atoms: C_5  and  O_6
REMARK    3  A    between atoms: C_5  and  C_7
REMARK    4  A    between atoms: C_7  and  N_8
REMARK    5  A    between atoms: C_10  and  C_11
REMARK    6  A    between atoms: C_15  and  O_16
REMARK    7  A    between atoms: C_20  and  O_21
REMARK    8  A    between atoms: O_21  and  C_22
REMARK    9  A    between atoms: C_22  and  C_23
REMARK   10  A    between atoms: C_29  and  O_30
REMARK   11  A    between atoms: O_30  and  C_31
REMARK   12  A    between atoms: C_31  and  C_32
REMARK                            x       y       z     vdW  Elec       q    Type
REMARK                         _______ _______ _______ _____ _____    ______ ____
ROOT
ATOM      1  O   UNL     1       0.016  10.092  23.707  0.00  0.00    +0.000 OA
ATOM      2  C   UNL     1      -0.205  10.235  22.521  0.00  0.00    +0.000 C 
ATOM      3  O   UNL     1       0.233   9.366  21.568  0.00  0.00    +0.000 OA
ATOM      4  C   UNL     1      -0.013   9.913  20.262  0.00  0.00    +0.000 C 
ATOM      5  C   UNL     1      -0.696  11.205  20.537  0.00  0.00    +0.000 C 
ATOM      6  C   UNL     1      -0.878  11.374  21.852  0.00  0.00    +0.000 C 
ENDROOT
BRANCH   4   7
ATOM      7  C   UNL     1       1.332   9.963  19.510  0.00  0.00    +0.000 C 
BRANCH   7   8
ATOM      8  O   UNL     1       1.564  11.332  19.109  0.00  0.00    +0.000 OA
ATOM      9  H   UNL     1       1.681  11.343  18.140  0.00  0.00    +0.000 HD
ENDBRANCH   7   8
BRANCH   7  10
ATOM     10  C   UNL     1       1.354   9.082  18.261  0.00  0.00    +0.000 C 
BRANCH  10  11
ATOM     11  N   UNL     1       2.243   7.953  18.417  0.00  0.00    +0.000 N 
ATOM     12  C   UNL     1       3.231   7.572  17.567  0.00  0.00    +0.000 A 
ATOM     13  C   UNL     1       3.812   6.495  18.197  0.00  0.00    +0.000 A 
ATOM     14  N   UNL     1       3.145   6.252  19.372  0.00  0.00    +0.000 NA
ATOM     15  N   UNL     1       2.167   7.143  19.487  0.00  0.00    +0.000 NA
BRANCH  13  16
ATOM     16  C   UNL     1       4.979   5.777  17.735  0.00  0.00    +0.000 A 
ATOM     17  C   UNL     1       6.148   5.761  18.509  0.00  0.00    +0.000 A 
ATOM     18  C   UNL     1       7.296   5.110  18.045  0.00  0.00    +0.000 A 
ATOM     19  C   UNL     1       7.286   4.460  16.814  0.00  0.00    +0.000 A 
ATOM     20  C   UNL     1       6.122   4.462  16.052  0.00  0.00    +0.000 A 
ATOM     21  C   UNL     1       4.976   5.110  16.502  0.00  0.00    +0.000 A 
BRANCH  20  22
ATOM     22  O   UNL     1       6.059   3.837  14.842  0.00  0.00    +0.000 OA
ATOM     23  H   UNL     1       6.722   4.235  14.253  0.00  0.00    +0.000 HD
ENDBRANCH  20  22
ENDBRANCH  13  16
ENDBRANCH  10  11
ENDBRANCH   7  10
ENDBRANCH   4   7
BRANCH   5  24
ATOM     24  O   UNL     1      -1.008  12.016  19.477  0.00  0.00    +0.000 OA
BRANCH  24  25
ATOM     25  C   UNL     1      -2.396  12.256  19.148  0.00  0.00    +0.000 C 
BRANCH  25  26
ATOM     26  C   UNL     1      -2.869  11.424  17.970  0.00  0.00    +0.000 A 
ATOM     27  C   UNL     1      -1.997  10.536  17.334  0.00  0.00    +0.000 A 
ATOM     28  C   UNL     1      -2.332   9.971  16.103  0.00  0.00    +0.000 A 
ATOM     29  C   UNL     1      -3.562  10.254  15.514  0.00  0.00    +0.000 A 
ATOM     30  C   UNL     1      -4.485  11.044  16.193  0.00  0.00    +0.000 A 
ATOM     31  C   UNL     1      -4.152  11.600  17.431  0.00  0.00    +0.000 A 
ENDBRANCH  25  26
ENDBRANCH  24  25
ENDBRANCH   5  24
BRANCH   6  32
ATOM     32  O   UNL     1      -1.550  12.411  22.433  0.00  0.00    +0.000 OA
BRANCH  32  33
ATOM     33  C   UNL     1      -2.786  12.107  23.082  0.00  0.00    +0.000 C 
BRANCH  33  34
ATOM     34  C   UNL     1      -3.595  13.345  23.341  0.00  0.00    +0.000 A 
ATOM     35  C   UNL     1      -3.118  14.296  24.251  0.00  0.00    +0.000 A 
ATOM     36  C   UNL     1      -3.884  15.420  24.548  0.00  0.00    +0.000 A 
ATOM     37  C   UNL     1      -5.117  15.608  23.925  0.00  0.00    +0.000 A 
ATOM     38  C   UNL     1      -5.577  14.688  22.986  0.00  0.00    +0.000 A 
ATOM     39  C   UNL     1      -4.811  13.567  22.682  0.00  0.00    +0.000 A 
ENDBRANCH  33  34
ENDBRANCH  32  33
ENDBRANCH   6  32
TORSDOF 12
ENDMDL
