MODEL 1
REMARK VINA RESULT:      -7.7      0.000      0.000
REMARK  Name = 
REMARK  11 active torsions:
REMARK  status: ('A' for Active; 'I' for Inactive)
REMARK    1  A    between atoms: C_1  and  C_2
REMARK    2  A    between atoms: C_4  and  C_5
REMARK    3  A    between atoms: N_9  and  C_10
REMARK    4  A    between atoms: C_10  and  C_11
REMARK    5  A    between atoms: C_11  and  N_12
REMARK    6  A    between atoms: N_12  and  C_13
REMARK    7  A    between atoms: N_12  and  C_14
REMARK    8  A    between atoms: C_15  and  C_17
REMARK    9  A    between atoms: C_17  and  C_18
REMARK   10  A    between atoms: C_18  and  S_19
REMARK   11  A    between atoms: S_19  and  C_22
REMARK                            x       y       z     vdW  Elec       q    Type
REMARK                         _______ _______ _______ _____ _____    ______ ____
ROOT
ATOM      1  C   UNL     1      -1.837  12.889  19.945  0.00  0.00    +0.000 C 
ATOM      2  C   UNL     1      -1.019  11.700  20.347  0.00  0.00    +0.000 A 
ATOM      3  C   UNL     1      -1.014  11.259  21.694  0.00  0.00    +0.000 A 
ATOM      4  C   UNL     1      -0.261  10.136  22.069  0.00  0.00    +0.000 A 
ATOM      5  C   UNL     1      -0.232   9.609  23.478  0.00  0.00    +0.000 C 
ATOM      6  C   UNL     1       0.467   9.498  21.078  0.00  0.00    +0.000 A 
ATOM      7  S   UNL     1       1.418   8.165  21.227  0.00  0.00    +0.000 S 
ATOM      8  C   UNL     1       1.835   8.095  19.592  0.00  0.00    +0.000 A 
ATOM      9  N   UNL     1       2.668   7.090  18.959  0.00  0.00    +0.000 N 
ATOM     10  C   UNL     1       3.207   7.365  17.702  0.00  0.00    +0.000 C 
ATOM     11  O   UNL     1       3.057   8.469  17.197  0.00  0.00    +0.000 OA
ATOM     12  N   UNL     1       1.254   9.137  18.928  0.00  0.00    +0.000 NA
ATOM     13  C   UNL     1       0.486   9.904  19.763  0.00  0.00    +0.000 A 
ATOM     14  C   UNL     1      -0.258  11.017  19.370  0.00  0.00    +0.000 A 
ENDROOT
BRANCH   9  15
ATOM     15  C   UNL     1       2.869   5.741  19.553  0.00  0.00    +0.000 C 
BRANCH  15  16
ATOM     16  C   UNL     1       1.704   4.736  19.491  0.00  0.00    +0.000 C 
BRANCH  16  17
ATOM     17  N   UNL     1       2.104   3.326  19.687  0.00  0.00    +0.000 NA
ATOM     18  C   UNL     1       1.409   2.674  20.806  0.00  0.00    +0.000 C 
ATOM     19  C   UNL     1       1.825   2.594  18.436  0.00  0.00    +0.000 C 
ENDBRANCH  16  17
ENDBRANCH  15  16
ENDBRANCH   9  15
BRANCH  10  20
ATOM     20  C   UNL     1       4.013   6.364  16.883  0.00  0.00    +0.000 C 
BRANCH  20  21
ATOM     21  C   UNL     1       5.516   6.575  17.081  0.00  0.00    +0.000 C 
BRANCH  21  22
ATOM     22  S   UNL     1       6.503   5.109  16.712  0.00  0.00    +0.000 S 
ATOM     23  O   UNL     1       7.870   5.200  17.408  0.00  0.00    +0.000 OA
ATOM     24  O   UNL     1       5.900   3.877  17.404  0.00  0.00    +0.000 OA
BRANCH  22  25
ATOM     25  C   UNL     1       6.719   4.741  14.977  0.00  0.00    +0.000 A 
ATOM     26  C   UNL     1       7.687   5.406  14.219  0.00  0.00    +0.000 A 
ATOM     27  C   UNL     1       7.796   5.152  12.849  0.00  0.00    +0.000 A 
ATOM     28  C   UNL     1       6.935   4.238  12.233  0.00  0.00    +0.000 A 
ATOM     29  C   UNL     1       5.965   3.573  12.989  0.00  0.00    +0.000 A 
ATOM     30  C   UNL     1       5.854   3.824  14.359  0.00  0.00    +0.000 A 
ENDBRANCH  22  25
ENDBRANCH  21  22
ENDBRANCH  20  21
ENDBRANCH  10  20
TORSDOF 7
ENDMDL
MODEL 2
REMARK VINA RESULT:      -7.5      1.395      1.782
REMARK  Name = 
REMARK  11 active torsions:
REMARK  status: ('A' for Active; 'I' for Inactive)
REMARK    1  A    between atoms: C_1  and  C_2
REMARK    2  A    between atoms: C_4  and  C_5
REMARK    3  A    between atoms: N_9  and  C_10
REMARK    4  A    between atoms: C_10  and  C_11
REMARK    5  A    between atoms: C_11  and  N_12
REMARK    6  A    between atoms: N_12  and  C_13
REMARK    7  A    between atoms: N_12  and  C_14
REMARK    8  A    between atoms: C_15  and  C_17
REMARK    9  A    between atoms: C_17  and  C_18
REMARK   10  A    between atoms: C_18  and  S_19
REMARK   11  A    between atoms: S_19  and  C_22
REMARK                            x       y       z     vdW  Elec       q    Type
REMARK                         _______ _______ _______ _____ _____    ______ ____
ROOT
ATOM      1  C   UNL     1      -0.838  12.682  18.200  0.00  0.00    +0.000 C 
ATOM      2  C   UNL     1      -0.421  11.557  19.099  0.00  0.00    +0.000 A 
ATOM      3  C   UNL     1      -0.901  11.492  20.431  0.00  0.00    +0.000 A 
ATOM      4  C   UNL     1      -0.524  10.431  21.269  0.00  0.00    +0.000 A 
ATOM      5  C   UNL     1      -1.016  10.297  22.684  0.00  0.00    +0.000 C 
ATOM      6  C   UNL     1       0.327   9.473  20.739  0.00  0.00    +0.000 A 
ATOM      7  S   UNL     1       0.914   8.128  21.480  0.00  0.00    +0.000 S 
ATOM      8  C   UNL     1       1.774   7.580  20.134  0.00  0.00    +0.000 A 
ATOM      9  N   UNL     1       2.546   6.355  20.048  0.00  0.00    +0.000 N 
ATOM     10  C   UNL     1       3.475   6.223  19.016  0.00  0.00    +0.000 C 
ATOM     11  O   UNL     1       3.697   7.162  18.265  0.00  0.00    +0.000 OA
ATOM     12  N   UNL     1       1.628   8.467  19.107  0.00  0.00    +0.000 NA
ATOM     13  C   UNL     1       0.811   9.511  19.452  0.00  0.00    +0.000 A 
ATOM     14  C   UNL     1       0.447  10.556  18.603  0.00  0.00    +0.000 A 
ENDROOT
BRANCH   9  15
ATOM     15  C   UNL     1       2.297   5.197  20.950  0.00  0.00    +0.000 C 
BRANCH  15  16
ATOM     16  C   UNL     1       1.155   4.227  20.594  0.00  0.00    +0.000 C 
BRANCH  16  17
ATOM     17  N   UNL     1       1.561   2.806  20.532  0.00  0.00    +0.000 NA
ATOM     18  C   UNL     1       1.916   2.360  19.178  0.00  0.00    +0.000 C 
ATOM     19  C   UNL     1       2.716   2.622  21.433  0.00  0.00    +0.000 C 
ENDBRANCH  16  17
ENDBRANCH  15  16
ENDBRANCH   9  15
BRANCH  10  20
ATOM     20  C   UNL     1       4.277   4.954  18.749  0.00  0.00    +0.000 C 
BRANCH  20  21
ATOM     21  C   UNL     1       5.700   5.078  19.299  0.00  0.00    +0.000 C 
BRANCH  21  22
ATOM     22  S   UNL     1       6.954   5.259  18.013  0.00  0.00    +0.000 S 
ATOM     23  O   UNL     1       7.621   6.640  18.112  0.00  0.00    +0.000 OA
ATOM     24  O   UNL     1       8.146   4.333  18.301  0.00  0.00    +0.000 OA
BRANCH  22  25
ATOM     25  C   UNL     1       6.393   4.965  16.342  0.00  0.00    +0.000 A 
ATOM     26  C   UNL     1       6.731   3.786  15.670  0.00  0.00    +0.000 A 
ATOM     27  C   UNL     1       6.338   3.604  14.341  0.00  0.00    +0.000 A 
ATOM     28  C   UNL     1       5.611   4.600  13.681  0.00  0.00    +0.000 A 
ATOM     29  C   UNL     1       5.274   5.780  14.350  0.00  0.00    +0.000 A 
ATOM     30  C   UNL     1       5.664   5.965  15.679  0.00  0.00    +0.000 A 
ENDBRANCH  22  25
ENDBRANCH  21  22
ENDBRANCH  20  21
ENDBRANCH  10  20
TORSDOF 7
ENDMDL
MODEL 3
REMARK VINA RESULT:      -7.4      2.157      2.968
REMARK  Name = 
REMARK  11 active torsions:
REMARK  status: ('A' for Active; 'I' for Inactive)
REMARK    1  A    between atoms: C_1  and  C_2
REMARK    2  A    between atoms: C_4  and  C_5
REMARK    3  A    between atoms: N_9  and  C_10
REMARK    4  A    between atoms: C_10  and  C_11
REMARK    5  A    between atoms: C_11  and  N_12
REMARK    6  A    between atoms: N_12  and  C_13
REMARK    7  A    between atoms: N_12  and  C_14
REMARK    8  A    between atoms: C_15  and  C_17
REMARK    9  A    between atoms: C_17  and  C_18
REMARK   10  A    between atoms: C_18  and  S_19
REMARK   11  A    between atoms: S_19  and  C_22
REMARK                            x       y       z     vdW  Elec       q    Type
REMARK                         _______ _______ _______ _____ _____    ______ ____
ROOT
ATOM      1  C   UNL     1       0.606  13.232  18.507  0.00  0.00    +0.000 C 
ATOM      2  C   UNL     1       0.675  11.927  19.240  0.00  0.00    +0.000 A 
ATOM      3  C   UNL     1       0.058  11.786  20.508  0.00  0.00    +0.000 A 
ATOM      4  C   UNL     1       0.109  10.559  21.188  0.00  0.00    +0.000 A 
ATOM      5  C   UNL     1      -0.544  10.343  22.526  0.00  0.00    +0.000 C 
ATOM      6  C   UNL     1       0.783   9.517  20.571  0.00  0.00    +0.000 A 
ATOM      7  S   UNL     1       0.987   7.982  21.125  0.00  0.00    +0.000 S 
ATOM      8  C   UNL     1       1.842   7.447  19.771  0.00  0.00    +0.000 A 
ATOM      9  N   UNL     1       2.337   6.103  19.542  0.00  0.00    +0.000 N 
ATOM     10  C   UNL     1       3.317   5.909  18.569  0.00  0.00    +0.000 C 
ATOM     11  O   UNL     1       3.813   6.869  17.997  0.00  0.00    +0.000 OA
ATOM     12  N   UNL     1       1.999   8.481  18.893  0.00  0.00    +0.000 NA
ATOM     13  C   UNL     1       1.395   9.624  19.344  0.00  0.00    +0.000 A 
ATOM     14  C   UNL     1       1.354  10.834  18.651  0.00  0.00    +0.000 A 
ENDROOT
BRANCH   9  15
ATOM     15  C   UNL     1       1.753   4.918  20.227  0.00  0.00    +0.000 C 
BRANCH  15  16
ATOM     16  C   UNL     1       2.589   4.215  21.312  0.00  0.00    +0.000 C 
BRANCH  16  17
ATOM     17  N   UNL     1       2.639   2.743  21.184  0.00  0.00    +0.000 NA
ATOM     18  C   UNL     1       1.669   2.209  20.219  0.00  0.00    +0.000 C 
ATOM     19  C   UNL     1       4.006   2.367  20.772  0.00  0.00    +0.000 C 
ENDBRANCH  16  17
ENDBRANCH  15  16
ENDBRANCH   9  15
BRANCH  10  20
ATOM     20  C   UNL     1       3.851   4.541  18.158  0.00  0.00    +0.000 C 
BRANCH  20  21
ATOM     21  C   UNL     1       3.942   4.422  16.635  0.00  0.00    +0.000 C 
BRANCH  21  22
ATOM     22  S   UNL     1       5.578   4.813  15.980  0.00  0.00    +0.000 S 
ATOM     23  O   UNL     1       6.247   3.544  15.429  0.00  0.00    +0.000 OA
ATOM     24  O   UNL     1       5.450   5.658  14.704  0.00  0.00    +0.000 OA
BRANCH  22  25
ATOM     25  C   UNL     1       6.681   5.650  17.111  0.00  0.00    +0.000 A 
ATOM     26  C   UNL     1       7.127   5.018  18.275  0.00  0.00    +0.000 A 
ATOM     27  C   UNL     1       7.936   5.712  19.179  0.00  0.00    +0.000 A 
ATOM     28  C   UNL     1       8.297   7.039  18.923  0.00  0.00    +0.000 A 
ATOM     29  C   UNL     1       7.851   7.673  17.760  0.00  0.00    +0.000 A 
ATOM     30  C   UNL     1       7.043   6.982  16.854  0.00  0.00    +0.000 A 
ENDBRANCH  22  25
ENDBRANCH  21  22
ENDBRANCH  20  21
ENDBRANCH  10  20
TORSDOF 7
ENDMDL
MODEL 4
REMARK VINA RESULT:      -7.4      1.048      1.455
REMARK  Name = 
REMARK  11 active torsions:
REMARK  status: ('A' for Active; 'I' for Inactive)
REMARK    1  A    between atoms: C_1  and  C_2
REMARK    2  A    between atoms: C_4  and  C_5
REMARK    3  A    between atoms: N_9  and  C_10
REMARK    4  A    between atoms: C_10  and  C_11
REMARK    5  A    between atoms: C_11  and  N_12
REMARK    6  A    between atoms: N_12  and  C_13
REMARK    7  A    between atoms: N_12  and  C_14
REMARK    8  A    between atoms: C_15  and  C_17
REMARK    9  A    between atoms: C_17  and  C_18
REMARK   10  A    between atoms: C_18  and  S_19
REMARK   11  A    between atoms: S_19  and  C_22
REMARK                            x       y       z     vdW  Elec       q    Type
REMARK                         _______ _______ _______ _____ _____    ______ ____
ROOT
ATOM      1  C   UNL     1      -1.089  12.972  18.878  0.00  0.00    +0.000 C 
ATOM      2  C   UNL     1      -0.504  11.731  19.482  0.00  0.00    +0.000 A 
ATOM      3  C   UNL     1      -0.828  11.362  20.811  0.00  0.00    +0.000 A 
ATOM      4  C   UNL     1      -0.293  10.192  21.373  0.00  0.00    +0.000 A 
ATOM      5  C   UNL     1      -0.616   9.739  22.770  0.00  0.00    +0.000 C 
ATOM      6  C   UNL     1       0.554   9.435  20.579  0.00  0.00    +0.000 A 
ATOM      7  S   UNL     1       1.305   8.025  20.968  0.00  0.00    +0.000 S 
ATOM      8  C   UNL     1       2.045   7.830  19.462  0.00  0.00    +0.000 A 
ATOM      9  N   UNL     1       2.881   6.717  19.052  0.00  0.00    +0.000 N 
ATOM     10  C   UNL     1       3.696   6.873  17.932  0.00  0.00    +0.000 C 
ATOM     11  O   UNL     1       3.773   7.958  17.374  0.00  0.00    +0.000 OA
ATOM     12  N   UNL     1       1.730   8.888  18.659  0.00  0.00    +0.000 NA
ATOM     13  C   UNL     1       0.890   9.768  19.287  0.00  0.00    +0.000 A 
ATOM     14  C   UNL     1       0.368  10.926  18.711  0.00  0.00    +0.000 A 
ENDROOT
BRANCH   9  15
ATOM     15  C   UNL     1       2.808   5.387  19.716  0.00  0.00    +0.000 C 
BRANCH  15  16
ATOM     16  C   UNL     1       1.673   4.429  19.308  0.00  0.00    +0.000 C 
BRANCH  16  17
ATOM     17  N   UNL     1       2.131   3.092  18.874  0.00  0.00    +0.000 NA
ATOM     18  C   UNL     1       1.117   2.044  19.049  0.00  0.00    +0.000 C 
ATOM     19  C   UNL     1       2.512   3.181  17.451  0.00  0.00    +0.000 C 
ENDBRANCH  16  17
ENDBRANCH  15  16
ENDBRANCH   9  15
BRANCH  10  20
ATOM     20  C   UNL     1       4.545   5.756  17.335  0.00  0.00    +0.000 C 
BRANCH  20  21
ATOM     21  C   UNL     1       5.076   6.148  15.954  0.00  0.00    +0.000 C 
BRANCH  21  22
ATOM     22  S   UNL     1       6.406   5.078  15.365  0.00  0.00    +0.000 S 
ATOM     23  O   UNL     1       7.730   5.856  15.314  0.00  0.00    +0.000 OA
ATOM     24  O   UNL     1       6.731   4.009  16.419  0.00  0.00    +0.000 OA
BRANCH  22  25
ATOM     25  C   UNL     1       6.107   4.266  13.801  0.00  0.00    +0.000 A 
ATOM     26  C   UNL     1       4.817   3.876  13.431  0.00  0.00    +0.000 A 
ATOM     27  C   UNL     1       4.613   3.184  12.234  0.00  0.00    +0.000 A 
ATOM     28  C   UNL     1       5.699   2.876  11.408  0.00  0.00    +0.000 A 
ATOM     29  C   UNL     1       6.990   3.264  11.776  0.00  0.00    +0.000 A 
ATOM     30  C   UNL     1       7.197   3.957  12.972  0.00  0.00    +0.000 A 
ENDBRANCH  22  25
ENDBRANCH  21  22
ENDBRANCH  20  21
ENDBRANCH  10  20
TORSDOF 7
ENDMDL
MODEL 5
REMARK VINA RESULT:      -7.3      1.292      1.751
REMARK  Name = 
REMARK  11 active torsions:
REMARK  status: ('A' for Active; 'I' for Inactive)
REMARK    1  A    between atoms: C_1  and  C_2
REMARK    2  A    between atoms: C_4  and  C_5
REMARK    3  A    between atoms: N_9  and  C_10
REMARK    4  A    between atoms: C_10  and  C_11
REMARK    5  A    between atoms: C_11  and  N_12
REMARK    6  A    between atoms: N_12  and  C_13
REMARK    7  A    between atoms: N_12  and  C_14
REMARK    8  A    between atoms: C_15  and  C_17
REMARK    9  A    between atoms: C_17  and  C_18
REMARK   10  A    between atoms: C_18  and  S_19
REMARK   11  A    between atoms: S_19  and  C_22
REMARK                            x       y       z     vdW  Elec       q    Type
REMARK                         _______ _______ _______ _____ _____    ______ ____
ROOT
ATOM      1  C   UNL     1      -1.752  11.762  17.444  0.00  0.00    +0.000 C 
ATOM      2  C   UNL     1      -0.981  10.904  18.401  0.00  0.00    +0.000 A 
ATOM      3  C   UNL     1      -1.147  11.065  19.799  0.00  0.00    +0.000 A 
ATOM      4  C   UNL     1      -0.437  10.252  20.696  0.00  0.00    +0.000 A 
ATOM      5  C   UNL     1      -0.587  10.363  22.188  0.00  0.00    +0.000 C 
ATOM      6  C   UNL     1       0.421   9.308  20.155  0.00  0.00    +0.000 A 
ATOM      7  S   UNL     1       1.359   8.223  20.959  0.00  0.00    +0.000 S 
ATOM      8  C   UNL     1       1.987   7.506  19.565  0.00  0.00    +0.000 A 
ATOM      9  N   UNL     1       2.907   6.385  19.513  0.00  0.00    +0.000 N 
ATOM     10  C   UNL     1       3.602   6.146  18.328  0.00  0.00    +0.000 C 
ATOM     11  O   UNL     1       3.507   6.928  17.392  0.00  0.00    +0.000 OA
ATOM     12  N   UNL     1       1.486   8.137  18.462  0.00  0.00    +0.000 NA
ATOM     13  C   UNL     1       0.607   9.130  18.803  0.00  0.00    +0.000 A 
ATOM     14  C   UNL     1      -0.091   9.927  17.896  0.00  0.00    +0.000 A 
ENDROOT
BRANCH   9  15
ATOM     15  C   UNL     1       3.043   5.421  20.639  0.00  0.00    +0.000 C 
BRANCH  15  16
ATOM     16  C   UNL     1       1.830   4.542  20.998  0.00  0.00    +0.000 C 
BRANCH  16  17
ATOM     17  N   UNL     1       1.868   3.185  20.413  0.00  0.00    +0.000 NA
ATOM     18  C   UNL     1       1.362   3.131  19.035  0.00  0.00    +0.000 C 
ATOM     19  C   UNL     1       3.266   2.712  20.448  0.00  0.00    +0.000 C 
ENDBRANCH  16  17
ENDBRANCH  15  16
ENDBRANCH   9  15
BRANCH  10  20
ATOM     20  C   UNL     1       4.519   4.950  18.105  0.00  0.00    +0.000 C 
BRANCH  20  21
ATOM     21  C   UNL     1       4.636   4.616  16.616  0.00  0.00    +0.000 C 
BRANCH  21  22
ATOM     22  S   UNL     1       6.230   5.070  15.901  0.00  0.00    +0.000 S 
ATOM     23  O   UNL     1       6.481   6.576  16.076  0.00  0.00    +0.000 OA
ATOM     24  O   UNL     1       7.375   4.480  16.738  0.00  0.00    +0.000 OA
BRANCH  22  25
ATOM     25  C   UNL     1       6.471   4.601  14.193  0.00  0.00    +0.000 A 
ATOM     26  C   UNL     1       5.647   3.647  13.589  0.00  0.00    +0.000 A 
ATOM     27  C   UNL     1       5.892   3.246  12.274  0.00  0.00    +0.000 A 
ATOM     28  C   UNL     1       6.964   3.793  11.561  0.00  0.00    +0.000 A 
ATOM     29  C   UNL     1       7.791   4.746  12.163  0.00  0.00    +0.000 A 
ATOM     30  C   UNL     1       7.547   5.150  13.478  0.00  0.00    +0.000 A 
ENDBRANCH  22  25
ENDBRANCH  21  22
ENDBRANCH  20  21
ENDBRANCH  10  20
TORSDOF 7
ENDMDL
MODEL 6
REMARK VINA RESULT:      -7.1      4.054     10.888
REMARK  Name = 
REMARK  11 active torsions:
REMARK  status: ('A' for Active; 'I' for Inactive)
REMARK    1  A    between atoms: C_1  and  C_2
REMARK    2  A    between atoms: C_4  and  C_5
REMARK    3  A    between atoms: N_9  and  C_10
REMARK    4  A    between atoms: C_10  and  C_11
REMARK    5  A    between atoms: C_11  and  N_12
REMARK    6  A    between atoms: N_12  and  C_13
REMARK    7  A    between atoms: N_12  and  C_14
REMARK    8  A    between atoms: C_15  and  C_17
REMARK    9  A    between atoms: C_17  and  C_18
REMARK   10  A    between atoms: C_18  and  S_19
REMARK   11  A    between atoms: S_19  and  C_22
REMARK                            x       y       z     vdW  Elec       q    Type
REMARK                         _______ _______ _______ _____ _____    ______ ____
ROOT
ATOM      1  C   UNL     1       2.656   2.764  21.178  0.00  0.00    +0.000 C 
ATOM      2  C   UNL     1       2.632   4.111  20.521  0.00  0.00    +0.000 A 
ATOM      3  C   UNL     1       3.359   4.336  19.326  0.00  0.00    +0.000 A 
ATOM      4  C   UNL     1       3.324   5.593  18.701  0.00  0.00    +0.000 A 
ATOM      5  C   UNL     1       4.059   5.886  17.422  0.00  0.00    +0.000 C 
ATOM      6  C   UNL     1       2.563   6.582  19.304  0.00  0.00    +0.000 A 
ATOM      7  S   UNL     1       2.333   8.127  18.791  0.00  0.00    +0.000 S 
ATOM      8  C   UNL     1       1.292   8.549  20.052  0.00  0.00    +0.000 A 
ATOM      9  N   UNL     1       0.631   9.828  20.230  0.00  0.00    +0.000 N 
ATOM     10  C   UNL     1       0.104  10.139  21.484  0.00  0.00    +0.000 C 
ATOM     11  O   UNL     1       0.288   9.387  22.431  0.00  0.00    +0.000 OA
ATOM     12  N   UNL     1       1.147   7.488  20.899  0.00  0.00    +0.000 NA
ATOM     13  C   UNL     1       1.850   6.395  20.465  0.00  0.00    +0.000 A 
ATOM     14  C   UNL     1       1.869   5.153  21.100  0.00  0.00    +0.000 A 
ENDROOT
BRANCH   9  15
ATOM     15  C   UNL     1       0.396  10.762  19.095  0.00  0.00    +0.000 C 
BRANCH  15  16
ATOM     16  C   UNL     1      -0.635  10.363  18.023  0.00  0.00    +0.000 C 
BRANCH  16  17
ATOM     17  N   UNL     1      -2.043  10.466  18.464  0.00  0.00    +0.000 NA
ATOM     18  C   UNL     1      -2.507  11.853  18.607  0.00  0.00    +0.000 C 
ATOM     19  C   UNL     1      -2.883   9.762  17.475  0.00  0.00    +0.000 C 
ENDBRANCH  16  17
ENDBRANCH  15  16
ENDBRANCH   9  15
BRANCH  10  20
ATOM     20  C   UNL     1      -0.701  11.399  21.781  0.00  0.00    +0.000 C 
BRANCH  20  21
ATOM     21  C   UNL     1      -1.435  11.279  23.119  0.00  0.00    +0.000 C 
BRANCH  21  22
ATOM     22  S   UNL     1      -2.841  12.401  23.270  0.00  0.00    +0.000 S 
ATOM     23  O   UNL     1      -3.570  12.523  21.922  0.00  0.00    +0.000 OA
ATOM     24  O   UNL     1      -3.935  11.765  24.141  0.00  0.00    +0.000 OA
BRANCH  22  25
ATOM     25  C   UNL     1      -2.467  14.024  23.917  0.00  0.00    +0.000 A 
ATOM     26  C   UNL     1      -1.171  14.543  23.844  0.00  0.00    +0.000 A 
ATOM     27  C   UNL     1      -0.885  15.786  24.415  0.00  0.00    +0.000 A 
ATOM     28  C   UNL     1      -1.891  16.511  25.062  0.00  0.00    +0.000 A 
ATOM     29  C   UNL     1      -3.187  15.994  25.136  0.00  0.00    +0.000 A 
ATOM     30  C   UNL     1      -3.477  14.751  24.566  0.00  0.00    +0.000 A 
ENDBRANCH  22  25
ENDBRANCH  21  22
ENDBRANCH  20  21
ENDBRANCH  10  20
TORSDOF 7
ENDMDL
MODEL 7
REMARK VINA RESULT:      -7.1      1.206      1.498
REMARK  Name = 
REMARK  11 active torsions:
REMARK  status: ('A' for Active; 'I' for Inactive)
REMARK    1  A    between atoms: C_1  and  C_2
REMARK    2  A    between atoms: C_4  and  C_5
REMARK    3  A    between atoms: N_9  and  C_10
REMARK    4  A    between atoms: C_10  and  C_11
REMARK    5  A    between atoms: C_11  and  N_12
REMARK    6  A    between atoms: N_12  and  C_13
REMARK    7  A    between atoms: N_12  and  C_14
REMARK    8  A    between atoms: C_15  and  C_17
REMARK    9  A    between atoms: C_17  and  C_18
REMARK   10  A    between atoms: C_18  and  S_19
REMARK   11  A    between atoms: S_19  and  C_22
REMARK                            x       y       z     vdW  Elec       q    Type
REMARK                         _______ _______ _______ _____ _____    ______ ____
ROOT
ATOM      1  C   UNL     1      -0.993  12.514  18.709  0.00  0.00    +0.000 C 
ATOM      2  C   UNL     1      -0.400  11.325  19.403  0.00  0.00    +0.000 A 
ATOM      3  C   UNL     1      -0.617  11.126  20.789  0.00  0.00    +0.000 A 
ATOM      4  C   UNL     1      -0.076  10.004  21.437  0.00  0.00    +0.000 A 
ATOM      5  C   UNL     1      -0.289   9.729  22.900  0.00  0.00    +0.000 C 
ATOM      6  C   UNL     1       0.670   9.125  20.669  0.00  0.00    +0.000 A 
ATOM      7  S   UNL     1       1.404   7.736  21.156  0.00  0.00    +0.000 S 
ATOM      8  C   UNL     1       1.999   7.337  19.627  0.00  0.00    +0.000 A 
ATOM      9  N   UNL     1       2.755   6.149  19.281  0.00  0.00    +0.000 N 
ATOM     10  C   UNL     1       3.473   6.138  18.086  0.00  0.00    +0.000 C 
ATOM     11  O   UNL     1       3.538   7.148  17.399  0.00  0.00    +0.000 OA
ATOM     12  N   UNL     1       1.651   8.310  18.734  0.00  0.00    +0.000 NA
ATOM     13  C   UNL     1       0.901   9.293  19.323  0.00  0.00    +0.000 A 
ATOM     14  C   UNL     1       0.370  10.400  18.661  0.00  0.00    +0.000 A 
ENDROOT
BRANCH   9  15
ATOM     15  C   UNL     1       2.695   4.908  20.101  0.00  0.00    +0.000 C 
BRANCH  15  16
ATOM     16  C   UNL     1       1.769   3.769  19.635  0.00  0.00    +0.000 C 
BRANCH  16  17
ATOM     17  N   UNL     1       2.290   2.412  19.903  0.00  0.00    +0.000 NA
ATOM     18  C   UNL     1       2.978   1.814  18.751  0.00  0.00    +0.000 C 
ATOM     19  C   UNL     1       3.221   2.498  21.046  0.00  0.00    +0.000 C 
ENDBRANCH  16  17
ENDBRANCH  15  16
ENDBRANCH   9  15
BRANCH  10  20
ATOM     20  C   UNL     1       4.225   4.924  17.554  0.00  0.00    +0.000 C 
BRANCH  20  21
ATOM     21  C   UNL     1       5.735   5.174  17.543  0.00  0.00    +0.000 C 
BRANCH  21  22
ATOM     22  S   UNL     1       6.310   6.034  16.064  0.00  0.00    +0.000 S 
ATOM     23  O   UNL     1       5.443   7.275  15.801  0.00  0.00    +0.000 OA
ATOM     24  O   UNL     1       7.679   6.679  16.324  0.00  0.00    +0.000 OA
BRANCH  22  25
ATOM     25  C   UNL     1       6.421   5.036  14.585  0.00  0.00    +0.000 A 
ATOM     26  C   UNL     1       7.519   5.147  13.727  0.00  0.00    +0.000 A 
ATOM     27  C   UNL     1       7.555   4.406  12.543  0.00  0.00    +0.000 A 
ATOM     28  C   UNL     1       6.494   3.556  12.212  0.00  0.00    +0.000 A 
ATOM     29  C   UNL     1       5.395   3.445  13.068  0.00  0.00    +0.000 A 
ATOM     30  C   UNL     1       5.356   4.184  14.254  0.00  0.00    +0.000 A 
ENDBRANCH  22  25
ENDBRANCH  21  22
ENDBRANCH  20  21
ENDBRANCH  10  20
TORSDOF 7
ENDMDL
MODEL 8
REMARK VINA RESULT:      -6.8      1.154      1.384
REMARK  Name = 
REMARK  11 active torsions:
REMARK  status: ('A' for Active; 'I' for Inactive)
REMARK    1  A    between atoms: C_1  and  C_2
REMARK    2  A    between atoms: C_4  and  C_5
REMARK    3  A    between atoms: N_9  and  C_10
REMARK    4  A    between atoms: C_10  and  C_11
REMARK    5  A    between atoms: C_11  and  N_12
REMARK    6  A    between atoms: N_12  and  C_13
REMARK    7  A    between atoms: N_12  and  C_14
REMARK    8  A    between atoms: C_15  and  C_17
REMARK    9  A    between atoms: C_17  and  C_18
REMARK   10  A    between atoms: C_18  and  S_19
REMARK   11  A    between atoms: S_19  and  C_22
REMARK                            x       y       z     vdW  Elec       q    Type
REMARK                         _______ _______ _______ _____ _____    ______ ____
ROOT
ATOM      1  C   UNL     1       0.535  14.435  18.980  0.00  0.00    +0.000 C 
ATOM      2  C   UNL     1       0.593  13.007  19.433  0.00  0.00    +0.000 A 
ATOM      3  C   UNL     1      -0.104  12.599  20.597  0.00  0.00    +0.000 A 
ATOM      4  C   UNL     1      -0.063  11.258  21.013  0.00  0.00    +0.000 A 
ATOM      5  C   UNL     1      -0.797  10.762  22.228  0.00  0.00    +0.000 C 
ATOM      6  C   UNL     1       0.681  10.376  20.246  0.00  0.00    +0.000 A 
ATOM      7  S   UNL     1       0.892   8.764  20.487  0.00  0.00    +0.000 S 
ATOM      8  C   UNL     1       1.852   8.532  19.117  0.00  0.00    +0.000 A 
ATOM      9  N   UNL     1       2.401   7.272  18.654  0.00  0.00    +0.000 N 
ATOM     10  C   UNL     1       3.449   7.297  17.735  0.00  0.00    +0.000 C 
ATOM     11  O   UNL     1       3.954   8.362  17.408  0.00  0.00    +0.000 OA
ATOM     12  N   UNL     1       2.037   9.727  18.482  0.00  0.00    +0.000 NA
ATOM     13  C   UNL     1       1.371  10.744  19.114  0.00  0.00    +0.000 A 
ATOM     14  C   UNL     1       1.341  12.070  18.683  0.00  0.00    +0.000 A 
ENDROOT
BRANCH   9  15
ATOM     15  C   UNL     1       1.806   5.962  19.037  0.00  0.00    +0.000 C 
BRANCH  15  16
ATOM     16  C   UNL     1       2.349   5.253  20.292  0.00  0.00    +0.000 C 
BRANCH  16  17
ATOM     17  N   UNL     1       1.473   4.183  20.814  0.00  0.00    +0.000 NA
ATOM     18  C   UNL     1       0.961   3.287  19.768  0.00  0.00    +0.000 C 
ATOM     19  C   UNL     1       2.245   3.403  21.801  0.00  0.00    +0.000 C 
ENDBRANCH  16  17
ENDBRANCH  15  16
ENDBRANCH   9  15
BRANCH  10  20
ATOM     20  C   UNL     1       4.048   6.052  17.091  0.00  0.00    +0.000 C 
BRANCH  20  21
ATOM     21  C   UNL     1       5.512   6.282  16.707  0.00  0.00    +0.000 C 
BRANCH  21  22
ATOM     22  S   UNL     1       6.383   4.767  16.253  0.00  0.00    +0.000 S 
ATOM     23  O   UNL     1       7.685   4.642  17.059  0.00  0.00    +0.000 OA
ATOM     24  O   UNL     1       5.606   3.540  16.752  0.00  0.00    +0.000 OA
BRANCH  22  25
ATOM     25  C   UNL     1       6.716   4.563  14.509  0.00  0.00    +0.000 A 
ATOM     26  C   UNL     1       7.583   5.430  13.839  0.00  0.00    +0.000 A 
ATOM     27  C   UNL     1       7.779   5.294  12.462  0.00  0.00    +0.000 A 
ATOM     28  C   UNL     1       7.106   4.294  11.752  0.00  0.00    +0.000 A 
ATOM     29  C   UNL     1       6.237   3.427  12.419  0.00  0.00    +0.000 A 
ATOM     30  C   UNL     1       6.039   3.560  13.797  0.00  0.00    +0.000 A 
ENDBRANCH  22  25
ENDBRANCH  21  22
ENDBRANCH  20  21
ENDBRANCH  10  20
TORSDOF 7
ENDMDL
MODEL 9
REMARK VINA RESULT:      -6.7      2.055      2.882
REMARK  Name = 
REMARK  11 active torsions:
REMARK  status: ('A' for Active; 'I' for Inactive)
REMARK    1  A    between atoms: C_1  and  C_2
REMARK    2  A    between atoms: C_4  and  C_5
REMARK    3  A    between atoms: N_9  and  C_10
REMARK    4  A    between atoms: C_10  and  C_11
REMARK    5  A    between atoms: C_11  and  N_12
REMARK    6  A    between atoms: N_12  and  C_13
REMARK    7  A    between atoms: N_12  and  C_14
REMARK    8  A    between atoms: C_15  and  C_17
REMARK    9  A    between atoms: C_17  and  C_18
REMARK   10  A    between atoms: C_18  and  S_19
REMARK   11  A    between atoms: S_19  and  C_22
REMARK                            x       y       z     vdW  Elec       q    Type
REMARK                         _______ _______ _______ _____ _____    ______ ____
ROOT
ATOM      1  C   UNL     1      -1.328  12.310  18.178  0.00  0.00    +0.000 C 
ATOM      2  C   UNL     1      -0.666  11.279  19.043  0.00  0.00    +0.000 A 
ATOM      3  C   UNL     1      -0.844  11.306  20.448  0.00  0.00    +0.000 A 
ATOM      4  C   UNL     1      -0.238  10.332  21.257  0.00  0.00    +0.000 A 
ATOM      5  C   UNL     1      -0.405  10.297  22.752  0.00  0.00    +0.000 C 
ATOM      6  C   UNL     1       0.531   9.368  20.625  0.00  0.00    +0.000 A 
ATOM      7  S   UNL     1       1.338   8.112  21.315  0.00  0.00    +0.000 S 
ATOM      8  C   UNL     1       1.917   7.488  19.856  0.00  0.00    +0.000 A 
ATOM      9  N   UNL     1       2.719   6.291  19.692  0.00  0.00    +0.000 N 
ATOM     10  C   UNL     1       3.410   6.110  18.494  0.00  0.00    +0.000 C 
ATOM     11  O   UNL     1       3.414   6.993  17.647  0.00  0.00    +0.000 OA
ATOM     12  N   UNL     1       1.505   8.282  18.825  0.00  0.00    +0.000 NA
ATOM     13  C   UNL     1       0.725   9.318  19.264  0.00  0.00    +0.000 A 
ATOM     14  C   UNL     1       0.129  10.275  18.442  0.00  0.00    +0.000 A 
ENDROOT
BRANCH   9  15
ATOM     15  C   UNL     1       2.734   5.203  20.707  0.00  0.00    +0.000 C 
BRANCH  15  16
ATOM     16  C   UNL     1       2.864   3.749  20.218  0.00  0.00    +0.000 C 
BRANCH  16  17
ATOM     17  N   UNL     1       1.575   3.048  20.041  0.00  0.00    +0.000 NA
ATOM     18  C   UNL     1       1.690   1.803  19.268  0.00  0.00    +0.000 C 
ATOM     19  C   UNL     1       1.029   2.752  21.380  0.00  0.00    +0.000 C 
ENDBRANCH  16  17
ENDBRANCH  15  16
ENDBRANCH   9  15
BRANCH  10  20
ATOM     20  C   UNL     1       4.205   4.856  18.150  0.00  0.00    +0.000 C 
BRANCH  20  21
ATOM     21  C   UNL     1       4.373   4.708  16.636  0.00  0.00    +0.000 C 
BRANCH  21  22
ATOM     22  S   UNL     1       5.994   5.230  16.038  0.00  0.00    +0.000 S 
ATOM     23  O   UNL     1       6.820   4.008  15.608  0.00  0.00    +0.000 OA
ATOM     24  O   UNL     1       5.851   5.976  14.703  0.00  0.00    +0.000 OA
BRANCH  22  25
ATOM     25  C   UNL     1       6.940   6.248  17.162  0.00  0.00    +0.000 A 
ATOM     26  C   UNL     1       7.209   7.586  16.863  0.00  0.00    +0.000 A 
ATOM     27  C   UNL     1       8.006   8.347  17.723  0.00  0.00    +0.000 A 
ATOM     28  C   UNL     1       8.538   7.770  18.881  0.00  0.00    +0.000 A 
ATOM     29  C   UNL     1       8.271   6.432  19.182  0.00  0.00    +0.000 A 
ATOM     30  C   UNL     1       7.474   5.669  18.324  0.00  0.00    +0.000 A 
ENDBRANCH  22  25
ENDBRANCH  21  22
ENDBRANCH  20  21
ENDBRANCH  10  20
TORSDOF 7
ENDMDL
