MODEL 1
REMARK VINA RESULT:      -8.1      0.000      0.000
REMARK  Name = 
REMARK  9 active torsions:
REMARK  status: ('A' for Active; 'I' for Inactive)
REMARK    1  A    between atoms: N_2  and  C_4
REMARK    2  A    between atoms: C_7  and  C_8
REMARK    3  A    between atoms: C_8  and  N_9
REMARK    4  A    between atoms: C_11  and  C_12
REMARK    5  A    between atoms: C_12  and  C_13
REMARK    6  A    between atoms: C_13  and  O_14
REMARK    7  A    between atoms: C_13  and  C_15
REMARK    8  A    between atoms: C_13  and  C_21
REMARK    9  A    between atoms: C_15  and  N_16
REMARK                            x       y       z     vdW  Elec       q    Type
REMARK                         _______ _______ _______ _____ _____    ______ ____
ROOT
ATOM      1  C   UNL     1       4.687   4.140  18.532  0.00  0.00    +0.000 C 
ENDROOT
BRANCH   1   2
ATOM      2  C   UNL     1       5.430   4.373  17.198  0.00  0.00    +0.000 A 
ATOM      3  C   UNL     1       4.734   4.202  15.979  0.00  0.00    +0.000 A 
ATOM      4  C   UNL     1       5.367   4.387  14.746  0.00  0.00    +0.000 A 
ATOM      5  C   UNL     1       6.714   4.708  14.709  0.00  0.00    +0.000 A 
ATOM      6  F   UNL     1       7.326   4.857  13.527  0.00  0.00    +0.000 F 
ATOM      7  C   UNL     1       7.435   4.870  15.879  0.00  0.00    +0.000 A 
ATOM      8  C   UNL     1       6.791   4.717  17.105  0.00  0.00    +0.000 A 
ATOM      9  F   UNL     1       7.536   4.920  18.199  0.00  0.00    +0.000 F 
ENDBRANCH   1   2
BRANCH   1  10
ATOM     10  O   UNL     1       5.526   3.173  19.209  0.00  0.00    +0.000 OA
ATOM     11  H   UNL     1       6.394   3.580  19.385  0.00  0.00    +0.000 HD
ENDBRANCH   1  10
BRANCH   1  12
ATOM     12  C   UNL     1       4.569   5.414  19.419  0.00  0.00    +0.000 C 
BRANCH  12  15
ATOM     13  N   UNL     1       2.338   8.054  18.286  0.00  0.00    +0.000 N 
ATOM     14  C   UNL     1       3.372   7.227  17.960  0.00  0.00    +0.000 A 
ATOM     15  C   UNL     1       3.532   6.424  19.068  0.00  0.00    +0.000 A 
ATOM     16  N   UNL     1       2.573   6.769  19.994  0.00  0.00    +0.000 NA
ATOM     17  N   UNL     1       1.839   7.755  19.497  0.00  0.00    +0.000 NA
BRANCH  13  18
ATOM     18  C   UNL     1       1.754   9.112  17.484  0.00  0.00    +0.000 C 
BRANCH  18  22
ATOM     19  C   UNL     1      -0.597  11.828  19.879  0.00  0.00    +0.000 A 
ATOM     20  C   UNL     1      -1.228  10.794  19.178  0.00  0.00    +0.000 A 
ATOM     21  C   UNL     1      -0.462   9.916  18.402  0.00  0.00    +0.000 A 
ATOM     22  C   UNL     1       0.927  10.065  18.322  0.00  0.00    +0.000 A 
ATOM     23  C   UNL     1       1.550  11.106  19.035  0.00  0.00    +0.000 A 
ATOM     24  C   UNL     1       0.791  11.987  19.813  0.00  0.00    +0.000 A 
BRANCH  19  26
ATOM     25  O   UNL     1      -1.190  13.968  20.553  0.00  0.00    +0.000 OA
ATOM     26  N   UNL     1      -1.399  12.753  20.689  0.00  0.00    +0.000 N 
ATOM     27  O   UNL     1      -2.241  12.267  21.458  0.00  0.00    +0.000 OA
ENDBRANCH  19  26
ENDBRANCH  18  22
ENDBRANCH  13  18
ENDBRANCH  12  15
ENDBRANCH   1  12
BRANCH   1  28
ATOM     28  C   UNL     1       3.325   3.444  18.283  0.00  0.00    +0.000 C 
BRANCH  28  29
ATOM     29  N   UNL     1       2.496   3.251  19.447  0.00  0.00    +0.000 N 
ATOM     30  C   UNL     1       1.163   3.500  19.573  0.00  0.00    +0.000 A 
ATOM     31  N   UNL     1       0.751   3.080  20.746  0.00  0.00    +0.000 NA
ATOM     32  C   UNL     1       1.883   2.561  21.302  0.00  0.00    +0.000 A 
ATOM     33  N   UNL     1       2.977   2.632  20.538  0.00  0.00    +0.000 NA
ENDBRANCH  28  29
ENDBRANCH   1  28
TORSDOF 9
ENDMDL
MODEL 2
REMARK VINA RESULT:      -8.1      2.327      3.257
REMARK  Name = 
REMARK  9 active torsions:
REMARK  status: ('A' for Active; 'I' for Inactive)
REMARK    1  A    between atoms: N_2  and  C_4
REMARK    2  A    between atoms: C_7  and  C_8
REMARK    3  A    between atoms: C_8  and  N_9
REMARK    4  A    between atoms: C_11  and  C_12
REMARK    5  A    between atoms: C_12  and  C_13
REMARK    6  A    between atoms: C_13  and  O_14
REMARK    7  A    between atoms: C_13  and  C_15
REMARK    8  A    between atoms: C_13  and  C_21
REMARK    9  A    between atoms: C_15  and  N_16
REMARK                            x       y       z     vdW  Elec       q    Type
REMARK                         _______ _______ _______ _____ _____    ______ ____
ROOT
ATOM      1  C   UNL     1       3.259   6.107  18.483  0.00  0.00    +0.000 C 
ENDROOT
BRANCH   1   2
ATOM      2  C   UNL     1       4.671   5.529  18.239  0.00  0.00    +0.000 A 
ATOM      3  C   UNL     1       5.624   5.565  19.282  0.00  0.00    +0.000 A 
ATOM      4  C   UNL     1       6.918   5.067  19.105  0.00  0.00    +0.000 A 
ATOM      5  C   UNL     1       7.295   4.560  17.871  0.00  0.00    +0.000 A 
ATOM      6  F   UNL     1       8.543   4.109  17.694  0.00  0.00    +0.000 F 
ATOM      7  C   UNL     1       6.396   4.519  16.820  0.00  0.00    +0.000 A 
ATOM      8  C   UNL     1       5.097   4.986  17.012  0.00  0.00    +0.000 A 
ATOM      9  F   UNL     1       4.268   4.889  15.966  0.00  0.00    +0.000 F 
ENDBRANCH   1   2
BRANCH   1  10
ATOM     10  O   UNL     1       3.225   6.287  19.921  0.00  0.00    +0.000 OA
ATOM     11  H   UNL     1       2.650   5.602  20.308  0.00  0.00    +0.000 HD
ENDBRANCH   1  10
BRANCH   1  12
ATOM     12  C   UNL     1       3.014   7.483  17.798  0.00  0.00    +0.000 C 
BRANCH  12  15
ATOM     13  N   UNL     1       1.009  10.172  19.206  0.00  0.00    +0.000 N 
ATOM     14  C   UNL     1       1.687   9.717  18.114  0.00  0.00    +0.000 A 
ATOM     15  C   UNL     1       2.110   8.456  18.474  0.00  0.00    +0.000 A 
ATOM     16  N   UNL     1       1.643   8.189  19.741  0.00  0.00    +0.000 NA
ATOM     17  N   UNL     1       0.957   9.239  20.171  0.00  0.00    +0.000 NA
BRANCH  13  18
ATOM     18  C   UNL     1       0.358  11.457  19.381  0.00  0.00    +0.000 C 
BRANCH  18  22
ATOM     19  C   UNL     1      -3.803  11.316  18.236  0.00  0.00    +0.000 A 
ATOM     20  C   UNL     1      -3.399  12.144  19.290  0.00  0.00    +0.000 A 
ATOM     21  C   UNL     1      -2.049  12.186  19.658  0.00  0.00    +0.000 A 
ATOM     22  C   UNL     1      -1.103  11.407  18.982  0.00  0.00    +0.000 A 
ATOM     23  C   UNL     1      -1.521  10.582  17.922  0.00  0.00    +0.000 A 
ATOM     24  C   UNL     1      -2.868  10.536  17.548  0.00  0.00    +0.000 A 
BRANCH  19  26
ATOM     25  O   UNL     1      -5.965  10.515  18.498  0.00  0.00    +0.000 OA
ATOM     26  N   UNL     1      -5.219  11.267  17.852  0.00  0.00    +0.000 N 
ATOM     27  O   UNL     1      -5.587  11.982  16.910  0.00  0.00    +0.000 OA
ENDBRANCH  19  26
ENDBRANCH  18  22
ENDBRANCH  13  18
ENDBRANCH  12  15
ENDBRANCH   1  12
BRANCH   1  28
ATOM     28  C   UNL     1       2.173   5.056  18.144  0.00  0.00    +0.000 C 
BRANCH  28  29
ATOM     29  N   UNL     1       1.898   4.083  19.173  0.00  0.00    +0.000 N 
ATOM     30  C   UNL     1       2.409   2.826  19.292  0.00  0.00    +0.000 A 
ATOM     31  N   UNL     1       2.012   2.300  20.425  0.00  0.00    +0.000 NA
ATOM     32  C   UNL     1       1.261   3.295  20.981  0.00  0.00    +0.000 A 
ATOM     33  N   UNL     1       1.172   4.413  20.254  0.00  0.00    +0.000 NA
ENDBRANCH  28  29
ENDBRANCH   1  28
TORSDOF 9
ENDMDL
MODEL 3
REMARK VINA RESULT:      -8.1      1.097      1.473
REMARK  Name = 
REMARK  9 active torsions:
REMARK  status: ('A' for Active; 'I' for Inactive)
REMARK    1  A    between atoms: N_2  and  C_4
REMARK    2  A    between atoms: C_7  and  C_8
REMARK    3  A    between atoms: C_8  and  N_9
REMARK    4  A    between atoms: C_11  and  C_12
REMARK    5  A    between atoms: C_12  and  C_13
REMARK    6  A    between atoms: C_13  and  O_14
REMARK    7  A    between atoms: C_13  and  C_15
REMARK    8  A    between atoms: C_13  and  C_21
REMARK    9  A    between atoms: C_15  and  N_16
REMARK                            x       y       z     vdW  Elec       q    Type
REMARK                         _______ _______ _______ _____ _____    ______ ____
ROOT
ATOM      1  C   UNL     1       4.727   4.268  18.491  0.00  0.00    +0.000 C 
ENDROOT
BRANCH   1   2
ATOM      2  C   UNL     1       5.462   4.462  17.146  0.00  0.00    +0.000 A 
ATOM      3  C   UNL     1       4.786   4.168  15.939  0.00  0.00    +0.000 A 
ATOM      4  C   UNL     1       5.412   4.314  14.698  0.00  0.00    +0.000 A 
ATOM      5  C   UNL     1       6.737   4.718  14.642  0.00  0.00    +0.000 A 
ATOM      6  F   UNL     1       7.344   4.831  13.455  0.00  0.00    +0.000 F 
ATOM      7  C   UNL     1       7.438   5.002  15.801  0.00  0.00    +0.000 A 
ATOM      8  C   UNL     1       6.798   4.887  17.033  0.00  0.00    +0.000 A 
ATOM      9  F   UNL     1       7.522   5.207  18.113  0.00  0.00    +0.000 F 
ENDBRANCH   1   2
BRANCH   1  10
ATOM     10  O   UNL     1       5.617   3.391  19.225  0.00  0.00    +0.000 OA
ATOM     11  H   UNL     1       5.166   2.540  19.373  0.00  0.00    +0.000 HD
ENDBRANCH   1  10
BRANCH   1  12
ATOM     12  C   UNL     1       4.536   5.584  19.300  0.00  0.00    +0.000 C 
BRANCH  12  15
ATOM     13  N   UNL     1       2.208   8.053  17.987  0.00  0.00    +0.000 N 
ATOM     14  C   UNL     1       2.482   7.179  18.998  0.00  0.00    +0.000 A 
ATOM     15  C   UNL     1       3.727   6.676  18.688  0.00  0.00    +0.000 A 
ATOM     16  N   UNL     1       4.166   7.288  17.536  0.00  0.00    +0.000 NA
ATOM     17  N   UNL     1       3.235   8.139  17.127  0.00  0.00    +0.000 NA
BRANCH  13  18
ATOM     18  C   UNL     1       1.016   8.858  17.804  0.00  0.00    +0.000 C 
BRANCH  18  22
ATOM     19  C   UNL     1       0.965  12.284  20.431  0.00  0.00    +0.000 A 
ATOM     20  C   UNL     1       1.731  12.317  19.259  0.00  0.00    +0.000 A 
ATOM     21  C   UNL     1       1.746  11.204  18.411  0.00  0.00    +0.000 A 
ATOM     22  C   UNL     1       1.001  10.061  18.725  0.00  0.00    +0.000 A 
ATOM     23  C   UNL     1       0.231  10.042  19.903  0.00  0.00    +0.000 A 
ATOM     24  C   UNL     1       0.212  11.151  20.755  0.00  0.00    +0.000 A 
BRANCH  19  26
ATOM     25  O   UNL     1       1.734  14.378  21.070  0.00  0.00    +0.000 OA
ATOM     26  N   UNL     1       0.953  13.449  21.324  0.00  0.00    +0.000 N 
ATOM     27  O   UNL     1       0.159  13.439  22.276  0.00  0.00    +0.000 OA
ENDBRANCH  19  26
ENDBRANCH  18  22
ENDBRANCH  13  18
ENDBRANCH  12  15
ENDBRANCH   1  12
BRANCH   1  28
ATOM     28  C   UNL     1       3.408   3.483  18.283  0.00  0.00    +0.000 C 
BRANCH  28  29
ATOM     29  N   UNL     1       2.582   3.321  19.454  0.00  0.00    +0.000 N 
ATOM     30  C   UNL     1       1.275   3.668  19.609  0.00  0.00    +0.000 A 
ATOM     31  N   UNL     1       0.847   3.247  20.776  0.00  0.00    +0.000 NA
ATOM     32  C   UNL     1       1.943   2.625  21.299  0.00  0.00    +0.000 A 
ATOM     33  N   UNL     1       3.029   2.634  20.519  0.00  0.00    +0.000 NA
ENDBRANCH  28  29
ENDBRANCH   1  28
TORSDOF 9
ENDMDL
MODEL 4
REMARK VINA RESULT:      -8.0      2.414      3.302
REMARK  Name = 
REMARK  9 active torsions:
REMARK  status: ('A' for Active; 'I' for Inactive)
REMARK    1  A    between atoms: N_2  and  C_4
REMARK    2  A    between atoms: C_7  and  C_8
REMARK    3  A    between atoms: C_8  and  N_9
REMARK    4  A    between atoms: C_11  and  C_12
REMARK    5  A    between atoms: C_12  and  C_13
REMARK    6  A    between atoms: C_13  and  O_14
REMARK    7  A    between atoms: C_13  and  C_15
REMARK    8  A    between atoms: C_13  and  C_21
REMARK    9  A    between atoms: C_15  and  N_16
REMARK                            x       y       z     vdW  Elec       q    Type
REMARK                         _______ _______ _______ _____ _____    ______ ____
ROOT
ATOM      1  C   UNL     1       3.168   6.410  18.451  0.00  0.00    +0.000 C 
ENDROOT
BRANCH   1   2
ATOM      2  C   UNL     1       4.559   5.792  18.185  0.00  0.00    +0.000 A 
ATOM      3  C   UNL     1       5.284   5.228  19.261  0.00  0.00    +0.000 A 
ATOM      4  C   UNL     1       6.551   4.670  19.073  0.00  0.00    +0.000 A 
ATOM      5  C   UNL     1       7.134   4.701  17.816  0.00  0.00    +0.000 A 
ATOM      6  F   UNL     1       8.360   4.192  17.643  0.00  0.00    +0.000 F 
ATOM      7  C   UNL     1       6.465   5.256  16.740  0.00  0.00    +0.000 A 
ATOM      8  C   UNL     1       5.187   5.780  16.926  0.00  0.00    +0.000 A 
ATOM      9  F   UNL     1       4.580   6.273  15.839  0.00  0.00    +0.000 F 
ENDBRANCH   1   2
BRANCH   1  10
ATOM     10  O   UNL     1       3.127   6.511  19.896  0.00  0.00    +0.000 OA
ATOM     11  H   UNL     1       4.037   6.615  20.229  0.00  0.00    +0.000 HD
ENDBRANCH   1  10
BRANCH   1  12
ATOM     12  C   UNL     1       2.981   7.830  17.842  0.00  0.00    +0.000 C 
BRANCH  12  15
ATOM     13  N   UNL     1       0.844  10.426  19.231  0.00  0.00    +0.000 N 
ATOM     14  C   UNL     1       1.582  10.020  18.158  0.00  0.00    +0.000 A 
ATOM     15  C   UNL     1       2.023   8.760  18.503  0.00  0.00    +0.000 A 
ATOM     16  N   UNL     1       1.508   8.445  19.740  0.00  0.00    +0.000 NA
ATOM     17  N   UNL     1       0.776   9.465  20.167  0.00  0.00    +0.000 NA
BRANCH  13  18
ATOM     18  C   UNL     1       0.152  11.688  19.411  0.00  0.00    +0.000 C 
BRANCH  18  22
ATOM     19  C   UNL     1      -4.011  11.412  18.302  0.00  0.00    +0.000 A 
ATOM     20  C   UNL     1      -3.049  10.698  17.578  0.00  0.00    +0.000 A 
ATOM     21  C   UNL     1      -1.701  10.791  17.940  0.00  0.00    +0.000 A 
ATOM     22  C   UNL     1      -1.308  11.591  19.019  0.00  0.00    +0.000 A 
ATOM     23  C   UNL     1      -2.285  12.300  19.742  0.00  0.00    +0.000 A 
ATOM     24  C   UNL     1      -3.634  12.212  19.386  0.00  0.00    +0.000 A 
BRANCH  19  26
ATOM     25  O   UNL     1      -5.851  12.130  17.085  0.00  0.00    +0.000 OA
ATOM     26  N   UNL     1      -5.426  11.319  17.921  0.00  0.00    +0.000 N 
ATOM     27  O   UNL     1      -6.111  10.433  18.451  0.00  0.00    +0.000 OA
ENDBRANCH  19  26
ENDBRANCH  18  22
ENDBRANCH  13  18
ENDBRANCH  12  15
ENDBRANCH   1  12
BRANCH   1  28
ATOM     28  C   UNL     1       2.046   5.421  18.046  0.00  0.00    +0.000 C 
BRANCH  28  29
ATOM     29  N   UNL     1       1.811   4.330  18.959  0.00  0.00    +0.000 N 
ATOM     30  C   UNL     1       2.297   3.060  18.886  0.00  0.00    +0.000 A 
ATOM     31  N   UNL     1       1.957   2.400  19.968  0.00  0.00    +0.000 NA
ATOM     32  C   UNL     1       1.266   3.329  20.691  0.00  0.00    +0.000 A 
ATOM     33  N   UNL     1       1.160   4.532  20.118  0.00  0.00    +0.000 NA
ENDBRANCH  28  29
ENDBRANCH   1  28
TORSDOF 9
ENDMDL
MODEL 5
REMARK VINA RESULT:      -8.0      2.953      4.858
REMARK  Name = 
REMARK  9 active torsions:
REMARK  status: ('A' for Active; 'I' for Inactive)
REMARK    1  A    between atoms: N_2  and  C_4
REMARK    2  A    between atoms: C_7  and  C_8
REMARK    3  A    between atoms: C_8  and  N_9
REMARK    4  A    between atoms: C_11  and  C_12
REMARK    5  A    between atoms: C_12  and  C_13
REMARK    6  A    between atoms: C_13  and  O_14
REMARK    7  A    between atoms: C_13  and  C_15
REMARK    8  A    between atoms: C_13  and  C_21
REMARK    9  A    between atoms: C_15  and  N_16
REMARK                            x       y       z     vdW  Elec       q    Type
REMARK                         _______ _______ _______ _____ _____    ______ ____
ROOT
ATOM      1  C   UNL     1       2.847   4.920  17.934  0.00  0.00    +0.000 C 
ENDROOT
BRANCH   1   2
ATOM      2  C   UNL     1       2.476   4.064  19.165  0.00  0.00    +0.000 A 
ATOM      3  C   UNL     1       1.113   3.882  19.496  0.00  0.00    +0.000 A 
ATOM      4  C   UNL     1       0.727   3.129  20.608  0.00  0.00    +0.000 A 
ATOM      5  C   UNL     1       1.695   2.576  21.431  0.00  0.00    +0.000 A 
ATOM      6  F   UNL     1       1.325   1.879  22.512  0.00  0.00    +0.000 F 
ATOM      7  C   UNL     1       3.040   2.743  21.151  0.00  0.00    +0.000 A 
ATOM      8  C   UNL     1       3.418   3.466  20.022  0.00  0.00    +0.000 A 
ATOM      9  F   UNL     1       4.733   3.563  19.788  0.00  0.00    +0.000 F 
ENDBRANCH   1   2
BRANCH   1  10
ATOM     10  O   UNL     1       1.560   5.195  17.327  0.00  0.00    +0.000 OA
ATOM     11  H   UNL     1       1.683   5.298  16.366  0.00  0.00    +0.000 HD
ENDBRANCH   1  10
BRANCH   1  12
ATOM     12  C   UNL     1       3.535   6.270  18.289  0.00  0.00    +0.000 C 
BRANCH  12  15
ATOM     13  N   UNL     1       1.703   9.332  19.001  0.00  0.00    +0.000 N 
ATOM     14  C   UNL     1       2.479   8.658  18.104  0.00  0.00    +0.000 A 
ATOM     15  C   UNL     1       2.672   7.421  18.679  0.00  0.00    +0.000 A 
ATOM     16  N   UNL     1       1.981   7.384  19.869  0.00  0.00    +0.000 NA
ATOM     17  N   UNL     1       1.380   8.552  20.046  0.00  0.00    +0.000 NA
BRANCH  13  18
ATOM     18  C   UNL     1       1.207  10.691  18.907  0.00  0.00    +0.000 C 
BRANCH  18  22
ATOM     19  C   UNL     1      -2.982  10.803  17.868  0.00  0.00    +0.000 A 
ATOM     20  C   UNL     1      -2.484  11.675  18.843  0.00  0.00    +0.000 A 
ATOM     21  C   UNL     1      -1.125  11.635  19.177  0.00  0.00    +0.000 A 
ATOM     22  C   UNL     1      -0.264  10.731  18.545  0.00  0.00    +0.000 A 
ATOM     23  C   UNL     1      -0.776   9.863  17.564  0.00  0.00    +0.000 A 
ATOM     24  C   UNL     1      -2.133   9.898  17.224  0.00  0.00    +0.000 A 
BRANCH  19  26
ATOM     25  O   UNL     1      -4.706  11.074  16.339  0.00  0.00    +0.000 OA
ATOM     26  N   UNL     1      -4.408  10.840  17.520  0.00  0.00    +0.000 N 
ATOM     27  O   UNL     1      -5.229  10.631  18.423  0.00  0.00    +0.000 OA
ENDBRANCH  19  26
ENDBRANCH  18  22
ENDBRANCH  13  18
ENDBRANCH  12  15
ENDBRANCH   1  12
BRANCH   1  28
ATOM     28  C   UNL     1       3.647   4.079  16.907  0.00  0.00    +0.000 C 
BRANCH  28  29
ATOM     29  N   UNL     1       4.933   4.610  16.528  0.00  0.00    +0.000 N 
ATOM     30  C   UNL     1       5.197   5.595  15.626  0.00  0.00    +0.000 A 
ATOM     31  N   UNL     1       6.478   5.878  15.651  0.00  0.00    +0.000 NA
ATOM     32  C   UNL     1       6.960   5.036  16.611  0.00  0.00    +0.000 A 
ATOM     33  N   UNL     1       6.047   4.246  17.186  0.00  0.00    +0.000 NA
ENDBRANCH  28  29
ENDBRANCH   1  28
TORSDOF 9
ENDMDL
MODEL 6
REMARK VINA RESULT:      -8.0      2.094      2.679
REMARK  Name = 
REMARK  9 active torsions:
REMARK  status: ('A' for Active; 'I' for Inactive)
REMARK    1  A    between atoms: N_2  and  C_4
REMARK    2  A    between atoms: C_7  and  C_8
REMARK    3  A    between atoms: C_8  and  N_9
REMARK    4  A    between atoms: C_11  and  C_12
REMARK    5  A    between atoms: C_12  and  C_13
REMARK    6  A    between atoms: C_13  and  O_14
REMARK    7  A    between atoms: C_13  and  C_15
REMARK    8  A    between atoms: C_13  and  C_21
REMARK    9  A    between atoms: C_15  and  N_16
REMARK                            x       y       z     vdW  Elec       q    Type
REMARK                         _______ _______ _______ _____ _____    ______ ____
ROOT
ATOM      1  C   UNL     1       4.133   5.077  18.897  0.00  0.00    +0.000 C 
ENDROOT
BRANCH   1   2
ATOM      2  C   UNL     1       5.014   5.031  17.630  0.00  0.00    +0.000 A 
ATOM      3  C   UNL     1       6.205   5.793  17.586  0.00  0.00    +0.000 A 
ATOM      4  C   UNL     1       7.029   5.795  16.457  0.00  0.00    +0.000 A 
ATOM      5  C   UNL     1       6.658   5.067  15.337  0.00  0.00    +0.000 A 
ATOM      6  F   UNL     1       7.432   5.092  14.246  0.00  0.00    +0.000 F 
ATOM      7  C   UNL     1       5.493   4.320  15.333  0.00  0.00    +0.000 A 
ATOM      8  C   UNL     1       4.693   4.295  16.474  0.00  0.00    +0.000 A 
ATOM      9  F   UNL     1       3.598   3.528  16.418  0.00  0.00    +0.000 F 
ENDBRANCH   1   2
BRANCH   1  10
ATOM     10  O   UNL     1       4.832   6.020  19.747  0.00  0.00    +0.000 OA
ATOM     11  H   UNL     1       4.548   6.922  19.514  0.00  0.00    +0.000 HD
ENDBRANCH   1  10
BRANCH   1  12
ATOM     12  C   UNL     1       2.690   5.603  18.643  0.00  0.00    +0.000 C 
BRANCH  12  15
ATOM     13  N   UNL     1       1.799   9.123  18.876  0.00  0.00    +0.000 N 
ATOM     14  C   UNL     1       1.797   7.910  19.500  0.00  0.00    +0.000 A 
ATOM     15  C   UNL     1       2.468   7.077  18.631  0.00  0.00    +0.000 A 
ATOM     16  N   UNL     1       2.877   7.821  17.547  0.00  0.00    +0.000 NA
ATOM     17  N   UNL     1       2.476   9.073  17.717  0.00  0.00    +0.000 NA
BRANCH  13  18
ATOM     18  C   UNL     1       1.215  10.367  19.342  0.00  0.00    +0.000 C 
BRANCH  18  22
ATOM     19  C   UNL     1      -2.823  10.880  17.902  0.00  0.00    +0.000 A 
ATOM     20  C   UNL     1      -2.374  11.627  18.998  0.00  0.00    +0.000 A 
ATOM     21  C   UNL     1      -1.065  11.457  19.462  0.00  0.00    +0.000 A 
ATOM     22  C   UNL     1      -0.203  10.547  18.839  0.00  0.00    +0.000 A 
ATOM     23  C   UNL     1      -0.664   9.805  17.737  0.00  0.00    +0.000 A 
ATOM     24  C   UNL     1      -1.971   9.970  17.268  0.00  0.00    +0.000 A 
BRANCH  19  26
ATOM     25  O   UNL     1      -5.122  10.773  18.195  0.00  0.00    +0.000 OA
ATOM     26  N   UNL     1      -4.197  11.053  17.418  0.00  0.00    +0.000 N 
ATOM     27  O   UNL     1      -4.355  11.474  16.263  0.00  0.00    +0.000 OA
ENDBRANCH  19  26
ENDBRANCH  18  22
ENDBRANCH  13  18
ENDBRANCH  12  15
ENDBRANCH   1  12
BRANCH   1  28
ATOM     28  C   UNL     1       4.163   3.714  19.633  0.00  0.00    +0.000 C 
BRANCH  28  29
ATOM     29  N   UNL     1       2.886   3.209  20.072  0.00  0.00    +0.000 N 
ATOM     30  C   UNL     1       2.303   3.362  21.293  0.00  0.00    +0.000 A 
ATOM     31  N   UNL     1       1.090   2.863  21.262  0.00  0.00    +0.000 NA
ATOM     32  C   UNL     1       0.971   2.423  19.976  0.00  0.00    +0.000 A 
ATOM     33  N   UNL     1       2.043   2.624  19.204  0.00  0.00    +0.000 NA
ENDBRANCH  28  29
ENDBRANCH   1  28
TORSDOF 9
ENDMDL
MODEL 7
REMARK VINA RESULT:      -7.9      3.153      5.064
REMARK  Name = 
REMARK  9 active torsions:
REMARK  status: ('A' for Active; 'I' for Inactive)
REMARK    1  A    between atoms: N_2  and  C_4
REMARK    2  A    between atoms: C_7  and  C_8
REMARK    3  A    between atoms: C_8  and  N_9
REMARK    4  A    between atoms: C_11  and  C_12
REMARK    5  A    between atoms: C_12  and  C_13
REMARK    6  A    between atoms: C_13  and  O_14
REMARK    7  A    between atoms: C_13  and  C_15
REMARK    8  A    between atoms: C_13  and  C_21
REMARK    9  A    between atoms: C_15  and  N_16
REMARK                            x       y       z     vdW  Elec       q    Type
REMARK                         _______ _______ _______ _____ _____    ______ ____
ROOT
ATOM      1  C   UNL     1       3.302   5.220  18.290  0.00  0.00    +0.000 C 
ENDROOT
BRANCH   1   2
ATOM      2  C   UNL     1       2.550   4.421  19.377  0.00  0.00    +0.000 A 
ATOM      3  C   UNL     1       2.995   4.485  20.718  0.00  0.00    +0.000 A 
ATOM      4  C   UNL     1       2.356   3.770  21.734  0.00  0.00    +0.000 A 
ATOM      5  C   UNL     1       1.286   2.946  21.423  0.00  0.00    +0.000 A 
ATOM      6  F   UNL     1       0.692   2.239  22.392  0.00  0.00    +0.000 F 
ATOM      7  C   UNL     1       0.828   2.843  20.121  0.00  0.00    +0.000 A 
ATOM      8  C   UNL     1       1.447   3.586  19.118  0.00  0.00    +0.000 A 
ATOM      9  F   UNL     1       0.936   3.467  17.886  0.00  0.00    +0.000 F 
ENDBRANCH   1   2
BRANCH   1  10
ATOM     10  O   UNL     1       3.773   4.186  17.392  0.00  0.00    +0.000 OA
ATOM     11  H   UNL     1       4.496   3.698  17.827  0.00  0.00    +0.000 HD
ENDBRANCH   1  10
BRANCH   1  12
ATOM     12  C   UNL     1       2.399   6.207  17.494  0.00  0.00    +0.000 C 
BRANCH  12  15
ATOM     13  N   UNL     1       1.473   9.349  19.077  0.00  0.00    +0.000 N 
ATOM     14  C   UNL     1       1.459   7.988  19.166  0.00  0.00    +0.000 A 
ATOM     15  C   UNL     1       2.167   7.565  18.061  0.00  0.00    +0.000 A 
ATOM     16  N   UNL     1       2.606   8.676  17.377  0.00  0.00    +0.000 NA
ATOM     17  N   UNL     1       2.190   9.760  18.017  0.00  0.00    +0.000 NA
BRANCH  13  18
ATOM     18  C   UNL     1       0.864  10.308  19.978  0.00  0.00    +0.000 C 
BRANCH  18  22
ATOM     19  C   UNL     1      -3.037  11.546  18.601  0.00  0.00    +0.000 A 
ATOM     20  C   UNL     1      -2.458  12.174  19.710  0.00  0.00    +0.000 A 
ATOM     21  C   UNL     1      -1.194  11.770  20.154  0.00  0.00    +0.000 A 
ATOM     22  C   UNL     1      -0.506  10.743  19.497  0.00  0.00    +0.000 A 
ATOM     23  C   UNL     1      -1.095  10.122  18.381  0.00  0.00    +0.000 A 
ATOM     24  C   UNL     1      -2.358  10.522  17.932  0.00  0.00    +0.000 A 
BRANCH  19  26
ATOM     25  O   UNL     1      -4.628  11.817  16.935  0.00  0.00    +0.000 OA
ATOM     26  N   UNL     1      -4.364  11.965  18.137  0.00  0.00    +0.000 N 
ATOM     27  O   UNL     1      -5.146  12.438  18.974  0.00  0.00    +0.000 OA
ENDBRANCH  19  26
ENDBRANCH  18  22
ENDBRANCH  13  18
ENDBRANCH  12  15
ENDBRANCH   1  12
BRANCH   1  28
ATOM     28  C   UNL     1       4.563   5.895  18.886  0.00  0.00    +0.000 C 
BRANCH  28  29
ATOM     29  N   UNL     1       5.804   5.621  18.203  0.00  0.00    +0.000 N 
ATOM     30  C   UNL     1       6.457   6.412  17.308  0.00  0.00    +0.000 A 
ATOM     31  N   UNL     1       7.611   5.868  17.006  0.00  0.00    +0.000 NA
ATOM     32  C   UNL     1       7.625   4.734  17.766  0.00  0.00    +0.000 A 
ATOM     33  N   UNL     1       6.542   4.545  18.526  0.00  0.00    +0.000 NA
ENDBRANCH  28  29
ENDBRANCH   1  28
TORSDOF 9
ENDMDL
MODEL 8
REMARK VINA RESULT:      -7.9      1.861      2.242
REMARK  Name = 
REMARK  9 active torsions:
REMARK  status: ('A' for Active; 'I' for Inactive)
REMARK    1  A    between atoms: N_2  and  C_4
REMARK    2  A    between atoms: C_7  and  C_8
REMARK    3  A    between atoms: C_8  and  N_9
REMARK    4  A    between atoms: C_11  and  C_12
REMARK    5  A    between atoms: C_12  and  C_13
REMARK    6  A    between atoms: C_13  and  O_14
REMARK    7  A    between atoms: C_13  and  C_15
REMARK    8  A    between atoms: C_13  and  C_21
REMARK    9  A    between atoms: C_15  and  N_16
REMARK                            x       y       z     vdW  Elec       q    Type
REMARK                         _______ _______ _______ _____ _____    ______ ____
ROOT
ATOM      1  C   UNL     1       4.085   4.983  18.745  0.00  0.00    +0.000 C 
ENDROOT
BRANCH   1   2
ATOM      2  C   UNL     1       5.047   4.969  17.537  0.00  0.00    +0.000 A 
ATOM      3  C   UNL     1       6.207   5.777  17.566  0.00  0.00    +0.000 A 
ATOM      4  C   UNL     1       7.101   5.810  16.492  0.00  0.00    +0.000 A 
ATOM      5  C   UNL     1       6.832   5.066  15.354  0.00  0.00    +0.000 A 
ATOM      6  F   UNL     1       7.673   5.120  14.314  0.00  0.00    +0.000 F 
ATOM      7  C   UNL     1       5.700   4.274  15.279  0.00  0.00    +0.000 A 
ATOM      8  C   UNL     1       4.831   4.219  16.366  0.00  0.00    +0.000 A 
ATOM      9  F   UNL     1       3.772   3.408  16.243  0.00  0.00    +0.000 F 
ENDBRANCH   1   2
BRANCH   1  10
ATOM     10  O   UNL     1       4.662   5.990  19.611  0.00  0.00    +0.000 OA
ATOM     11  H   UNL     1       4.155   6.817  19.511  0.00  0.00    +0.000 HD
ENDBRANCH   1  10
BRANCH   1  12
ATOM     12  C   UNL     1       2.629   5.400  18.387  0.00  0.00    +0.000 C 
BRANCH  12  15
ATOM     13  N   UNL     1       1.780   8.907  18.859  0.00  0.00    +0.000 N 
ATOM     14  C   UNL     1       2.068   7.922  17.961  0.00  0.00    +0.000 A 
ATOM     15  C   UNL     1       2.188   6.783  18.728  0.00  0.00    +0.000 A 
ATOM     16  N   UNL     1       1.933   7.116  20.039  0.00  0.00    +0.000 NA
ATOM     17  N   UNL     1       1.668   8.413  20.104  0.00  0.00    +0.000 NA
BRANCH  13  18
ATOM     18  C   UNL     1       1.561  10.316  18.598  0.00  0.00    +0.000 C 
BRANCH  18  22
ATOM     19  C   UNL     1      -2.642  11.275  18.361  0.00  0.00    +0.000 A 
ATOM     20  C   UNL     1      -2.136  10.180  17.649  0.00  0.00    +0.000 A 
ATOM     21  C   UNL     1      -0.773   9.874  17.728  0.00  0.00    +0.000 A 
ATOM     22  C   UNL     1       0.086  10.652  18.512  0.00  0.00    +0.000 A 
ATOM     23  C   UNL     1      -0.434  11.747  19.226  0.00  0.00    +0.000 A 
ATOM     24  C   UNL     1      -1.796  12.059  19.152  0.00  0.00    +0.000 A 
BRANCH  19  26
ATOM     25  O   UNL     1      -4.658  11.340  17.214  0.00  0.00    +0.000 OA
ATOM     26  N   UNL     1      -4.070  11.601  18.275  0.00  0.00    +0.000 N 
ATOM     27  O   UNL     1      -4.607  12.112  19.268  0.00  0.00    +0.000 OA
ENDBRANCH  19  26
ENDBRANCH  18  22
ENDBRANCH  13  18
ENDBRANCH  12  15
ENDBRANCH   1  12
BRANCH   1  28
ATOM     28  C   UNL     1       4.161   3.642  19.518  0.00  0.00    +0.000 C 
BRANCH  28  29
ATOM     29  N   UNL     1       2.918   3.163  20.069  0.00  0.00    +0.000 N 
ATOM     30  C   UNL     1       2.370   3.463  21.278  0.00  0.00    +0.000 A 
ATOM     31  N   UNL     1       1.175   2.928  21.361  0.00  0.00    +0.000 NA
ATOM     32  C   UNL     1       1.029   2.314  20.151  0.00  0.00    +0.000 A 
ATOM     33  N   UNL     1       2.068   2.440  19.320  0.00  0.00    +0.000 NA
ENDBRANCH  28  29
ENDBRANCH   1  28
TORSDOF 9
ENDMDL
MODEL 9
REMARK VINA RESULT:      -7.7      1.826      2.250
REMARK  Name = 
REMARK  9 active torsions:
REMARK  status: ('A' for Active; 'I' for Inactive)
REMARK    1  A    between atoms: N_2  and  C_4
REMARK    2  A    between atoms: C_7  and  C_8
REMARK    3  A    between atoms: C_8  and  N_9
REMARK    4  A    between atoms: C_11  and  C_12
REMARK    5  A    between atoms: C_12  and  C_13
REMARK    6  A    between atoms: C_13  and  O_14
REMARK    7  A    between atoms: C_13  and  C_15
REMARK    8  A    between atoms: C_13  and  C_21
REMARK    9  A    between atoms: C_15  and  N_16
REMARK                            x       y       z     vdW  Elec       q    Type
REMARK                         _______ _______ _______ _____ _____    ______ ____
ROOT
ATOM      1  C   UNL     1       4.074   4.745  18.637  0.00  0.00    +0.000 C 
ENDROOT
BRANCH   1   2
ATOM      2  C   UNL     1       5.107   4.827  17.491  0.00  0.00    +0.000 A 
ATOM      3  C   UNL     1       4.653   4.882  16.153  0.00  0.00    +0.000 A 
ATOM      4  C   UNL     1       5.548   4.942  15.081  0.00  0.00    +0.000 A 
ATOM      5  C   UNL     1       6.912   4.910  15.324  0.00  0.00    +0.000 A 
ATOM      6  F   UNL     1       7.768   4.939  14.296  0.00  0.00    +0.000 F 
ATOM      7  C   UNL     1       7.397   4.842  16.618  0.00  0.00    +0.000 A 
ATOM      8  C   UNL     1       6.501   4.817  17.684  0.00  0.00    +0.000 A 
ATOM      9  F   UNL     1       7.034   4.784  18.912  0.00  0.00    +0.000 F 
ENDBRANCH   1   2
BRANCH   1  10
ATOM     10  O   UNL     1       4.605   5.667  19.621  0.00  0.00    +0.000 OA
ATOM     11  H   UNL     1       5.175   5.172  20.238  0.00  0.00    +0.000 HD
ENDBRANCH   1  10
BRANCH   1  12
ATOM     12  C   UNL     1       2.645   5.209  18.232  0.00  0.00    +0.000 C 
BRANCH  12  15
ATOM     13  N   UNL     1       1.719   8.647  18.984  0.00  0.00    +0.000 N 
ATOM     14  C   UNL     1       1.982   7.732  18.007  0.00  0.00    +0.000 A 
ATOM     15  C   UNL     1       2.183   6.551  18.689  0.00  0.00    +0.000 A 
ATOM     16  N   UNL     1       1.999   6.790  20.032  0.00  0.00    +0.000 NA
ATOM     17  N   UNL     1       1.699   8.071  20.197  0.00  0.00    +0.000 NA
BRANCH  13  18
ATOM     18  C   UNL     1       1.442  10.062  18.829  0.00  0.00    +0.000 C 
BRANCH  18  22
ATOM     19  C   UNL     1      -2.723  10.798  17.961  0.00  0.00    +0.000 A 
ATOM     20  C   UNL     1      -2.105  11.468  19.024  0.00  0.00    +0.000 A 
ATOM     21  C   UNL     1      -0.755  11.225  19.302  0.00  0.00    +0.000 A 
ATOM     22  C   UNL     1      -0.020  10.320  18.527  0.00  0.00    +0.000 A 
ATOM     23  C   UNL     1      -0.652   9.657  17.459  0.00  0.00    +0.000 A 
ATOM     24  C   UNL     1      -2.000   9.895  17.175  0.00  0.00    +0.000 A 
BRANCH  19  26
ATOM     25  O   UNL     1      -4.983  10.441  18.348  0.00  0.00    +0.000 OA
ATOM     26  N   UNL     1      -4.140  11.047  17.670  0.00  0.00    +0.000 N 
ATOM     27  O   UNL     1      -4.412  11.853  16.769  0.00  0.00    +0.000 OA
ENDBRANCH  19  26
ENDBRANCH  18  22
ENDBRANCH  13  18
ENDBRANCH  12  15
ENDBRANCH   1  12
BRANCH   1  28
ATOM     28  C   UNL     1       4.097   3.341  19.291  0.00  0.00    +0.000 C 
BRANCH  28  29
ATOM     29  N   UNL     1       2.954   3.010  20.106  0.00  0.00    +0.000 N 
ATOM     30  C   UNL     1       2.848   3.074  21.462  0.00  0.00    +0.000 A 
ATOM     31  N   UNL     1       1.613   2.810  21.816  0.00  0.00    +0.000 NA
ATOM     32  C   UNL     1       0.988   2.603  20.621  0.00  0.00    +0.000 A 
ATOM     33  N   UNL     1       1.767   2.726  19.542  0.00  0.00    +0.000 NA
ENDBRANCH  28  29
ENDBRANCH   1  28
TORSDOF 9
ENDMDL
