MODEL 1
REMARK VINA RESULT:      -8.0      0.000      0.000
REMARK  Name = 
REMARK  12 active torsions:
REMARK  status: ('A' for Active; 'I' for Inactive)
REMARK    1  A    between atoms: C_1  and  C_2
REMARK    2  A    between atoms: C_3  and  C_4
REMARK    3  A    between atoms: C_4  and  O_6
REMARK    4  A    between atoms: N_13  and  C_14
REMARK    5  A    between atoms: C_19  and  O_20
REMARK    6  A    between atoms: O_20  and  C_21
REMARK    7  A    between atoms: C_21  and  C_22
REMARK    8  A    between atoms: C_21  and  C_23
REMARK    9  A    between atoms: C_23  and  C_24
REMARK   10  A    between atoms: C_24  and  N_25
REMARK   11  A    between atoms: N_25  and  S_26
REMARK   12  A    between atoms: S_26  and  C_27
REMARK                            x       y       z     vdW  Elec       q    Type
REMARK                         _______ _______ _______ _____ _____    ______ ____
ROOT
ATOM      1  C   UNL     1       2.307   5.408  20.293  0.00  0.00    +0.000 A 
ATOM      2  C   UNL     1       1.182   4.567  20.387  0.00  0.00    +0.000 A 
ATOM      3  C   UNL     1       1.239   3.223  20.034  0.00  0.00    +0.000 A 
ATOM      4  C   UNL     1       2.444   2.727  19.593  0.00  0.00    +0.000 A 
ATOM      5  N   UNL     1       3.568   3.465  19.534  0.00  0.00    +0.000 NA
ATOM      6  C   UNL     1       3.500   4.772  19.901  0.00  0.00    +0.000 A 
ENDROOT
BRANCH   1  16
ATOM      7  C   UNL     1       0.847   9.021  22.516  0.00  0.00    +0.000 C 
ATOM      8  C   UNL     1       0.819   9.700  21.178  0.00  0.00    +0.000 A 
ATOM      9  C   UNL     1       0.277  10.966  20.924  0.00  0.00    +0.000 A 
ATOM     10  S   UNL     1       0.415  11.378  19.268  0.00  0.00    +0.000 S 
ATOM     11  C   UNL     1       1.208   9.934  18.889  0.00  0.00    +0.000 A 
ATOM     12  N   UNL     1       1.585   9.727  17.620  0.00  0.00    +0.000 NA
ATOM     13  C   UNL     1       2.177   8.552  17.455  0.00  0.00    +0.000 A 
ATOM     14  N   UNL     1       2.380   7.620  18.392  0.00  0.00    +0.000 NA
ATOM     15  C   UNL     1       1.985   7.832  19.680  0.00  0.00    +0.000 A 
ATOM     16  N   UNL     1       2.172   6.783  20.616  0.00  0.00    +0.000 N 
ATOM     17  C   UNL     1       1.376   9.084  19.972  0.00  0.00    +0.000 A 
ATOM     18  H   UNL     1       2.618   7.069  21.478  0.00  0.00    +0.000 HD
BRANCH   9  19
ATOM     19  C   UNL     1      -0.349  11.912  21.848  0.00  0.00    +0.000 C 
ATOM     20  O   UNL     1       0.119  12.981  22.208  0.00  0.00    +0.000 OA
BRANCH  19  21
ATOM     21  O   UNL     1      -1.564  11.501  22.303  0.00  0.00    +0.000 OA
ATOM     22  H   UNL     1      -2.284  12.100  22.027  0.00  0.00    +0.000 HD
ENDBRANCH  19  21
ENDBRANCH   9  19
ENDBRANCH   1  16
BRANCH   6  23
ATOM     23  O   UNL     1       4.697   5.476  19.876  0.00  0.00    +0.000 OA
BRANCH  23  24
ATOM     24  C   UNL     1       5.351   5.402  18.580  0.00  0.00    +0.000 C 
ATOM     25  C   UNL     1       5.506   6.778  17.929  0.00  0.00    +0.000 C 
BRANCH  24  26
ATOM     26  C   UNL     1       6.729   4.742  18.745  0.00  0.00    +0.000 C 
BRANCH  26  27
ATOM     27  C   UNL     1       7.390   4.618  17.379  0.00  0.00    +0.000 C 
BRANCH  27  28
ATOM     28  N   UNL     1       6.422   4.164  16.366  0.00  0.00    +0.000 NA
ATOM     29  H   UNL     1       5.447   4.119  16.675  0.00  0.00    +0.000 HD
BRANCH  28  30
ATOM     30  S   UNL     1       6.501   4.965  14.878  0.00  0.00    +0.000 S 
ATOM     31  C   UNL     1       6.177   3.644  13.727  0.00  0.00    +0.000 C 
ATOM     32  O   UNL     1       5.379   5.880  14.861  0.00  0.00    +0.000 OA
ATOM     33  O   UNL     1       7.859   5.427  14.703  0.00  0.00    +0.000 OA
ENDBRANCH  28  30
ENDBRANCH  27  28
ENDBRANCH  26  27
ENDBRANCH  24  26
ENDBRANCH  23  24
ENDBRANCH   6  23
TORSDOF 9
ENDMDL
MODEL 2
REMARK VINA RESULT:      -7.7      0.759      1.020
REMARK  Name = 
REMARK  12 active torsions:
REMARK  status: ('A' for Active; 'I' for Inactive)
REMARK    1  A    between atoms: C_1  and  C_2
REMARK    2  A    between atoms: C_3  and  C_4
REMARK    3  A    between atoms: C_4  and  O_6
REMARK    4  A    between atoms: N_13  and  C_14
REMARK    5  A    between atoms: C_19  and  O_20
REMARK    6  A    between atoms: O_20  and  C_21
REMARK    7  A    between atoms: C_21  and  C_22
REMARK    8  A    between atoms: C_21  and  C_23
REMARK    9  A    between atoms: C_23  and  C_24
REMARK   10  A    between atoms: C_24  and  N_25
REMARK   11  A    between atoms: N_25  and  S_26
REMARK   12  A    between atoms: S_26  and  C_27
REMARK                            x       y       z     vdW  Elec       q    Type
REMARK                         _______ _______ _______ _____ _____    ______ ____
ROOT
ATOM      1  C   UNL     1       2.199   5.457  20.330  0.00  0.00    +0.000 A 
ATOM      2  C   UNL     1       1.114   4.584  20.540  0.00  0.00    +0.000 A 
ATOM      3  C   UNL     1       1.166   3.246  20.163  0.00  0.00    +0.000 A 
ATOM      4  C   UNL     1       2.325   2.789  19.579  0.00  0.00    +0.000 A 
ATOM      5  N   UNL     1       3.415   3.558  19.403  0.00  0.00    +0.000 NA
ATOM      6  C   UNL     1       3.355   4.858  19.795  0.00  0.00    +0.000 A 
ENDROOT
BRANCH   1  16
ATOM      7  C   UNL     1       0.847   9.006  22.718  0.00  0.00    +0.000 C 
ATOM      8  C   UNL     1       0.712   9.706  21.399  0.00  0.00    +0.000 A 
ATOM      9  C   UNL     1       0.132  10.967  21.208  0.00  0.00    +0.000 A 
ATOM     10  S   UNL     1       0.143  11.409  19.554  0.00  0.00    +0.000 S 
ATOM     11  C   UNL     1       0.928   9.986  19.092  0.00  0.00    +0.000 A 
ATOM     12  N   UNL     1       1.216   9.807  17.796  0.00  0.00    +0.000 NA
ATOM     13  C   UNL     1       1.813   8.645  17.567  0.00  0.00    +0.000 A 
ATOM     14  N   UNL     1       2.098   7.701  18.470  0.00  0.00    +0.000 NA
ATOM     15  C   UNL     1       1.795   7.884  19.787  0.00  0.00    +0.000 A 
ATOM     16  N   UNL     1       2.066   6.823  20.688  0.00  0.00    +0.000 N 
ATOM     17  C   UNL     1       1.189   9.121  20.145  0.00  0.00    +0.000 A 
ATOM     18  H   UNL     1       2.569   7.102  21.519  0.00  0.00    +0.000 HD
BRANCH   9  19
ATOM     19  C   UNL     1      -0.440  11.886  22.192  0.00  0.00    +0.000 C 
ATOM     20  O   UNL     1      -1.355  11.637  22.961  0.00  0.00    +0.000 OA
BRANCH  19  21
ATOM     21  O   UNL     1       0.155  13.110  22.199  0.00  0.00    +0.000 OA
ATOM     22  H   UNL     1      -0.172  13.685  21.480  0.00  0.00    +0.000 HD
ENDBRANCH  19  21
ENDBRANCH   9  19
ENDBRANCH   1  16
BRANCH   6  23
ATOM     23  O   UNL     1       4.523   5.596  19.644  0.00  0.00    +0.000 OA
BRANCH  23  24
ATOM     24  C   UNL     1       5.009   5.578  18.274  0.00  0.00    +0.000 C 
ATOM     25  C   UNL     1       5.133   6.985  17.685  0.00  0.00    +0.000 C 
BRANCH  24  26
ATOM     26  C   UNL     1       6.373   4.871  18.231  0.00  0.00    +0.000 C 
BRANCH  26  27
ATOM     27  C   UNL     1       7.263   5.565  17.208  0.00  0.00    +0.000 C 
BRANCH  27  28
ATOM     28  N   UNL     1       7.612   4.649  16.108  0.00  0.00    +0.000 NA
ATOM     29  H   UNL     1       7.705   3.664  16.365  0.00  0.00    +0.000 HD
BRANCH  28  30
ATOM     30  S   UNL     1       6.645   4.778  14.725  0.00  0.00    +0.000 S 
ATOM     31  C   UNL     1       7.854   5.104  13.456  0.00  0.00    +0.000 C 
ATOM     32  O   UNL     1       6.090   3.459  14.507  0.00  0.00    +0.000 OA
ATOM     33  O   UNL     1       5.801   5.939  14.889  0.00  0.00    +0.000 OA
ENDBRANCH  28  30
ENDBRANCH  27  28
ENDBRANCH  26  27
ENDBRANCH  24  26
ENDBRANCH  23  24
ENDBRANCH   6  23
TORSDOF 9
ENDMDL
MODEL 3
REMARK VINA RESULT:      -7.7      0.947      1.328
REMARK  Name = 
REMARK  12 active torsions:
REMARK  status: ('A' for Active; 'I' for Inactive)
REMARK    1  A    between atoms: C_1  and  C_2
REMARK    2  A    between atoms: C_3  and  C_4
REMARK    3  A    between atoms: C_4  and  O_6
REMARK    4  A    between atoms: N_13  and  C_14
REMARK    5  A    between atoms: C_19  and  O_20
REMARK    6  A    between atoms: O_20  and  C_21
REMARK    7  A    between atoms: C_21  and  C_22
REMARK    8  A    between atoms: C_21  and  C_23
REMARK    9  A    between atoms: C_23  and  C_24
REMARK   10  A    between atoms: C_24  and  N_25
REMARK   11  A    between atoms: N_25  and  S_26
REMARK   12  A    between atoms: S_26  and  C_27
REMARK                            x       y       z     vdW  Elec       q    Type
REMARK                         _______ _______ _______ _____ _____    ______ ____
ROOT
ATOM      1  C   UNL     1       2.115   5.220  20.410  0.00  0.00    +0.000 A 
ATOM      2  C   UNL     1       0.939   4.457  20.543  0.00  0.00    +0.000 A 
ATOM      3  C   UNL     1       0.907   3.100  20.238  0.00  0.00    +0.000 A 
ATOM      4  C   UNL     1       2.073   2.512  19.805  0.00  0.00    +0.000 A 
ATOM      5  N   UNL     1       3.241   3.174  19.712  0.00  0.00    +0.000 NA
ATOM      6  C   UNL     1       3.260   4.494  20.033  0.00  0.00    +0.000 A 
ENDROOT
BRANCH   1  16
ATOM      7  C   UNL     1       0.883   8.998  22.492  0.00  0.00    +0.000 C 
ATOM      8  C   UNL     1       0.916   9.631  21.133  0.00  0.00    +0.000 A 
ATOM      9  C   UNL     1       0.465  10.921  20.830  0.00  0.00    +0.000 A 
ATOM     10  S   UNL     1       0.648  11.266  19.162  0.00  0.00    +0.000 S 
ATOM     11  C   UNL     1       1.343   9.759  18.842  0.00  0.00    +0.000 A 
ATOM     12  N   UNL     1       1.718   9.484  17.586  0.00  0.00    +0.000 NA
ATOM     13  C   UNL     1       2.230   8.265  17.467  0.00  0.00    +0.000 A 
ATOM     14  N   UNL     1       2.358   7.355  18.438  0.00  0.00    +0.000 NA
ATOM     15  C   UNL     1       1.966   7.637  19.713  0.00  0.00    +0.000 A 
ATOM     16  N   UNL     1       2.071   6.611  20.686  0.00  0.00    +0.000 N 
ATOM     17  C   UNL     1       1.442   8.937  19.955  0.00  0.00    +0.000 A 
ATOM     18  H   UNL     1       2.527   6.895  21.543  0.00  0.00    +0.000 HD
BRANCH   9  19
ATOM     19  C   UNL     1      -0.104  11.939  21.713  0.00  0.00    +0.000 C 
ATOM     20  O   UNL     1      -1.135  11.834  22.360  0.00  0.00    +0.000 OA
BRANCH  19  21
ATOM     21  O   UNL     1       0.639  13.077  21.777  0.00  0.00    +0.000 OA
ATOM     22  H   UNL     1       1.435  13.031  21.213  0.00  0.00    +0.000 HD
ENDBRANCH  19  21
ENDBRANCH   9  19
ENDBRANCH   1  16
BRANCH   6  23
ATOM     23  O   UNL     1       4.500   5.119  19.973  0.00  0.00    +0.000 OA
BRANCH  23  24
ATOM     24  C   UNL     1       5.170   4.891  18.704  0.00  0.00    +0.000 C 
ATOM     25  C   UNL     1       4.401   3.914  17.811  0.00  0.00    +0.000 C 
BRANCH  24  26
ATOM     26  C   UNL     1       5.349   6.233  17.978  0.00  0.00    +0.000 C 
BRANCH  26  27
ATOM     27  C   UNL     1       5.071   6.038  16.493  0.00  0.00    +0.000 C 
BRANCH  27  28
ATOM     28  N   UNL     1       6.266   6.350  15.689  0.00  0.00    +0.000 NA
ATOM     29  H   UNL     1       6.901   7.044  16.092  0.00  0.00    +0.000 HD
BRANCH  28  30
ATOM     30  S   UNL     1       7.159   5.009  15.171  0.00  0.00    +0.000 S 
ATOM     31  C   UNL     1       5.890   3.962  14.485  0.00  0.00    +0.000 C 
ATOM     32  O   UNL     1       7.999   5.487  14.092  0.00  0.00    +0.000 OA
ATOM     33  O   UNL     1       7.717   4.376  16.343  0.00  0.00    +0.000 OA
ENDBRANCH  28  30
ENDBRANCH  27  28
ENDBRANCH  26  27
ENDBRANCH  24  26
ENDBRANCH  23  24
ENDBRANCH   6  23
TORSDOF 9
ENDMDL
MODEL 4
REMARK VINA RESULT:      -7.4      0.963      1.078
REMARK  Name = 
REMARK  12 active torsions:
REMARK  status: ('A' for Active; 'I' for Inactive)
REMARK    1  A    between atoms: C_1  and  C_2
REMARK    2  A    between atoms: C_3  and  C_4
REMARK    3  A    between atoms: C_4  and  O_6
REMARK    4  A    between atoms: N_13  and  C_14
REMARK    5  A    between atoms: C_19  and  O_20
REMARK    6  A    between atoms: O_20  and  C_21
REMARK    7  A    between atoms: C_21  and  C_22
REMARK    8  A    between atoms: C_21  and  C_23
REMARK    9  A    between atoms: C_23  and  C_24
REMARK   10  A    between atoms: C_24  and  N_25
REMARK   11  A    between atoms: N_25  and  S_26
REMARK   12  A    between atoms: S_26  and  C_27
REMARK                            x       y       z     vdW  Elec       q    Type
REMARK                         _______ _______ _______ _____ _____    ______ ____
ROOT
ATOM      1  C   UNL     1       2.160   5.293  20.355  0.00  0.00    +0.000 A 
ATOM      2  C   UNL     1       1.041   4.458  20.541  0.00  0.00    +0.000 A 
ATOM      3  C   UNL     1       1.071   3.107  20.208  0.00  0.00    +0.000 A 
ATOM      4  C   UNL     1       2.242   2.600  19.694  0.00  0.00    +0.000 A 
ATOM      5  N   UNL     1       3.361   3.333  19.545  0.00  0.00    +0.000 NA
ATOM      6  C   UNL     1       3.321   4.646  19.893  0.00  0.00    +0.000 A 
ENDROOT
BRANCH   1  16
ATOM      7  C   UNL     1       0.696   8.964  22.478  0.00  0.00    +0.000 C 
ATOM      8  C   UNL     1       0.759   9.634  21.137  0.00  0.00    +0.000 A 
ATOM      9  C   UNL     1       0.270  10.914  20.848  0.00  0.00    +0.000 A 
ATOM     10  S   UNL     1       0.508  11.310  19.199  0.00  0.00    +0.000 S 
ATOM     11  C   UNL     1       1.274   9.840  18.871  0.00  0.00    +0.000 A 
ATOM     12  N   UNL     1       1.712   9.613  17.625  0.00  0.00    +0.000 NA
ATOM     13  C   UNL     1       2.275   8.419  17.497  0.00  0.00    +0.000 A 
ATOM     14  N   UNL     1       2.400   7.488  18.449  0.00  0.00    +0.000 NA
ATOM     15  C   UNL     1       1.944   7.721  19.713  0.00  0.00    +0.000 A 
ATOM     16  N   UNL     1       2.050   6.674  20.663  0.00  0.00    +0.000 N 
ATOM     17  C   UNL     1       1.360   8.993  19.966  0.00  0.00    +0.000 A 
ATOM     18  H   UNL     1       2.459   6.952  21.546  0.00  0.00    +0.000 HD
BRANCH   9  19
ATOM     19  C   UNL     1      -0.374  11.885  21.732  0.00  0.00    +0.000 C 
ATOM     20  O   UNL     1      -0.347  11.873  22.954  0.00  0.00    +0.000 OA
BRANCH  19  21
ATOM     21  O   UNL     1      -1.040  12.866  21.065  0.00  0.00    +0.000 OA
ATOM     22  H   UNL     1      -0.469  13.634  20.870  0.00  0.00    +0.000 HD
ENDBRANCH  19  21
ENDBRANCH   9  19
ENDBRANCH   1  16
BRANCH   6  23
ATOM     23  O   UNL     1       4.515   5.346  19.774  0.00  0.00    +0.000 OA
BRANCH  23  24
ATOM     24  C   UNL     1       4.934   5.484  18.389  0.00  0.00    +0.000 C 
ATOM     25  C   UNL     1       5.820   6.713  18.171  0.00  0.00    +0.000 C 
BRANCH  24  26
ATOM     26  C   UNL     1       5.685   4.214  17.959  0.00  0.00    +0.000 C 
BRANCH  26  27
ATOM     27  C   UNL     1       5.096   3.706  16.649  0.00  0.00    +0.000 C 
BRANCH  27  28
ATOM     28  N   UNL     1       6.162   3.357  15.694  0.00  0.00    +0.000 NA
ATOM     29  H   UNL     1       6.035   2.474  15.193  0.00  0.00    +0.000 HD
BRANCH  28  30
ATOM     30  S   UNL     1       6.573   4.572  14.592  0.00  0.00    +0.000 S 
ATOM     31  C   UNL     1       5.193   5.691  14.743  0.00  0.00    +0.000 C 
ATOM     32  O   UNL     1       7.752   5.215  15.132  0.00  0.00    +0.000 OA
ATOM     33  O   UNL     1       6.567   3.985  13.272  0.00  0.00    +0.000 OA
ENDBRANCH  28  30
ENDBRANCH  27  28
ENDBRANCH  26  27
ENDBRANCH  24  26
ENDBRANCH  23  24
ENDBRANCH   6  23
TORSDOF 9
ENDMDL
MODEL 5
REMARK VINA RESULT:      -7.3      3.630      5.798
REMARK  Name = 
REMARK  12 active torsions:
REMARK  status: ('A' for Active; 'I' for Inactive)
REMARK    1  A    between atoms: C_1  and  C_2
REMARK    2  A    between atoms: C_3  and  C_4
REMARK    3  A    between atoms: C_4  and  O_6
REMARK    4  A    between atoms: N_13  and  C_14
REMARK    5  A    between atoms: C_19  and  O_20
REMARK    6  A    between atoms: O_20  and  C_21
REMARK    7  A    between atoms: C_21  and  C_22
REMARK    8  A    between atoms: C_21  and  C_23
REMARK    9  A    between atoms: C_23  and  C_24
REMARK   10  A    between atoms: C_24  and  N_25
REMARK   11  A    between atoms: N_25  and  S_26
REMARK   12  A    between atoms: S_26  and  C_27
REMARK                            x       y       z     vdW  Elec       q    Type
REMARK                         _______ _______ _______ _____ _____    ______ ____
ROOT
ATOM      1  C   UNL     1       5.401   5.326  15.598  0.00  0.00    +0.000 A 
ATOM      2  C   UNL     1       5.238   4.342  14.604  0.00  0.00    +0.000 A 
ATOM      3  C   UNL     1       6.263   4.012  13.724  0.00  0.00    +0.000 A 
ATOM      4  C   UNL     1       7.461   4.675  13.858  0.00  0.00    +0.000 A 
ATOM      5  N   UNL     1       7.697   5.584  14.822  0.00  0.00    +0.000 NA
ATOM      6  C   UNL     1       6.691   5.881  15.687  0.00  0.00    +0.000 A 
ENDROOT
BRANCH   1  16
ATOM      7  C   UNL     1       2.724   7.914  18.102  0.00  0.00    +0.000 C 
ATOM      8  C   UNL     1       2.584   6.718  18.997  0.00  0.00    +0.000 A 
ATOM      9  C   UNL     1       1.956   6.713  20.248  0.00  0.00    +0.000 A 
ATOM     10  S   UNL     1       2.025   5.161  20.970  0.00  0.00    +0.000 S 
ATOM     11  C   UNL     1       2.836   4.491  19.647  0.00  0.00    +0.000 A 
ATOM     12  N   UNL     1       3.152   3.189  19.685  0.00  0.00    +0.000 NA
ATOM     13  C   UNL     1       3.801   2.795  18.597  0.00  0.00    +0.000 A 
ATOM     14  N   UNL     1       4.158   3.559  17.559  0.00  0.00    +0.000 NA
ATOM     15  C   UNL     1       3.842   4.885  17.530  0.00  0.00    +0.000 A 
ATOM     16  N   UNL     1       4.300   5.656  16.431  0.00  0.00    +0.000 N 
ATOM     17  C   UNL     1       3.106   5.399  18.634  0.00  0.00    +0.000 A 
ATOM     18  H   UNL     1       3.587   6.226  15.996  0.00  0.00    +0.000 HD
BRANCH   9  19
ATOM     19  C   UNL     1       1.292   7.804  20.960  0.00  0.00    +0.000 C 
ATOM     20  O   UNL     1       0.101   8.072  20.914  0.00  0.00    +0.000 OA
BRANCH  19  21
ATOM     21  O   UNL     1       2.137   8.543  21.729  0.00  0.00    +0.000 OA
ATOM     22  H   UNL     1       2.932   8.826  21.237  0.00  0.00    +0.000 HD
ENDBRANCH  19  21
ENDBRANCH   9  19
ENDBRANCH   1  16
BRANCH   6  23
ATOM     23  O   UNL     1       7.000   6.783  16.697  0.00  0.00    +0.000 OA
BRANCH  23  24
ATOM     24  C   UNL     1       7.166   6.129  17.984  0.00  0.00    +0.000 C 
ATOM     25  C   UNL     1       7.701   4.702  17.845  0.00  0.00    +0.000 C 
BRANCH  24  26
ATOM     26  C   UNL     1       8.119   6.963  18.856  0.00  0.00    +0.000 C 
BRANCH  26  27
ATOM     27  C   UNL     1       8.276   8.347  18.239  0.00  0.00    +0.000 C 
BRANCH  27  28
ATOM     28  N   UNL     1       9.220   9.166  19.020  0.00  0.00    +0.000 NA
ATOM     29  H   UNL     1      10.196   8.864  18.991  0.00  0.00    +0.000 HD
BRANCH  28  30
ATOM     30  S   UNL     1       9.141  10.832  18.732  0.00  0.00    +0.000 S 
ATOM     31  C   UNL     1      10.732  11.157  17.999  0.00  0.00    +0.000 C 
ATOM     32  O   UNL     1       8.119  11.011  17.722  0.00  0.00    +0.000 OA
ATOM     33  O   UNL     1       9.063  11.493  20.015  0.00  0.00    +0.000 OA
ENDBRANCH  28  30
ENDBRANCH  27  28
ENDBRANCH  26  27
ENDBRANCH  24  26
ENDBRANCH  23  24
ENDBRANCH   6  23
TORSDOF 9
ENDMDL
MODEL 6
REMARK VINA RESULT:      -7.2      6.787      9.318
REMARK  Name = 
REMARK  12 active torsions:
REMARK  status: ('A' for Active; 'I' for Inactive)
REMARK    1  A    between atoms: C_1  and  C_2
REMARK    2  A    between atoms: C_3  and  C_4
REMARK    3  A    between atoms: C_4  and  O_6
REMARK    4  A    between atoms: N_13  and  C_14
REMARK    5  A    between atoms: C_19  and  O_20
REMARK    6  A    between atoms: O_20  and  C_21
REMARK    7  A    between atoms: C_21  and  C_22
REMARK    8  A    between atoms: C_21  and  C_23
REMARK    9  A    between atoms: C_23  and  C_24
REMARK   10  A    between atoms: C_24  and  N_25
REMARK   11  A    between atoms: N_25  and  S_26
REMARK   12  A    between atoms: S_26  and  C_27
REMARK                            x       y       z     vdW  Elec       q    Type
REMARK                         _______ _______ _______ _____ _____    ______ ____
ROOT
ATOM      1  C   UNL     1      -3.898  11.587  17.576  0.00  0.00    +0.000 A 
ATOM      2  C   UNL     1      -4.461  11.380  16.302  0.00  0.00    +0.000 A 
ATOM      3  C   UNL     1      -3.809  10.634  15.325  0.00  0.00    +0.000 A 
ATOM      4  C   UNL     1      -2.587  10.090  15.644  0.00  0.00    +0.000 A 
ATOM      5  N   UNL     1      -2.023  10.204  16.860  0.00  0.00    +0.000 NA
ATOM      6  C   UNL     1      -2.682  10.919  17.810  0.00  0.00    +0.000 A 
ENDROOT
BRANCH   1  16
ATOM      7  C   UNL     1      -4.436  14.723  20.740  0.00  0.00    +0.000 C 
ATOM      8  C   UNL     1      -5.459  13.798  21.330  0.00  0.00    +0.000 A 
ATOM      9  C   UNL     1      -6.084  13.969  22.572  0.00  0.00    +0.000 A 
ATOM     10  S   UNL     1      -7.170  12.687  22.901  0.00  0.00    +0.000 S 
ATOM     11  C   UNL     1      -6.857  11.932  21.422  0.00  0.00    +0.000 A 
ATOM     12  N   UNL     1      -7.506  10.795  21.136  0.00  0.00    +0.000 NA
ATOM     13  C   UNL     1      -7.156  10.296  19.958  0.00  0.00    +0.000 A 
ATOM     14  N   UNL     1      -6.247  10.799  19.115  0.00  0.00    +0.000 NA
ATOM     15  C   UNL     1      -5.583  11.951  19.416  0.00  0.00    +0.000 A 
ATOM     16  N   UNL     1      -4.587  12.401  18.512  0.00  0.00    +0.000 N 
ATOM     17  C   UNL     1      -5.918  12.590  20.642  0.00  0.00    +0.000 A 
ATOM     18  H   UNL     1      -4.667  13.377  18.257  0.00  0.00    +0.000 HD
BRANCH   9  19
ATOM     19  C   UNL     1      -5.927  15.045  23.551  0.00  0.00    +0.000 C 
ATOM     20  O   UNL     1      -4.894  15.344  24.131  0.00  0.00    +0.000 OA
BRANCH  19  21
ATOM     21  O   UNL     1      -7.075  15.737  23.784  0.00  0.00    +0.000 OA
ATOM     22  H   UNL     1      -7.642  15.790  22.990  0.00  0.00    +0.000 HD
ENDBRANCH  19  21
ENDBRANCH   9  19
ENDBRANCH   1  16
BRANCH   6  23
ATOM     23  O   UNL     1      -2.086  10.962  19.065  0.00  0.00    +0.000 OA
BRANCH  23  24
ATOM     24  C   UNL     1      -0.924  11.834  19.091  0.00  0.00    +0.000 C 
ATOM     25  C   UNL     1      -1.154  13.083  19.945  0.00  0.00    +0.000 C 
BRANCH  24  26
ATOM     26  C   UNL     1       0.285  11.049  19.626  0.00  0.00    +0.000 C 
BRANCH  26  27
ATOM     27  C   UNL     1       0.637  11.564  21.016  0.00  0.00    +0.000 C 
BRANCH  27  28
ATOM     28  N   UNL     1       1.115  10.468  21.876  0.00  0.00    +0.000 NA
ATOM     29  H   UNL     1       1.947  10.673  22.434  0.00  0.00    +0.000 HD
BRANCH  28  30
ATOM     30  S   UNL     1      -0.062   9.761  22.866  0.00  0.00    +0.000 S 
ATOM     31  C   UNL     1      -1.276  11.061  22.985  0.00  0.00    +0.000 C 
ATOM     32  O   UNL     1      -0.623   8.671  22.097  0.00  0.00    +0.000 OA
ATOM     33  O   UNL     1       0.533   9.545  24.165  0.00  0.00    +0.000 OA
ENDBRANCH  28  30
ENDBRANCH  27  28
ENDBRANCH  26  27
ENDBRANCH  24  26
ENDBRANCH  23  24
ENDBRANCH   6  23
TORSDOF 9
ENDMDL
MODEL 7
REMARK VINA RESULT:      -7.1      0.954      1.099
REMARK  Name = 
REMARK  12 active torsions:
REMARK  status: ('A' for Active; 'I' for Inactive)
REMARK    1  A    between atoms: C_1  and  C_2
REMARK    2  A    between atoms: C_3  and  C_4
REMARK    3  A    between atoms: C_4  and  O_6
REMARK    4  A    between atoms: N_13  and  C_14
REMARK    5  A    between atoms: C_19  and  O_20
REMARK    6  A    between atoms: O_20  and  C_21
REMARK    7  A    between atoms: C_21  and  C_22
REMARK    8  A    between atoms: C_21  and  C_23
REMARK    9  A    between atoms: C_23  and  C_24
REMARK   10  A    between atoms: C_24  and  N_25
REMARK   11  A    between atoms: N_25  and  S_26
REMARK   12  A    between atoms: S_26  and  C_27
REMARK                            x       y       z     vdW  Elec       q    Type
REMARK                         _______ _______ _______ _____ _____    ______ ____
ROOT
ATOM      1  C   UNL     1       2.487   4.698  19.880  0.00  0.00    +0.000 A 
ATOM      2  C   UNL     1       1.361   3.922  19.544  0.00  0.00    +0.000 A 
ATOM      3  C   UNL     1       1.478   2.593  19.147  0.00  0.00    +0.000 A 
ATOM      4  C   UNL     1       2.740   2.047  19.100  0.00  0.00    +0.000 A 
ATOM      5  N   UNL     1       3.848   2.719  19.462  0.00  0.00    +0.000 NA
ATOM      6  C   UNL     1       3.714   4.010  19.867  0.00  0.00    +0.000 A 
ENDROOT
BRANCH   1  16
ATOM      7  C   UNL     1       0.662   8.255  21.917  0.00  0.00    +0.000 C 
ATOM      8  C   UNL     1       0.907   8.983  20.628  0.00  0.00    +0.000 A 
ATOM      9  C   UNL     1       0.441  10.268  20.324  0.00  0.00    +0.000 A 
ATOM     10  S   UNL     1       0.907  10.738  18.744  0.00  0.00    +0.000 S 
ATOM     11  C   UNL     1       1.741   9.293  18.471  0.00  0.00    +0.000 A 
ATOM     12  N   UNL     1       2.358   9.126  17.293  0.00  0.00    +0.000 NA
ATOM     13  C   UNL     1       2.956   7.945  17.200  0.00  0.00    +0.000 A 
ATOM     14  N   UNL     1       2.959   6.976  18.121  0.00  0.00    +0.000 NA
ATOM     15  C   UNL     1       2.321   7.148  19.314  0.00  0.00    +0.000 A 
ATOM     16  N   UNL     1       2.308   6.062  20.226  0.00  0.00    +0.000 N 
ATOM     17  C   UNL     1       1.682   8.401  19.531  0.00  0.00    +0.000 A 
ATOM     18  H   UNL     1       2.579   6.307  21.169  0.00  0.00    +0.000 HD
BRANCH   9  19
ATOM     19  C   UNL     1      -0.343  11.191  21.144  0.00  0.00    +0.000 C 
ATOM     20  O   UNL     1      -1.453  11.625  20.876  0.00  0.00    +0.000 OA
BRANCH  19  21
ATOM     21  O   UNL     1       0.281  11.553  22.298  0.00  0.00    +0.000 OA
ATOM     22  H   UNL     1       1.209  11.249  22.328  0.00  0.00    +0.000 HD
ENDBRANCH  19  21
ENDBRANCH   9  19
ENDBRANCH   1  16
BRANCH   6  23
ATOM     23  O   UNL     1       4.880   4.643  20.283  0.00  0.00    +0.000 OA
BRANCH  23  24
ATOM     24  C   UNL     1       5.633   5.193  19.169  0.00  0.00    +0.000 C 
ATOM     25  C   UNL     1       7.014   5.696  19.595  0.00  0.00    +0.000 C 
BRANCH  24  26
ATOM     26  C   UNL     1       5.781   4.119  18.079  0.00  0.00    +0.000 C 
BRANCH  26  27
ATOM     27  C   UNL     1       6.890   4.532  17.119  0.00  0.00    +0.000 C 
BRANCH  27  28
ATOM     28  N   UNL     1       6.731   3.865  15.815  0.00  0.00    +0.000 NA
ATOM     29  H   UNL     1       6.009   3.142  15.773  0.00  0.00    +0.000 HD
BRANCH  28  30
ATOM     30  S   UNL     1       6.561   4.902  14.489  0.00  0.00    +0.000 S 
ATOM     31  C   UNL     1       5.929   3.802  13.237  0.00  0.00    +0.000 C 
ATOM     32  O   UNL     1       5.519   5.840  14.851  0.00  0.00    +0.000 OA
ATOM     33  O   UNL     1       7.882   5.346  14.110  0.00  0.00    +0.000 OA
ENDBRANCH  28  30
ENDBRANCH  27  28
ENDBRANCH  26  27
ENDBRANCH  24  26
ENDBRANCH  23  24
ENDBRANCH   6  23
TORSDOF 9
ENDMDL
MODEL 8
REMARK VINA RESULT:      -7.1      3.655      5.358
REMARK  Name = 
REMARK  12 active torsions:
REMARK  status: ('A' for Active; 'I' for Inactive)
REMARK    1  A    between atoms: C_1  and  C_2
REMARK    2  A    between atoms: C_3  and  C_4
REMARK    3  A    between atoms: C_4  and  O_6
REMARK    4  A    between atoms: N_13  and  C_14
REMARK    5  A    between atoms: C_19  and  O_20
REMARK    6  A    between atoms: O_20  and  C_21
REMARK    7  A    between atoms: C_21  and  C_22
REMARK    8  A    between atoms: C_21  and  C_23
REMARK    9  A    between atoms: C_23  and  C_24
REMARK   10  A    between atoms: C_24  and  N_25
REMARK   11  A    between atoms: N_25  and  S_26
REMARK   12  A    between atoms: S_26  and  C_27
REMARK                            x       y       z     vdW  Elec       q    Type
REMARK                         _______ _______ _______ _____ _____    ______ ____
ROOT
ATOM      1  C   UNL     1       5.068   5.726  16.205  0.00  0.00    +0.000 A 
ATOM      2  C   UNL     1       4.932   4.488  15.547  0.00  0.00    +0.000 A 
ATOM      3  C   UNL     1       5.997   3.891  14.881  0.00  0.00    +0.000 A 
ATOM      4  C   UNL     1       7.206   4.546  14.889  0.00  0.00    +0.000 A 
ATOM      5  N   UNL     1       7.415   5.701  15.546  0.00  0.00    +0.000 NA
ATOM      6  C   UNL     1       6.369   6.262  16.209  0.00  0.00    +0.000 A 
ENDROOT
BRANCH   1  16
ATOM      7  C   UNL     1       2.315   8.990  17.581  0.00  0.00    +0.000 C 
ATOM      8  C   UNL     1       2.100   8.147  18.803  0.00  0.00    +0.000 A 
ATOM      9  C   UNL     1       1.405   8.547  19.950  0.00  0.00    +0.000 A 
ATOM     10  S   UNL     1       1.401   7.311  21.136  0.00  0.00    +0.000 S 
ATOM     11  C   UNL     1       2.269   6.248  20.149  0.00  0.00    +0.000 A 
ATOM     12  N   UNL     1       2.554   5.027  20.622  0.00  0.00    +0.000 NA
ATOM     13  C   UNL     1       3.253   4.301  19.759  0.00  0.00    +0.000 A 
ATOM     14  N   UNL     1       3.682   4.689  18.553  0.00  0.00    +0.000 NA
ATOM     15  C   UNL     1       3.397   5.936  18.080  0.00  0.00    +0.000 A 
ATOM     16  N   UNL     1       3.931   6.310  16.821  0.00  0.00    +0.000 N 
ATOM     17  C   UNL     1       2.613   6.780  18.915  0.00  0.00    +0.000 A 
ATOM     18  H   UNL     1       3.254   6.711  16.185  0.00  0.00    +0.000 HD
BRANCH   9  19
ATOM     19  C   UNL     1       0.726   9.812  20.233  0.00  0.00    +0.000 C 
ATOM     20  O   UNL     1       1.185  10.746  20.872  0.00  0.00    +0.000 OA
BRANCH  19  21
ATOM     21  O   UNL     1      -0.523   9.887  19.699  0.00  0.00    +0.000 OA
ATOM     22  H   UNL     1      -0.816   9.035  19.321  0.00  0.00    +0.000 HD
ENDBRANCH  19  21
ENDBRANCH   9  19
ENDBRANCH   1  16
BRANCH   6  23
ATOM     23  O   UNL     1       6.647   7.425  16.918  0.00  0.00    +0.000 OA
BRANCH  23  24
ATOM     24  C   UNL     1       7.174   7.146  18.243  0.00  0.00    +0.000 C 
ATOM     25  C   UNL     1       7.437   5.654  18.461  0.00  0.00    +0.000 C 
BRANCH  24  26
ATOM     26  C   UNL     1       8.473   7.942  18.449  0.00  0.00    +0.000 C 
BRANCH  26  27
ATOM     27  C   UNL     1       8.241   9.390  18.036  0.00  0.00    +0.000 C 
BRANCH  27  28
ATOM     28  N   UNL     1       9.191  10.288  18.713  0.00  0.00    +0.000 NA
ATOM     29  H   UNL     1      10.144   9.929  18.816  0.00  0.00    +0.000 HD
BRANCH  28  30
ATOM     30  S   UNL     1       9.250  11.867  18.109  0.00  0.00    +0.000 S 
ATOM     31  C   UNL     1       9.203  12.839  19.603  0.00  0.00    +0.000 C 
ATOM     32  O   UNL     1      10.558  12.011  17.504  0.00  0.00    +0.000 OA
ATOM     33  O   UNL     1       8.038  12.093  17.356  0.00  0.00    +0.000 OA
ENDBRANCH  28  30
ENDBRANCH  27  28
ENDBRANCH  26  27
ENDBRANCH  24  26
ENDBRANCH  23  24
ENDBRANCH   6  23
TORSDOF 9
ENDMDL
MODEL 9
REMARK VINA RESULT:      -7.1      4.140      6.611
REMARK  Name = 
REMARK  12 active torsions:
REMARK  status: ('A' for Active; 'I' for Inactive)
REMARK    1  A    between atoms: C_1  and  C_2
REMARK    2  A    between atoms: C_3  and  C_4
REMARK    3  A    between atoms: C_4  and  O_6
REMARK    4  A    between atoms: N_13  and  C_14
REMARK    5  A    between atoms: C_19  and  O_20
REMARK    6  A    between atoms: O_20  and  C_21
REMARK    7  A    between atoms: C_21  and  C_22
REMARK    8  A    between atoms: C_21  and  C_23
REMARK    9  A    between atoms: C_23  and  C_24
REMARK   10  A    between atoms: C_24  and  N_25
REMARK   11  A    between atoms: N_25  and  S_26
REMARK   12  A    between atoms: S_26  and  C_27
REMARK                            x       y       z     vdW  Elec       q    Type
REMARK                         _______ _______ _______ _____ _____    ______ ____
ROOT
ATOM      1  C   UNL     1       5.968   4.574  16.157  0.00  0.00    +0.000 A 
ATOM      2  C   UNL     1       5.231   4.079  15.064  0.00  0.00    +0.000 A 
ATOM      3  C   UNL     1       5.666   4.239  13.753  0.00  0.00    +0.000 A 
ATOM      4  C   UNL     1       6.857   4.897  13.549  0.00  0.00    +0.000 A 
ATOM      5  N   UNL     1       7.634   5.344  14.552  0.00  0.00    +0.000 NA
ATOM      6  C   UNL     1       7.204   5.161  15.829  0.00  0.00    +0.000 A 
ENDROOT
BRANCH   1  16
ATOM      7  C   UNL     1       4.420   2.441  19.788  0.00  0.00    +0.000 C 
ATOM      8  C   UNL     1       3.461   3.586  19.919  0.00  0.00    +0.000 A 
ATOM      9  C   UNL     1       2.390   3.645  20.820  0.00  0.00    +0.000 A 
ATOM     10  S   UNL     1       1.513   5.106  20.644  0.00  0.00    +0.000 S 
ATOM     11  C   UNL     1       2.540   5.674  19.428  0.00  0.00    +0.000 A 
ATOM     12  N   UNL     1       2.295   6.880  18.898  0.00  0.00    +0.000 NA
ATOM     13  C   UNL     1       3.161   7.197  17.944  0.00  0.00    +0.000 A 
ATOM     14  N   UNL     1       4.166   6.439  17.492  0.00  0.00    +0.000 NA
ATOM     15  C   UNL     1       4.404   5.208  18.029  0.00  0.00    +0.000 A 
ATOM     16  N   UNL     1       5.445   4.426  17.468  0.00  0.00    +0.000 N 
ATOM     17  C   UNL     1       3.555   4.791  19.092  0.00  0.00    +0.000 A 
ATOM     18  H   UNL     1       6.088   4.039  18.146  0.00  0.00    +0.000 HD
BRANCH   9  19
ATOM     19  C   UNL     1       1.966   2.671  21.825  0.00  0.00    +0.000 C 
ATOM     20  O   UNL     1       0.825   2.508  22.231  0.00  0.00    +0.000 OA
BRANCH  19  21
ATOM     21  O   UNL     1       2.985   1.908  22.303  0.00  0.00    +0.000 OA
ATOM     22  H   UNL     1       3.470   2.349  23.028  0.00  0.00    +0.000 HD
ENDBRANCH  19  21
ENDBRANCH   9  19
ENDBRANCH   1  16
BRANCH   6  23
ATOM     23  O   UNL     1       8.067   5.590  16.831  0.00  0.00    +0.000 OA
BRANCH  23  24
ATOM     24  C   UNL     1       7.441   6.555  17.718  0.00  0.00    +0.000 C 
ATOM     25  C   UNL     1       7.917   6.408  19.165  0.00  0.00    +0.000 C 
BRANCH  24  26
ATOM     26  C   UNL     1       7.739   7.976  17.211  0.00  0.00    +0.000 C 
BRANCH  26  27
ATOM     27  C   UNL     1       8.290   8.810  18.361  0.00  0.00    +0.000 C 
BRANCH  27  28
ATOM     28  N   UNL     1       9.020   9.984  17.854  0.00  0.00    +0.000 NA
ATOM     29  H   UNL     1       8.589  10.465  17.061  0.00  0.00    +0.000 HD
BRANCH  28  30
ATOM     30  S   UNL     1       9.462  11.122  19.026  0.00  0.00    +0.000 S 
ATOM     31  C   UNL     1      11.189  11.376  18.665  0.00  0.00    +0.000 C 
ATOM     32  O   UNL     1       8.737  12.331  18.696  0.00  0.00    +0.000 OA
ATOM     33  O   UNL     1       9.333  10.490  20.319  0.00  0.00    +0.000 OA
ENDBRANCH  28  30
ENDBRANCH  27  28
ENDBRANCH  26  27
ENDBRANCH  24  26
ENDBRANCH  23  24
ENDBRANCH   6  23
TORSDOF 9
ENDMDL
