MODEL 1
REMARK VINA RESULT:      -7.8      0.000      0.000
REMARK  Name = 
REMARK  14 active torsions:
REMARK  status: ('A' for Active; 'I' for Inactive)
REMARK    1  A    between atoms: C_1  and  O_2
REMARK    2  A    between atoms: O_2  and  C_3
REMARK    3  A    between atoms: C_6  and  C_7
REMARK    4  A    between atoms: C_7  and  C_9
REMARK    5  A    between atoms: C_10  and  C_11
REMARK    6  A    between atoms: C_13  and  O_14
REMARK    7  A    between atoms: O_14  and  C_15
REMARK    8  A    between atoms: C_16  and  O_17
REMARK    9  A    between atoms: O_17  and  C_18
REMARK   10  A    between atoms: C_19  and  O_20
REMARK   11  A    between atoms: O_20  and  C_21
REMARK   12  A    between atoms: C_24  and  N_25
REMARK   13  A    between atoms: C_26  and  C_27
REMARK   14  A    between atoms: C_32  and  O_33
REMARK                            x       y       z     vdW  Elec       q    Type
REMARK                         _______ _______ _______ _____ _____    ______ ____
ROOT
ATOM      1  C   UNL     1      -2.789  11.373  18.620  0.00  0.00    +0.000 A 
ATOM      2  C   UNL     1      -2.332  10.592  17.543  0.00  0.00    +0.000 A 
ATOM      3  C   UNL     1      -1.012  10.168  17.475  0.00  0.00    +0.000 A 
ATOM      4  C   UNL     1      -0.102  10.494  18.482  0.00  0.00    +0.000 A 
ATOM      5  C   UNL     1      -0.562  11.213  19.594  0.00  0.00    +0.000 A 
ATOM      6  C   UNL     1      -1.897  11.662  19.680  0.00  0.00    +0.000 A 
ENDROOT
BRANCH   1   8
ATOM      7  C   UNL     1      -5.075  11.074  18.040  0.00  0.00    +0.000 C 
ATOM      8  O   UNL     1      -4.063  11.862  18.667  0.00  0.00    +0.000 OA
ENDBRANCH   1   8
BRANCH   4   9
ATOM      9  C   UNL     1       1.308  10.033  18.307  0.00  0.00    +0.000 C 
ATOM     10  O   UNL     1       2.198  10.851  18.090  0.00  0.00    +0.000 OA
BRANCH   9  11
ATOM     11  C   UNL     1       1.607   8.580  18.445  0.00  0.00    +0.000 C 
ATOM     12  C   UNL     1       2.718   8.064  17.892  0.00  0.00    +0.000 C 
BRANCH  12  13
ATOM     13  C   UNL     1       2.982   6.623  17.921  0.00  0.00    +0.000 A 
ATOM     14  C   UNL     1       4.203   6.162  17.443  0.00  0.00    +0.000 A 
ATOM     15  C   UNL     1       4.505   4.797  17.417  0.00  0.00    +0.000 A 
ATOM     16  C   UNL     1       3.551   3.848  17.871  0.00  0.00    +0.000 A 
ATOM     17  C   UNL     1       2.299   4.314  18.340  0.00  0.00    +0.000 A 
ATOM     18  C   UNL     1       2.041   5.700  18.369  0.00  0.00    +0.000 A 
BRANCH  15  19
ATOM     19  O   UNL     1       5.717   4.350  16.929  0.00  0.00    +0.000 OA
ATOM     20  C   UNL     1       6.846   4.631  17.767  0.00  0.00    +0.000 C 
ENDBRANCH  15  19
BRANCH  16  21
ATOM     21  O   UNL     1       3.921   2.524  17.755  0.00  0.00    +0.000 OA
ATOM     22  C   UNL     1       4.154   1.777  18.945  0.00  0.00    +0.000 C 
ENDBRANCH  16  21
BRANCH  17  23
ATOM     23  O   UNL     1       1.353   3.395  18.713  0.00  0.00    +0.000 OA
ATOM     24  C   UNL     1       0.869   3.427  20.052  0.00  0.00    +0.000 C 
ENDBRANCH  17  23
ENDBRANCH  12  13
ENDBRANCH   9  11
ENDBRANCH   4   9
BRANCH   6  25
ATOM     25  N   UNL     1      -2.190  12.534  20.749  0.00  0.00    +0.000 NA
ATOM     26  C   UNL     1      -1.605  12.423  21.901  0.00  0.00    +0.000 C 
BRANCH  26  27
ATOM     27  C   UNL     1      -2.053  13.251  23.047  0.00  0.00    +0.000 A 
ATOM     28  C   UNL     1      -1.153  14.174  23.600  0.00  0.00    +0.000 A 
ATOM     29  C   UNL     1      -1.545  15.008  24.646  0.00  0.00    +0.000 A 
ATOM     30  C   UNL     1      -2.844  14.932  25.142  0.00  0.00    +0.000 A 
ATOM     31  C   UNL     1      -3.749  14.011  24.605  0.00  0.00    +0.000 A 
ATOM     32  C   UNL     1      -3.355  13.167  23.563  0.00  0.00    +0.000 A 
BRANCH  32  33
ATOM     33  O   UNL     1      -4.250  12.260  23.067  0.00  0.00    +0.000 OA
ATOM     34  H   UNL     1      -4.891  12.720  22.507  0.00  0.00    +0.000 HD
ENDBRANCH  32  33
ENDBRANCH  26  27
ENDBRANCH   6  25
TORSDOF 10
ENDMDL
MODEL 2
REMARK VINA RESULT:      -7.5      1.107      2.426
REMARK  Name = 
REMARK  14 active torsions:
REMARK  status: ('A' for Active; 'I' for Inactive)
REMARK    1  A    between atoms: C_1  and  O_2
REMARK    2  A    between atoms: O_2  and  C_3
REMARK    3  A    between atoms: C_6  and  C_7
REMARK    4  A    between atoms: C_7  and  C_9
REMARK    5  A    between atoms: C_10  and  C_11
REMARK    6  A    between atoms: C_13  and  O_14
REMARK    7  A    between atoms: O_14  and  C_15
REMARK    8  A    between atoms: C_16  and  O_17
REMARK    9  A    between atoms: O_17  and  C_18
REMARK   10  A    between atoms: C_19  and  O_20
REMARK   11  A    between atoms: O_20  and  C_21
REMARK   12  A    between atoms: C_24  and  N_25
REMARK   13  A    between atoms: C_26  and  C_27
REMARK   14  A    between atoms: C_32  and  O_33
REMARK                            x       y       z     vdW  Elec       q    Type
REMARK                         _______ _______ _______ _____ _____    ______ ____
ROOT
ATOM      1  C   UNL     1      -3.032  10.819  18.131  0.00  0.00    +0.000 A 
ATOM      2  C   UNL     1      -2.329   9.957  17.270  0.00  0.00    +0.000 A 
ATOM      3  C   UNL     1      -0.961   9.768  17.406  0.00  0.00    +0.000 A 
ATOM      4  C   UNL     1      -0.244  10.418  18.413  0.00  0.00    +0.000 A 
ATOM      5  C   UNL     1      -0.945  11.224  19.320  0.00  0.00    +0.000 A 
ATOM      6  C   UNL     1      -2.334  11.438  19.194  0.00  0.00    +0.000 A 
ENDROOT
BRANCH   1   8
ATOM      7  C   UNL     1      -4.751  11.672  16.728  0.00  0.00    +0.000 C 
ATOM      8  O   UNL     1      -4.363  11.075  17.966  0.00  0.00    +0.000 OA
ENDBRANCH   1   8
BRANCH   4   9
ATOM      9  C   UNL     1       1.231  10.190  18.460  0.00  0.00    +0.000 C 
ATOM     10  O   UNL     1       2.001  11.143  18.371  0.00  0.00    +0.000 OA
BRANCH   9  11
ATOM     11  C   UNL     1       1.734   8.802  18.661  0.00  0.00    +0.000 C 
ATOM     12  C   UNL     1       2.615   8.271  17.795  0.00  0.00    +0.000 C 
BRANCH  12  13
ATOM     13  C   UNL     1       3.043   6.875  17.909  0.00  0.00    +0.000 A 
ATOM     14  C   UNL     1       2.102   5.920  18.276  0.00  0.00    +0.000 A 
ATOM     15  C   UNL     1       2.453   4.575  18.429  0.00  0.00    +0.000 A 
ATOM     16  C   UNL     1       3.796   4.162  18.223  0.00  0.00    +0.000 A 
ATOM     17  C   UNL     1       4.759   5.136  17.868  0.00  0.00    +0.000 A 
ATOM     18  C   UNL     1       4.362   6.479  17.704  0.00  0.00    +0.000 A 
BRANCH  15  19
ATOM     19  O   UNL     1       1.511   3.636  18.805  0.00  0.00    +0.000 OA
ATOM     20  C   UNL     1       0.953   3.833  20.111  0.00  0.00    +0.000 C 
ENDBRANCH  15  19
BRANCH  16  21
ATOM     21  O   UNL     1       4.053   2.825  18.451  0.00  0.00    +0.000 OA
ATOM     22  C   UNL     1       4.413   2.418  19.768  0.00  0.00    +0.000 C 
ENDBRANCH  16  21
BRANCH  17  23
ATOM     23  O   UNL     1       6.068   4.749  17.738  0.00  0.00    +0.000 OA
ATOM     24  C   UNL     1       6.542   4.389  16.443  0.00  0.00    +0.000 C 
ENDBRANCH  17  23
ENDBRANCH  12  13
ENDBRANCH   9  11
ENDBRANCH   4   9
BRANCH   6  25
ATOM     25  N   UNL     1      -2.890  12.415  20.046  0.00  0.00    +0.000 NA
ATOM     26  C   UNL     1      -2.147  13.231  20.728  0.00  0.00    +0.000 C 
BRANCH  26  27
ATOM     27  C   UNL     1      -2.758  14.134  21.733  0.00  0.00    +0.000 A 
ATOM     28  C   UNL     1      -2.326  15.467  21.787  0.00  0.00    +0.000 A 
ATOM     29  C   UNL     1      -2.906  16.365  22.681  0.00  0.00    +0.000 A 
ATOM     30  C   UNL     1      -3.931  15.940  23.523  0.00  0.00    +0.000 A 
ATOM     31  C   UNL     1      -4.366  14.612  23.485  0.00  0.00    +0.000 A 
ATOM     32  C   UNL     1      -3.778  13.707  22.596  0.00  0.00    +0.000 A 
BRANCH  32  33
ATOM     33  O   UNL     1      -4.205  12.408  22.590  0.00  0.00    +0.000 OA
ATOM     34  H   UNL     1      -4.090  12.039  21.703  0.00  0.00    +0.000 HD
ENDBRANCH  32  33
ENDBRANCH  26  27
ENDBRANCH   6  25
TORSDOF 10
ENDMDL
MODEL 3
REMARK VINA RESULT:      -7.5      1.014      1.053
REMARK  Name = 
REMARK  14 active torsions:
REMARK  status: ('A' for Active; 'I' for Inactive)
REMARK    1  A    between atoms: C_1  and  O_2
REMARK    2  A    between atoms: O_2  and  C_3
REMARK    3  A    between atoms: C_6  and  C_7
REMARK    4  A    between atoms: C_7  and  C_9
REMARK    5  A    between atoms: C_10  and  C_11
REMARK    6  A    between atoms: C_13  and  O_14
REMARK    7  A    between atoms: O_14  and  C_15
REMARK    8  A    between atoms: C_16  and  O_17
REMARK    9  A    between atoms: O_17  and  C_18
REMARK   10  A    between atoms: C_19  and  O_20
REMARK   11  A    between atoms: O_20  and  C_21
REMARK   12  A    between atoms: C_24  and  N_25
REMARK   13  A    between atoms: C_26  and  C_27
REMARK   14  A    between atoms: C_32  and  O_33
REMARK                            x       y       z     vdW  Elec       q    Type
REMARK                         _______ _______ _______ _____ _____    ______ ____
ROOT
ATOM      1  C   UNL     1      -2.826  11.179  18.318  0.00  0.00    +0.000 A 
ATOM      2  C   UNL     1      -2.301  10.233  17.419  0.00  0.00    +0.000 A 
ATOM      3  C   UNL     1      -0.954   9.900  17.436  0.00  0.00    +0.000 A 
ATOM      4  C   UNL     1      -0.083  10.485  18.358  0.00  0.00    +0.000 A 
ATOM      5  C   UNL     1      -0.608  11.377  19.303  0.00  0.00    +0.000 A 
ATOM      6  C   UNL     1      -1.972  11.737  19.297  0.00  0.00    +0.000 A 
ENDROOT
BRANCH   1   8
ATOM      7  C   UNL     1      -4.750  11.577  16.980  0.00  0.00    +0.000 C 
ATOM      8  O   UNL     1      -4.132  11.575  18.267  0.00  0.00    +0.000 OA
ENDBRANCH   1   8
BRANCH   4   9
ATOM      9  C   UNL     1       1.358  10.101  18.277  0.00  0.00    +0.000 C 
ATOM     10  O   UNL     1       2.203  10.946  17.992  0.00  0.00    +0.000 OA
BRANCH   9  11
ATOM     11  C   UNL     1       1.743   8.697  18.594  0.00  0.00    +0.000 C 
ATOM     12  C   UNL     1       2.718   8.090  17.896  0.00  0.00    +0.000 C 
BRANCH  12  13
ATOM     13  C   UNL     1       3.041   6.678  18.114  0.00  0.00    +0.000 A 
ATOM     14  C   UNL     1       4.370   6.280  18.024  0.00  0.00    +0.000 A 
ATOM     15  C   UNL     1       4.743   4.943  18.193  0.00  0.00    +0.000 A 
ATOM     16  C   UNL     1       3.753   3.956  18.448  0.00  0.00    +0.000 A 
ATOM     17  C   UNL     1       2.397   4.356  18.520  0.00  0.00    +0.000 A 
ATOM     18  C   UNL     1       2.066   5.717  18.364  0.00  0.00    +0.000 A 
BRANCH  15  19
ATOM     19  O   UNL     1       6.065   4.557  18.090  0.00  0.00    +0.000 OA
ATOM     20  C   UNL     1       7.014   5.532  18.542  0.00  0.00    +0.000 C 
ENDBRANCH  15  19
BRANCH  16  21
ATOM     21  O   UNL     1       4.213   2.658  18.546  0.00  0.00    +0.000 OA
ATOM     22  C   UNL     1       4.402   2.101  19.843  0.00  0.00    +0.000 C 
ENDBRANCH  16  21
BRANCH  17  23
ATOM     23  O   UNL     1       1.437   3.394  18.697  0.00  0.00    +0.000 OA
ATOM     24  C   UNL     1       0.838   3.263  19.983  0.00  0.00    +0.000 C 
ENDBRANCH  17  23
ENDBRANCH  12  13
ENDBRANCH   9  11
ENDBRANCH   4   9
BRANCH   6  25
ATOM     25  N   UNL     1      -2.340  12.782  20.170  0.00  0.00    +0.000 NA
ATOM     26  C   UNL     1      -2.679  12.557  21.402  0.00  0.00    +0.000 C 
BRANCH  26  27
ATOM     27  C   UNL     1      -3.214  13.657  22.241  0.00  0.00    +0.000 A 
ATOM     28  C   UNL     1      -3.031  14.979  21.810  0.00  0.00    +0.000 A 
ATOM     29  C   UNL     1      -3.559  16.043  22.541  0.00  0.00    +0.000 A 
ATOM     30  C   UNL     1      -4.283  15.792  23.704  0.00  0.00    +0.000 A 
ATOM     31  C   UNL     1      -4.466  14.479  24.148  0.00  0.00    +0.000 A 
ATOM     32  C   UNL     1      -3.929  13.412  23.423  0.00  0.00    +0.000 A 
BRANCH  32  33
ATOM     33  O   UNL     1      -4.104  12.137  23.886  0.00  0.00    +0.000 OA
ATOM     34  H   UNL     1      -3.247  11.776  24.153  0.00  0.00    +0.000 HD
ENDBRANCH  32  33
ENDBRANCH  26  27
ENDBRANCH   6  25
TORSDOF 10
ENDMDL
MODEL 4
REMARK VINA RESULT:      -7.5      1.196      1.488
REMARK  Name = 
REMARK  14 active torsions:
REMARK  status: ('A' for Active; 'I' for Inactive)
REMARK    1  A    between atoms: C_1  and  O_2
REMARK    2  A    between atoms: O_2  and  C_3
REMARK    3  A    between atoms: C_6  and  C_7
REMARK    4  A    between atoms: C_7  and  C_9
REMARK    5  A    between atoms: C_10  and  C_11
REMARK    6  A    between atoms: C_13  and  O_14
REMARK    7  A    between atoms: O_14  and  C_15
REMARK    8  A    between atoms: C_16  and  O_17
REMARK    9  A    between atoms: O_17  and  C_18
REMARK   10  A    between atoms: C_19  and  O_20
REMARK   11  A    between atoms: O_20  and  C_21
REMARK   12  A    between atoms: C_24  and  N_25
REMARK   13  A    between atoms: C_26  and  C_27
REMARK   14  A    between atoms: C_32  and  O_33
REMARK                            x       y       z     vdW  Elec       q    Type
REMARK                         _______ _______ _______ _____ _____    ______ ____
ROOT
ATOM      1  C   UNL     1      -2.478  11.329  18.848  0.00  0.00    +0.000 A 
ATOM      2  C   UNL     1      -2.225  10.485  17.752  0.00  0.00    +0.000 A 
ATOM      3  C   UNL     1      -0.950   9.995  17.506  0.00  0.00    +0.000 A 
ATOM      4  C   UNL     1       0.116  10.315  18.349  0.00  0.00    +0.000 A 
ATOM      5  C   UNL     1      -0.139  11.098  19.483  0.00  0.00    +0.000 A 
ATOM      6  C   UNL     1      -1.425  11.615  19.747  0.00  0.00    +0.000 A 
ENDROOT
BRANCH   1   8
ATOM      7  C   UNL     1      -4.813  11.263  18.402  0.00  0.00    +0.000 C 
ATOM      8  O   UNL     1      -3.709  11.881  19.063  0.00  0.00    +0.000 OA
ENDBRANCH   1   8
BRANCH   4   9
ATOM      9  C   UNL     1       1.462   9.779  17.985  0.00  0.00    +0.000 C 
ATOM     10  O   UNL     1       2.370  10.551  17.690  0.00  0.00    +0.000 OA
BRANCH   9  11
ATOM     11  C   UNL     1       1.682   8.306  18.035  0.00  0.00    +0.000 C 
ATOM     12  C   UNL     1       2.323   7.754  19.079  0.00  0.00    +0.000 C 
BRANCH  12  13
ATOM     13  C   UNL     1       2.647   6.326  19.102  0.00  0.00    +0.000 A 
ATOM     14  C   UNL     1       3.781   5.891  18.426  0.00  0.00    +0.000 A 
ATOM     15  C   UNL     1       4.130   4.537  18.385  0.00  0.00    +0.000 A 
ATOM     16  C   UNL     1       3.312   3.572  19.031  0.00  0.00    +0.000 A 
ATOM     17  C   UNL     1       2.146   4.011  19.703  0.00  0.00    +0.000 A 
ATOM     18  C   UNL     1       1.840   5.386  19.738  0.00  0.00    +0.000 A 
BRANCH  15  19
ATOM     19  O   UNL     1       5.253   4.116  17.701  0.00  0.00    +0.000 OA
ATOM     20  C   UNL     1       5.358   4.603  16.357  0.00  0.00    +0.000 C 
ENDBRANCH  15  19
BRANCH  16  21
ATOM     21  O   UNL     1       3.710   2.259  18.889  0.00  0.00    +0.000 OA
ATOM     22  C   UNL     1       4.560   1.695  19.883  0.00  0.00    +0.000 C 
ENDBRANCH  16  21
BRANCH  17  23
ATOM     23  O   UNL     1       1.320   3.072  20.266  0.00  0.00    +0.000 OA
ATOM     24  C   UNL     1       1.475   2.779  21.652  0.00  0.00    +0.000 C 
ENDBRANCH  17  23
ENDBRANCH  12  13
ENDBRANCH   9  11
ENDBRANCH   4   9
BRANCH   6  25
ATOM     25  N   UNL     1      -1.514  12.542  20.807  0.00  0.00    +0.000 NA
ATOM     26  C   UNL     1      -1.859  12.181  22.004  0.00  0.00    +0.000 C 
BRANCH  26  27
ATOM     27  C   UNL     1      -2.099  13.203  23.051  0.00  0.00    +0.000 A 
ATOM     28  C   UNL     1      -3.314  13.174  23.750  0.00  0.00    +0.000 A 
ATOM     29  C   UNL     1      -3.564  14.084  24.776  0.00  0.00    +0.000 A 
ATOM     30  C   UNL     1      -2.596  15.024  25.119  0.00  0.00    +0.000 A 
ATOM     31  C   UNL     1      -1.383  15.069  24.425  0.00  0.00    +0.000 A 
ATOM     32  C   UNL     1      -1.134  14.164  23.389  0.00  0.00    +0.000 A 
BRANCH  32  33
ATOM     33  O   UNL     1       0.051  14.238  22.710  0.00  0.00    +0.000 OA
ATOM     34  H   UNL     1       0.427  15.122  22.824  0.00  0.00    +0.000 HD
ENDBRANCH  32  33
ENDBRANCH  26  27
ENDBRANCH   6  25
TORSDOF 10
ENDMDL
MODEL 5
REMARK VINA RESULT:      -7.4      1.021      2.505
REMARK  Name = 
REMARK  14 active torsions:
REMARK  status: ('A' for Active; 'I' for Inactive)
REMARK    1  A    between atoms: C_1  and  O_2
REMARK    2  A    between atoms: O_2  and  C_3
REMARK    3  A    between atoms: C_6  and  C_7
REMARK    4  A    between atoms: C_7  and  C_9
REMARK    5  A    between atoms: C_10  and  C_11
REMARK    6  A    between atoms: C_13  and  O_14
REMARK    7  A    between atoms: O_14  and  C_15
REMARK    8  A    between atoms: C_16  and  O_17
REMARK    9  A    between atoms: O_17  and  C_18
REMARK   10  A    between atoms: C_19  and  O_20
REMARK   11  A    between atoms: O_20  and  C_21
REMARK   12  A    between atoms: C_24  and  N_25
REMARK   13  A    between atoms: C_26  and  C_27
REMARK   14  A    between atoms: C_32  and  O_33
REMARK                            x       y       z     vdW  Elec       q    Type
REMARK                         _______ _______ _______ _____ _____    ______ ____
ROOT
ATOM      1  C   UNL     1      -2.730  11.251  18.536  0.00  0.00    +0.000 A 
ATOM      2  C   UNL     1      -2.249  10.465  17.474  0.00  0.00    +0.000 A 
ATOM      3  C   UNL     1      -0.918  10.073  17.419  0.00  0.00    +0.000 A 
ATOM      4  C   UNL     1      -0.021  10.438  18.425  0.00  0.00    +0.000 A 
ATOM      5  C   UNL     1      -0.505  11.164  19.523  0.00  0.00    +0.000 A 
ATOM      6  C   UNL     1      -1.851  11.580  19.594  0.00  0.00    +0.000 A 
ENDROOT
BRANCH   1   8
ATOM      7  C   UNL     1      -5.040  10.766  18.250  0.00  0.00    +0.000 C 
ATOM      8  O   UNL     1      -4.016  11.709  18.569  0.00  0.00    +0.000 OA
ENDBRANCH   1   8
BRANCH   4   9
ATOM      9  C   UNL     1       1.400  10.011  18.263  0.00  0.00    +0.000 C 
ATOM     10  O   UNL     1       2.264  10.842  17.997  0.00  0.00    +0.000 OA
BRANCH   9  11
ATOM     11  C   UNL     1       1.744   8.577  18.477  0.00  0.00    +0.000 C 
ATOM     12  C   UNL     1       2.868   8.066  17.947  0.00  0.00    +0.000 C 
BRANCH  12  13
ATOM     13  C   UNL     1       3.176   6.637  18.051  0.00  0.00    +0.000 A 
ATOM     14  C   UNL     1       2.278   5.812  18.718  0.00  0.00    +0.000 A 
ATOM     15  C   UNL     1       2.527   4.445  18.877  0.00  0.00    +0.000 A 
ATOM     16  C   UNL     1       3.722   3.875  18.364  0.00  0.00    +0.000 A 
ATOM     17  C   UNL     1       4.647   4.718  17.701  0.00  0.00    +0.000 A 
ATOM     18  C   UNL     1       4.350   6.087  17.545  0.00  0.00    +0.000 A 
BRANCH  15  19
ATOM     19  O   UNL     1       1.633   3.637  19.552  0.00  0.00    +0.000 OA
ATOM     20  C   UNL     1       0.641   3.013  18.726  0.00  0.00    +0.000 C 
ENDBRANCH  15  19
BRANCH  16  21
ATOM     21  O   UNL     1       3.902   2.531  18.618  0.00  0.00    +0.000 OA
ATOM     22  C   UNL     1       4.502   2.147  19.852  0.00  0.00    +0.000 C 
ENDBRANCH  16  21
BRANCH  17  23
ATOM     23  O   UNL     1       5.832   4.181  17.269  0.00  0.00    +0.000 OA
ATOM     24  C   UNL     1       6.055   4.076  15.866  0.00  0.00    +0.000 C 
ENDBRANCH  17  23
ENDBRANCH  12  13
ENDBRANCH   9  11
ENDBRANCH   4   9
BRANCH   6  25
ATOM     25  N   UNL     1      -2.171  12.462  20.648  0.00  0.00    +0.000 NA
ATOM     26  C   UNL     1      -1.553  12.419  21.787  0.00  0.00    +0.000 C 
BRANCH  26  27
ATOM     27  C   UNL     1      -2.023  13.250  22.923  0.00  0.00    +0.000 A 
ATOM     28  C   UNL     1      -3.290  12.988  23.466  0.00  0.00    +0.000 A 
ATOM     29  C   UNL     1      -3.753  13.710  24.564  0.00  0.00    +0.000 A 
ATOM     30  C   UNL     1      -2.950  14.694  25.135  0.00  0.00    +0.000 A 
ATOM     31  C   UNL     1      -1.689  14.970  24.599  0.00  0.00    +0.000 A 
ATOM     32  C   UNL     1      -1.226  14.254  23.491  0.00  0.00    +0.000 A 
BRANCH  32  33
ATOM     33  O   UNL     1       0.002  14.555  22.970  0.00  0.00    +0.000 OA
ATOM     34  H   UNL     1      -0.081  15.316  22.378  0.00  0.00    +0.000 HD
ENDBRANCH  32  33
ENDBRANCH  26  27
ENDBRANCH   6  25
TORSDOF 10
ENDMDL
MODEL 6
REMARK VINA RESULT:      -7.4      2.572     11.047
REMARK  Name = 
REMARK  14 active torsions:
REMARK  status: ('A' for Active; 'I' for Inactive)
REMARK    1  A    between atoms: C_1  and  O_2
REMARK    2  A    between atoms: O_2  and  C_3
REMARK    3  A    between atoms: C_6  and  C_7
REMARK    4  A    between atoms: C_7  and  C_9
REMARK    5  A    between atoms: C_10  and  C_11
REMARK    6  A    between atoms: C_13  and  O_14
REMARK    7  A    between atoms: O_14  and  C_15
REMARK    8  A    between atoms: C_16  and  O_17
REMARK    9  A    between atoms: O_17  and  C_18
REMARK   10  A    between atoms: C_19  and  O_20
REMARK   11  A    between atoms: O_20  and  C_21
REMARK   12  A    between atoms: C_24  and  N_25
REMARK   13  A    between atoms: C_26  and  C_27
REMARK   14  A    between atoms: C_32  and  O_33
REMARK                            x       y       z     vdW  Elec       q    Type
REMARK                         _______ _______ _______ _____ _____    ______ ____
ROOT
ATOM      1  C   UNL     1       2.538   5.953  19.847  0.00  0.00    +0.000 A 
ATOM      2  C   UNL     1       1.860   6.792  20.750  0.00  0.00    +0.000 A 
ATOM      3  C   UNL     1       1.441   8.060  20.372  0.00  0.00    +0.000 A 
ATOM      4  C   UNL     1       1.669   8.534  19.078  0.00  0.00    +0.000 A 
ATOM      5  C   UNL     1       2.282   7.681  18.150  0.00  0.00    +0.000 A 
ATOM      6  C   UNL     1       2.724   6.392  18.515  0.00  0.00    +0.000 A 
ENDROOT
BRANCH   1   8
ATOM      7  C   UNL     1       2.302   4.043  21.243  0.00  0.00    +0.000 C 
ATOM      8  O   UNL     1       3.024   4.733  20.223  0.00  0.00    +0.000 OA
ENDBRANCH   1   8
BRANCH   4   9
ATOM      9  C   UNL     1       1.223   9.926  18.770  0.00  0.00    +0.000 C 
ATOM     10  O   UNL     1       1.954  10.676  18.129  0.00  0.00    +0.000 OA
BRANCH   9  11
ATOM     11  C   UNL     1      -0.132  10.358  19.216  0.00  0.00    +0.000 C 
ATOM     12  C   UNL     1      -0.910  11.088  18.400  0.00  0.00    +0.000 C 
BRANCH  12  13
ATOM     13  C   UNL     1      -2.200  11.616  18.851  0.00  0.00    +0.000 A 
ATOM     14  C   UNL     1      -2.255  12.279  20.072  0.00  0.00    +0.000 A 
ATOM     15  C   UNL     1      -3.461  12.781  20.573  0.00  0.00    +0.000 A 
ATOM     16  C   UNL     1      -4.664  12.606  19.839  0.00  0.00    +0.000 A 
ATOM     17  C   UNL     1      -4.613  11.914  18.605  0.00  0.00    +0.000 A 
ATOM     18  C   UNL     1      -3.375  11.440  18.126  0.00  0.00    +0.000 A 
BRANCH  15  19
ATOM     19  O   UNL     1      -3.505  13.428  21.793  0.00  0.00    +0.000 OA
ATOM     20  C   UNL     1      -3.242  12.593  22.928  0.00  0.00    +0.000 C 
ENDBRANCH  15  19
BRANCH  16  21
ATOM     21  O   UNL     1      -5.808  13.088  20.442  0.00  0.00    +0.000 OA
ATOM     22  C   UNL     1      -6.628  12.178  21.169  0.00  0.00    +0.000 C 
ENDBRANCH  16  21
BRANCH  17  23
ATOM     23  O   UNL     1      -5.785  11.684  17.932  0.00  0.00    +0.000 OA
ATOM     24  C   UNL     1      -6.324  12.735  17.135  0.00  0.00    +0.000 C 
ENDBRANCH  17  23
ENDBRANCH  12  13
ENDBRANCH   9  11
ENDBRANCH   4   9
BRANCH   6  25
ATOM     25  N   UNL     1       3.493   5.705  17.553  0.00  0.00    +0.000 NA
ATOM     26  C   UNL     1       4.746   5.977  17.358  0.00  0.00    +0.000 C 
BRANCH  26  27
ATOM     27  C   UNL     1       5.479   5.350  16.231  0.00  0.00    +0.000 A 
ATOM     28  C   UNL     1       4.798   4.434  15.416  0.00  0.00    +0.000 A 
ATOM     29  C   UNL     1       5.432   3.857  14.316  0.00  0.00    +0.000 A 
ATOM     30  C   UNL     1       6.748   4.198  14.018  0.00  0.00    +0.000 A 
ATOM     31  C   UNL     1       7.441   5.103  14.827  0.00  0.00    +0.000 A 
ATOM     32  C   UNL     1       6.811   5.676  15.936  0.00  0.00    +0.000 A 
BRANCH  32  33
ATOM     33  O   UNL     1       7.514   6.544  16.726  0.00  0.00    +0.000 OA
ATOM     34  H   UNL     1       7.433   7.438  16.366  0.00  0.00    +0.000 HD
ENDBRANCH  32  33
ENDBRANCH  26  27
ENDBRANCH   6  25
TORSDOF 10
ENDMDL
MODEL 7
REMARK VINA RESULT:      -7.4      2.570     10.722
REMARK  Name = 
REMARK  14 active torsions:
REMARK  status: ('A' for Active; 'I' for Inactive)
REMARK    1  A    between atoms: C_1  and  O_2
REMARK    2  A    between atoms: O_2  and  C_3
REMARK    3  A    between atoms: C_6  and  C_7
REMARK    4  A    between atoms: C_7  and  C_9
REMARK    5  A    between atoms: C_10  and  C_11
REMARK    6  A    between atoms: C_13  and  O_14
REMARK    7  A    between atoms: O_14  and  C_15
REMARK    8  A    between atoms: C_16  and  O_17
REMARK    9  A    between atoms: O_17  and  C_18
REMARK   10  A    between atoms: C_19  and  O_20
REMARK   11  A    between atoms: O_20  and  C_21
REMARK   12  A    between atoms: C_24  and  N_25
REMARK   13  A    between atoms: C_26  and  C_27
REMARK   14  A    between atoms: C_32  and  O_33
REMARK                            x       y       z     vdW  Elec       q    Type
REMARK                         _______ _______ _______ _____ _____    ______ ____
ROOT
ATOM      1  C   UNL     1       2.034   6.668  20.183  0.00  0.00    +0.000 A 
ATOM      2  C   UNL     1       1.447   7.656  20.993  0.00  0.00    +0.000 A 
ATOM      3  C   UNL     1       1.188   8.927  20.499  0.00  0.00    +0.000 A 
ATOM      4  C   UNL     1       1.490   9.257  19.176  0.00  0.00    +0.000 A 
ATOM      5  C   UNL     1       2.011   8.260  18.339  0.00  0.00    +0.000 A 
ATOM      6  C   UNL     1       2.291   6.965  18.824  0.00  0.00    +0.000 A 
ENDROOT
BRANCH   1   8
ATOM      7  C   UNL     1       1.327   4.459  20.703  0.00  0.00    +0.000 C 
ATOM      8  O   UNL     1       2.365   5.437  20.673  0.00  0.00    +0.000 OA
ENDBRANCH   1   8
BRANCH   4   9
ATOM      9  C   UNL     1       1.218  10.659  18.740  0.00  0.00    +0.000 C 
ATOM     10  O   UNL     1       2.152  11.410  18.472  0.00  0.00    +0.000 OA
BRANCH   9  11
ATOM     11  C   UNL     1      -0.198  11.101  18.597  0.00  0.00    +0.000 C 
ATOM     12  C   UNL     1      -0.891  11.507  19.675  0.00  0.00    +0.000 C 
BRANCH  12  13
ATOM     13  C   UNL     1      -2.313  11.844  19.581  0.00  0.00    +0.000 A 
ATOM     14  C   UNL     1      -3.010  11.468  18.438  0.00  0.00    +0.000 A 
ATOM     15  C   UNL     1      -4.363  11.784  18.274  0.00  0.00    +0.000 A 
ATOM     16  C   UNL     1      -5.049  12.516  19.279  0.00  0.00    +0.000 A 
ATOM     17  C   UNL     1      -4.336  12.917  20.434  0.00  0.00    +0.000 A 
ATOM     18  C   UNL     1      -2.979  12.561  20.571  0.00  0.00    +0.000 A 
BRANCH  15  19
ATOM     19  O   UNL     1      -5.042  11.415  17.129  0.00  0.00    +0.000 OA
ATOM     20  C   UNL     1      -4.205  11.057  16.021  0.00  0.00    +0.000 C 
ENDBRANCH  15  19
BRANCH  16  21
ATOM     21  O   UNL     1      -6.364  12.826  19.000  0.00  0.00    +0.000 OA
ATOM     22  C   UNL     1      -7.386  11.988  19.531  0.00  0.00    +0.000 C 
ENDBRANCH  16  21
BRANCH  17  23
ATOM     23  O   UNL     1      -4.980  13.683  21.371  0.00  0.00    +0.000 OA
ATOM     24  C   UNL     1      -5.429  13.054  22.567  0.00  0.00    +0.000 C 
ENDBRANCH  17  23
ENDBRANCH  12  13
ENDBRANCH   9  11
ENDBRANCH   4   9
BRANCH   6  25
ATOM     25  N   UNL     1       2.987   6.111  17.943  0.00  0.00    +0.000 NA
ATOM     26  C   UNL     1       4.255   6.256  17.709  0.00  0.00    +0.000 C 
BRANCH  26  27
ATOM     27  C   UNL     1       4.917   5.446  16.658  0.00  0.00    +0.000 A 
ATOM     28  C   UNL     1       5.332   6.084  15.481  0.00  0.00    +0.000 A 
ATOM     29  C   UNL     1       6.002   5.374  14.486  0.00  0.00    +0.000 A 
ATOM     30  C   UNL     1       6.272   4.019  14.666  0.00  0.00    +0.000 A 
ATOM     31  C   UNL     1       5.857   3.369  15.832  0.00  0.00    +0.000 A 
ATOM     32  C   UNL     1       5.176   4.077  16.826  0.00  0.00    +0.000 A 
BRANCH  32  33
ATOM     33  O   UNL     1       4.762   3.416  17.949  0.00  0.00    +0.000 OA
ATOM     34  H   UNL     1       3.854   3.110  17.822  0.00  0.00    +0.000 HD
ENDBRANCH  32  33
ENDBRANCH  26  27
ENDBRANCH   6  25
TORSDOF 10
ENDMDL
MODEL 8
REMARK VINA RESULT:      -7.3      1.722      3.907
REMARK  Name = 
REMARK  14 active torsions:
REMARK  status: ('A' for Active; 'I' for Inactive)
REMARK    1  A    between atoms: C_1  and  O_2
REMARK    2  A    between atoms: O_2  and  C_3
REMARK    3  A    between atoms: C_6  and  C_7
REMARK    4  A    between atoms: C_7  and  C_9
REMARK    5  A    between atoms: C_10  and  C_11
REMARK    6  A    between atoms: C_13  and  O_14
REMARK    7  A    between atoms: O_14  and  C_15
REMARK    8  A    between atoms: C_16  and  O_17
REMARK    9  A    between atoms: O_17  and  C_18
REMARK   10  A    between atoms: C_19  and  O_20
REMARK   11  A    between atoms: O_20  and  C_21
REMARK   12  A    between atoms: C_24  and  N_25
REMARK   13  A    between atoms: C_26  and  C_27
REMARK   14  A    between atoms: C_32  and  O_33
REMARK                            x       y       z     vdW  Elec       q    Type
REMARK                         _______ _______ _______ _____ _____    ______ ____
ROOT
ATOM      1  C   UNL     1      -1.110  11.965  21.139  0.00  0.00    +0.000 A 
ATOM      2  C   UNL     1       0.105  11.368  21.520  0.00  0.00    +0.000 A 
ATOM      3  C   UNL     1       0.899  10.706  20.595  0.00  0.00    +0.000 A 
ATOM      4  C   UNL     1       0.521  10.625  19.253  0.00  0.00    +0.000 A 
ATOM      5  C   UNL     1      -0.654  11.276  18.848  0.00  0.00    +0.000 A 
ATOM      6  C   UNL     1      -1.480  11.946  19.774  0.00  0.00    +0.000 A 
ENDROOT
BRANCH   1   8
ATOM      7  C   UNL     1      -2.157  11.849  23.270  0.00  0.00    +0.000 C 
ATOM      8  O   UNL     1      -1.940  12.555  22.049  0.00  0.00    +0.000 OA
ENDBRANCH   1   8
BRANCH   4   9
ATOM      9  C   UNL     1       1.412   9.857  18.334  0.00  0.00    +0.000 C 
ATOM     10  O   UNL     1       1.796  10.365  17.284  0.00  0.00    +0.000 OA
BRANCH   9  11
ATOM     11  C   UNL     1       1.856   8.494  18.743  0.00  0.00    +0.000 C 
ATOM     12  C   UNL     1       2.823   7.864  18.055  0.00  0.00    +0.000 C 
BRANCH  12  13
ATOM     13  C   UNL     1       3.203   6.484  18.368  0.00  0.00    +0.000 A 
ATOM     14  C   UNL     1       4.019   5.801  17.474  0.00  0.00    +0.000 A 
ATOM     15  C   UNL     1       4.394   4.473  17.701  0.00  0.00    +0.000 A 
ATOM     16  C   UNL     1       3.928   3.789  18.855  0.00  0.00    +0.000 A 
ATOM     17  C   UNL     1       3.081   4.477  19.757  0.00  0.00    +0.000 A 
ATOM     18  C   UNL     1       2.742   5.821  19.503  0.00  0.00    +0.000 A 
BRANCH  15  19
ATOM     19  O   UNL     1       5.196   3.800  16.799  0.00  0.00    +0.000 OA
ATOM     20  C   UNL     1       5.582   4.564  15.650  0.00  0.00    +0.000 C 
ENDBRANCH  15  19
BRANCH  16  21
ATOM     21  O   UNL     1       4.308   2.467  18.962  0.00  0.00    +0.000 OA
ATOM     22  C   UNL     1       3.460   1.469  18.401  0.00  0.00    +0.000 C 
ENDBRANCH  16  21
BRANCH  17  23
ATOM     23  O   UNL     1       2.576   3.795  20.834  0.00  0.00    +0.000 OA
ATOM     24  C   UNL     1       1.182   3.502  20.857  0.00  0.00    +0.000 C 
ENDBRANCH  17  23
ENDBRANCH  12  13
ENDBRANCH   9  11
ENDBRANCH   4   9
BRANCH   6  25
ATOM     25  N   UNL     1      -2.724  12.394  19.283  0.00  0.00    +0.000 NA
ATOM     26  C   UNL     1      -3.835  11.801  19.591  0.00  0.00    +0.000 C 
BRANCH  26  27
ATOM     27  C   UNL     1      -5.102  12.198  18.930  0.00  0.00    +0.000 A 
ATOM     28  C   UNL     1      -6.202  12.533  19.734  0.00  0.00    +0.000 A 
ATOM     29  C   UNL     1      -7.398  12.959  19.158  0.00  0.00    +0.000 A 
ATOM     30  C   UNL     1      -7.500  13.064  17.773  0.00  0.00    +0.000 A 
ATOM     31  C   UNL     1      -6.414  12.726  16.960  0.00  0.00    +0.000 A 
ATOM     32  C   UNL     1      -5.218  12.289  17.535  0.00  0.00    +0.000 A 
BRANCH  32  33
ATOM     33  O   UNL     1      -4.175  11.944  16.720  0.00  0.00    +0.000 OA
ATOM     34  H   UNL     1      -4.434  11.189  16.173  0.00  0.00    +0.000 HD
ENDBRANCH  32  33
ENDBRANCH  26  27
ENDBRANCH   6  25
TORSDOF 10
ENDMDL
MODEL 9
REMARK VINA RESULT:      -7.3      2.615      3.953
REMARK  Name = 
REMARK  14 active torsions:
REMARK  status: ('A' for Active; 'I' for Inactive)
REMARK    1  A    between atoms: C_1  and  O_2
REMARK    2  A    between atoms: O_2  and  C_3
REMARK    3  A    between atoms: C_6  and  C_7
REMARK    4  A    between atoms: C_7  and  C_9
REMARK    5  A    between atoms: C_10  and  C_11
REMARK    6  A    between atoms: C_13  and  O_14
REMARK    7  A    between atoms: O_14  and  C_15
REMARK    8  A    between atoms: C_16  and  O_17
REMARK    9  A    between atoms: O_17  and  C_18
REMARK   10  A    between atoms: C_19  and  O_20
REMARK   11  A    between atoms: O_20  and  C_21
REMARK   12  A    between atoms: C_24  and  N_25
REMARK   13  A    between atoms: C_26  and  C_27
REMARK   14  A    between atoms: C_32  and  O_33
REMARK                            x       y       z     vdW  Elec       q    Type
REMARK                         _______ _______ _______ _____ _____    ______ ____
ROOT
ATOM      1  C   UNL     1      -1.016  13.414  20.543  0.00  0.00    +0.000 A 
ATOM      2  C   UNL     1       0.185  12.771  20.194  0.00  0.00    +0.000 A 
ATOM      3  C   UNL     1       0.559  11.578  20.796  0.00  0.00    +0.000 A 
ATOM      4  C   UNL     1      -0.255  10.973  21.756  0.00  0.00    +0.000 A 
ATOM      5  C   UNL     1      -1.487  11.569  22.061  0.00  0.00    +0.000 A 
ATOM      6  C   UNL     1      -1.882  12.787  21.469  0.00  0.00    +0.000 A 
ENDROOT
BRANCH   1   8
ATOM      7  C   UNL     1      -0.294  15.473  19.599  0.00  0.00    +0.000 C 
ATOM      8  O   UNL     1      -1.364  14.626  20.017  0.00  0.00    +0.000 OA
ENDBRANCH   1   8
BRANCH   4   9
ATOM      9  C   UNL     1       0.245   9.714  22.383  0.00  0.00    +0.000 C 
ATOM     10  O   UNL     1       0.465   9.675  23.591  0.00  0.00    +0.000 OA
BRANCH   9  11
ATOM     11  C   UNL     1       0.423   8.509  21.524  0.00  0.00    +0.000 C 
ATOM     12  C   UNL     1       1.650   8.003  21.316  0.00  0.00    +0.000 C 
BRANCH  12  13
ATOM     13  C   UNL     1       1.865   6.887  20.391  0.00  0.00    +0.000 A 
ATOM     14  C   UNL     1       1.353   5.639  20.727  0.00  0.00    +0.000 A 
ATOM     15  C   UNL     1       1.547   4.527  19.902  0.00  0.00    +0.000 A 
ATOM     16  C   UNL     1       2.293   4.655  18.700  0.00  0.00    +0.000 A 
ATOM     17  C   UNL     1       2.832   5.920  18.366  0.00  0.00    +0.000 A 
ATOM     18  C   UNL     1       2.597   7.021  19.215  0.00  0.00    +0.000 A 
BRANCH  15  19
ATOM     19  O   UNL     1       1.043   3.289  20.252  0.00  0.00    +0.000 OA
ATOM     20  C   UNL     1       1.523   2.774  21.500  0.00  0.00    +0.000 C 
ENDBRANCH  15  19
BRANCH  16  21
ATOM     21  O   UNL     1       2.476   3.490  17.983  0.00  0.00    +0.000 OA
ATOM     22  C   UNL     1       3.684   2.759  18.172  0.00  0.00    +0.000 C 
ENDBRANCH  16  21
BRANCH  17  23
ATOM     23  O   UNL     1       3.610   6.027  17.243  0.00  0.00    +0.000 OA
ATOM     24  C   UNL     1       4.917   6.579  17.374  0.00  0.00    +0.000 C 
ENDBRANCH  17  23
ENDBRANCH  12  13
ENDBRANCH   9  11
ENDBRANCH   4   9
BRANCH   6  25
ATOM     25  N   UNL     1      -3.047  13.382  21.995  0.00  0.00    +0.000 NA
ATOM     26  C   UNL     1      -3.999  12.674  22.520  0.00  0.00    +0.000 C 
BRANCH  26  27
ATOM     27  C   UNL     1      -5.276  13.317  22.915  0.00  0.00    +0.000 A 
ATOM     28  C   UNL     1      -5.717  14.434  22.190  0.00  0.00    +0.000 A 
ATOM     29  C   UNL     1      -6.934  15.041  22.494  0.00  0.00    +0.000 A 
ATOM     30  C   UNL     1      -7.726  14.530  23.520  0.00  0.00    +0.000 A 
ATOM     31  C   UNL     1      -7.294  13.423  24.255  0.00  0.00    +0.000 A 
ATOM     32  C   UNL     1      -6.069  12.818  23.959  0.00  0.00    +0.000 A 
BRANCH  32  33
ATOM     33  O   UNL     1      -5.657  11.748  24.705  0.00  0.00    +0.000 OA
ATOM     34  H   UNL     1      -4.692  11.761  24.773  0.00  0.00    +0.000 HD
ENDBRANCH  32  33
ENDBRANCH  26  27
ENDBRANCH   6  25
TORSDOF 10
ENDMDL
