MODEL 1
REMARK VINA RESULT:      -5.8      0.000      0.000
REMARK  Name = 
REMARK  8 active torsions:
REMARK  status: ('A' for Active; 'I' for Inactive)
REMARK    1  A    between atoms: C_1  and  O_2
REMARK    2  A    between atoms: O_2  and  C_3
REMARK    3  A    between atoms: C_6  and  C_7
REMARK    4  A    between atoms: C_7  and  C_9
REMARK    5  A    between atoms: C_9  and  S_10
REMARK    6  A    between atoms: S_10  and  C_11
REMARK    7  A    between atoms: C_14  and  O_15
REMARK    8  A    between atoms: O_15  and  C_16
REMARK                            x       y       z     vdW  Elec       q    Type
REMARK                         _______ _______ _______ _____ _____    ______ ____
ROOT
ATOM      1  C   UNL     1       5.283   6.331  16.828  0.00  0.00    +0.000 A 
ATOM      2  C   UNL     1       4.218   7.002  17.443  0.00  0.00    +0.000 A 
ATOM      3  C   UNL     1       3.107   6.301  17.929  0.00  0.00    +0.000 A 
ATOM      4  C   UNL     1       3.043   4.921  17.770  0.00  0.00    +0.000 A 
ATOM      5  C   UNL     1       4.058   4.261  17.068  0.00  0.00    +0.000 A 
ATOM      6  C   UNL     1       5.177   4.954  16.577  0.00  0.00    +0.000 A 
ENDROOT
BRANCH   1   8
ATOM      7  C   UNL     1       7.347   7.240  17.517  0.00  0.00    +0.000 C 
ATOM      8  O   UNL     1       6.411   7.012  16.461  0.00  0.00    +0.000 OA
ENDBRANCH   1   8
BRANCH   4   9
ATOM      9  C   UNL     1       1.951   4.106  18.375  0.00  0.00    +0.000 C 
ATOM     10  O   UNL     1       1.359   3.304  17.655  0.00  0.00    +0.000 OA
BRANCH   9  11
ATOM     11  C   UNL     1       1.634   4.319  19.844  0.00  0.00    +0.000 C 
BRANCH  11  12
ATOM     12  S   UNL     1       1.899   2.831  20.847  0.00  0.00    +0.000 S 
BRANCH  12  13
ATOM     13  C   UNL     1       3.515   2.548  20.438  0.00  0.00    +0.000 C 
ATOM     14  N   UNL     1       4.607   2.338  20.114  0.00  0.00    +0.000 NA
ENDBRANCH  12  13
ENDBRANCH  11  12
ENDBRANCH   9  11
ENDBRANCH   4   9
BRANCH   6  15
ATOM     15  O   UNL     1       6.048   4.127  15.922  0.00  0.00    +0.000 OA
ATOM     16  C   UNL     1       5.989   4.039  14.508  0.00  0.00    +0.000 C 
ENDBRANCH   6  15
TORSDOF 6
ENDMDL
MODEL 2
REMARK VINA RESULT:      -5.8      2.069      2.856
REMARK  Name = 
REMARK  8 active torsions:
REMARK  status: ('A' for Active; 'I' for Inactive)
REMARK    1  A    between atoms: C_1  and  O_2
REMARK    2  A    between atoms: O_2  and  C_3
REMARK    3  A    between atoms: C_6  and  C_7
REMARK    4  A    between atoms: C_7  and  C_9
REMARK    5  A    between atoms: C_9  and  S_10
REMARK    6  A    between atoms: S_10  and  C_11
REMARK    7  A    between atoms: C_14  and  O_15
REMARK    8  A    between atoms: O_15  and  C_16
REMARK                            x       y       z     vdW  Elec       q    Type
REMARK                         _______ _______ _______ _____ _____    ______ ____
ROOT
ATOM      1  C   UNL     1       6.341   4.463  16.511  0.00  0.00    +0.000 A 
ATOM      2  C   UNL     1       5.051   4.273  15.999  0.00  0.00    +0.000 A 
ATOM      3  C   UNL     1       3.927   4.338  16.832  0.00  0.00    +0.000 A 
ATOM      4  C   UNL     1       4.095   4.562  18.194  0.00  0.00    +0.000 A 
ATOM      5  C   UNL     1       5.387   4.653  18.723  0.00  0.00    +0.000 A 
ATOM      6  C   UNL     1       6.521   4.590  17.897  0.00  0.00    +0.000 A 
ENDROOT
BRANCH   1   8
ATOM      7  C   UNL     1       7.113   4.852  14.316  0.00  0.00    +0.000 C 
ATOM      8  O   UNL     1       7.419   4.510  15.670  0.00  0.00    +0.000 OA
ENDBRANCH   1   8
BRANCH   4   9
ATOM      9  C   UNL     1       2.936   4.767  19.109  0.00  0.00    +0.000 C 
ATOM     10  O   UNL     1       3.087   5.503  20.082  0.00  0.00    +0.000 OA
BRANCH   9  11
ATOM     11  C   UNL     1       1.637   4.049  18.785  0.00  0.00    +0.000 C 
BRANCH  11  12
ATOM     12  S   UNL     1       1.662   2.298  19.259  0.00  0.00    +0.000 S 
BRANCH  12  13
ATOM     13  C   UNL     1       1.700   2.501  20.937  0.00  0.00    +0.000 C 
ATOM     14  N   UNL     1       1.734   2.689  22.080  0.00  0.00    +0.000 NA
ENDBRANCH  12  13
ENDBRANCH  11  12
ENDBRANCH   9  11
ENDBRANCH   4   9
BRANCH   6  15
ATOM     15  O   UNL     1       7.684   4.698  18.610  0.00  0.00    +0.000 OA
ATOM     16  C   UNL     1       7.951   5.896  19.320  0.00  0.00    +0.000 C 
ENDBRANCH   6  15
TORSDOF 6
ENDMDL
MODEL 3
REMARK VINA RESULT:      -5.8      1.570      1.662
REMARK  Name = 
REMARK  8 active torsions:
REMARK  status: ('A' for Active; 'I' for Inactive)
REMARK    1  A    between atoms: C_1  and  O_2
REMARK    2  A    between atoms: O_2  and  C_3
REMARK    3  A    between atoms: C_6  and  C_7
REMARK    4  A    between atoms: C_7  and  C_9
REMARK    5  A    between atoms: C_9  and  S_10
REMARK    6  A    between atoms: S_10  and  C_11
REMARK    7  A    between atoms: C_14  and  O_15
REMARK    8  A    between atoms: O_15  and  C_16
REMARK                            x       y       z     vdW  Elec       q    Type
REMARK                         _______ _______ _______ _____ _____    ______ ____
ROOT
ATOM      1  C   UNL     1       6.416   6.002  16.776  0.00  0.00    +0.000 A 
ATOM      2  C   UNL     1       5.493   6.371  17.763  0.00  0.00    +0.000 A 
ATOM      3  C   UNL     1       4.418   5.536  18.094  0.00  0.00    +0.000 A 
ATOM      4  C   UNL     1       4.244   4.338  17.409  0.00  0.00    +0.000 A 
ATOM      5  C   UNL     1       5.106   4.016  16.354  0.00  0.00    +0.000 A 
ATOM      6  C   UNL     1       6.188   4.845  16.015  0.00  0.00    +0.000 A 
ENDROOT
BRANCH   1   8
ATOM      7  C   UNL     1       7.732   7.828  17.481  0.00  0.00    +0.000 C 
ATOM      8  O   UNL     1       7.524   6.771  16.542  0.00  0.00    +0.000 OA
ENDBRANCH   1   8
BRANCH   4   9
ATOM      9  C   UNL     1       3.196   3.352  17.798  0.00  0.00    +0.000 C 
ATOM     10  O   UNL     1       3.401   2.163  17.560  0.00  0.00    +0.000 OA
BRANCH   9  11
ATOM     11  C   UNL     1       1.935   3.877  18.462  0.00  0.00    +0.000 C 
BRANCH  11  12
ATOM     12  S   UNL     1       0.947   2.566  19.234  0.00  0.00    +0.000 S 
BRANCH  12  13
ATOM     13  C   UNL     1       1.467   2.777  20.828  0.00  0.00    +0.000 C 
ATOM     14  N   UNL     1       1.833   2.873  21.923  0.00  0.00    +0.000 NA
ENDBRANCH  12  13
ENDBRANCH  11  12
ENDBRANCH   9  11
ENDBRANCH   4   9
BRANCH   6  15
ATOM     15  O   UNL     1       6.904   4.351  14.960  0.00  0.00    +0.000 OA
ATOM     16  C   UNL     1       6.213   3.904  13.804  0.00  0.00    +0.000 C 
ENDBRANCH   6  15
TORSDOF 6
ENDMDL
MODEL 4
REMARK VINA RESULT:      -5.7      1.424      1.469
REMARK  Name = 
REMARK  8 active torsions:
REMARK  status: ('A' for Active; 'I' for Inactive)
REMARK    1  A    between atoms: C_1  and  O_2
REMARK    2  A    between atoms: O_2  and  C_3
REMARK    3  A    between atoms: C_6  and  C_7
REMARK    4  A    between atoms: C_7  and  C_9
REMARK    5  A    between atoms: C_9  and  S_10
REMARK    6  A    between atoms: S_10  and  C_11
REMARK    7  A    between atoms: C_14  and  O_15
REMARK    8  A    between atoms: O_15  and  C_16
REMARK                            x       y       z     vdW  Elec       q    Type
REMARK                         _______ _______ _______ _____ _____    ______ ____
ROOT
ATOM      1  C   UNL     1       6.167   5.662  17.058  0.00  0.00    +0.000 A 
ATOM      2  C   UNL     1       5.200   6.202  17.915  0.00  0.00    +0.000 A 
ATOM      3  C   UNL     1       3.974   5.555  18.120  0.00  0.00    +0.000 A 
ATOM      4  C   UNL     1       3.698   4.376  17.435  0.00  0.00    +0.000 A 
ATOM      5  C   UNL     1       4.621   3.889  16.503  0.00  0.00    +0.000 A 
ATOM      6  C   UNL     1       5.854   4.528  16.291  0.00  0.00    +0.000 A 
ENDROOT
BRANCH   1   8
ATOM      7  C   UNL     1       7.487   7.571  17.471  0.00  0.00    +0.000 C 
ATOM      8  O   UNL     1       7.402   6.241  16.955  0.00  0.00    +0.000 OA
ENDBRANCH   1   8
BRANCH   4   9
ATOM      9  C   UNL     1       2.469   3.577  17.703  0.00  0.00    +0.000 C 
ATOM     10  O   UNL     1       1.393   4.013  17.298  0.00  0.00    +0.000 OA
BRANCH   9  11
ATOM     11  C   UNL     1       2.619   2.273  18.466  0.00  0.00    +0.000 C 
BRANCH  11  12
ATOM     12  S   UNL     1       3.859   2.367  19.787  0.00  0.00    +0.000 S 
BRANCH  12  13
ATOM     13  C   UNL     1       2.816   2.701  21.075  0.00  0.00    +0.000 C 
ATOM     14  N   UNL     1       2.119   2.889  21.981  0.00  0.00    +0.000 NA
ENDBRANCH  12  13
ENDBRANCH  11  12
ENDBRANCH   9  11
ENDBRANCH   4   9
BRANCH   6  15
ATOM     15  O   UNL     1       6.606   3.894  15.342  0.00  0.00    +0.000 OA
ATOM     16  C   UNL     1       6.198   3.948  13.984  0.00  0.00    +0.000 C 
ENDBRANCH   6  15
TORSDOF 6
ENDMDL
MODEL 5
REMARK VINA RESULT:      -5.7      1.784      3.022
REMARK  Name = 
REMARK  8 active torsions:
REMARK  status: ('A' for Active; 'I' for Inactive)
REMARK    1  A    between atoms: C_1  and  O_2
REMARK    2  A    between atoms: O_2  and  C_3
REMARK    3  A    between atoms: C_6  and  C_7
REMARK    4  A    between atoms: C_7  and  C_9
REMARK    5  A    between atoms: C_9  and  S_10
REMARK    6  A    between atoms: S_10  and  C_11
REMARK    7  A    between atoms: C_14  and  O_15
REMARK    8  A    between atoms: O_15  and  C_16
REMARK                            x       y       z     vdW  Elec       q    Type
REMARK                         _______ _______ _______ _____ _____    ______ ____
ROOT
ATOM      1  C   UNL     1       6.657   5.226  15.602  0.00  0.00    +0.000 A 
ATOM      2  C   UNL     1       5.755   4.154  15.570  0.00  0.00    +0.000 A 
ATOM      3  C   UNL     1       4.660   4.106  16.441  0.00  0.00    +0.000 A 
ATOM      4  C   UNL     1       4.483   5.119  17.377  0.00  0.00    +0.000 A 
ATOM      5  C   UNL     1       5.438   6.138  17.479  0.00  0.00    +0.000 A 
ATOM      6  C   UNL     1       6.539   6.197  16.609  0.00  0.00    +0.000 A 
ENDROOT
BRANCH   1   8
ATOM      7  C   UNL     1       7.325   4.802  13.380  0.00  0.00    +0.000 C 
ATOM      8  O   UNL     1       7.656   5.319  14.671  0.00  0.00    +0.000 OA
ENDBRANCH   1   8
BRANCH   4   9
ATOM      9  C   UNL     1       3.273   5.190  18.246  0.00  0.00    +0.000 C 
ATOM     10  O   UNL     1       2.382   5.978  17.936  0.00  0.00    +0.000 OA
BRANCH   9  11
ATOM     11  C   UNL     1       3.217   4.285  19.464  0.00  0.00    +0.000 C 
BRANCH  11  12
ATOM     12  S   UNL     1       2.056   4.873  20.727  0.00  0.00    +0.000 S 
BRANCH  12  13
ATOM     13  C   UNL     1       1.819   3.410  21.539  0.00  0.00    +0.000 C 
ATOM     14  N   UNL     1       1.703   2.410  22.113  0.00  0.00    +0.000 NA
ENDBRANCH  12  13
ENDBRANCH  11  12
ENDBRANCH   9  11
ENDBRANCH   4   9
BRANCH   6  15
ATOM     15  O   UNL     1       7.349   7.266  16.876  0.00  0.00    +0.000 OA
ATOM     16  C   UNL     1       7.944   7.381  18.158  0.00  0.00    +0.000 C 
ENDBRANCH   6  15
TORSDOF 6
ENDMDL
MODEL 6
REMARK VINA RESULT:      -5.7      2.119      3.331
REMARK  Name = 
REMARK  8 active torsions:
REMARK  status: ('A' for Active; 'I' for Inactive)
REMARK    1  A    between atoms: C_1  and  O_2
REMARK    2  A    between atoms: O_2  and  C_3
REMARK    3  A    between atoms: C_6  and  C_7
REMARK    4  A    between atoms: C_7  and  C_9
REMARK    5  A    between atoms: C_9  and  S_10
REMARK    6  A    between atoms: S_10  and  C_11
REMARK    7  A    between atoms: C_14  and  O_15
REMARK    8  A    between atoms: O_15  and  C_16
REMARK                            x       y       z     vdW  Elec       q    Type
REMARK                         _______ _______ _______ _____ _____    ______ ____
ROOT
ATOM      1  C   UNL     1       6.442   5.034  15.351  0.00  0.00    +0.000 A 
ATOM      2  C   UNL     1       5.493   4.012  15.476  0.00  0.00    +0.000 A 
ATOM      3  C   UNL     1       4.824   3.792  16.687  0.00  0.00    +0.000 A 
ATOM      4  C   UNL     1       5.130   4.577  17.792  0.00  0.00    +0.000 A 
ATOM      5  C   UNL     1       6.149   5.532  17.698  0.00  0.00    +0.000 A 
ATOM      6  C   UNL     1       6.826   5.762  16.489  0.00  0.00    +0.000 A 
ENDROOT
BRANCH   1   8
ATOM      7  C   UNL     1       6.891   4.267  13.167  0.00  0.00    +0.000 C 
ATOM      8  O   UNL     1       7.005   5.312  14.136  0.00  0.00    +0.000 OA
ENDBRANCH   1   8
BRANCH   4   9
ATOM      9  C   UNL     1       4.367   4.476  19.069  0.00  0.00    +0.000 C 
ATOM     10  O   UNL     1       4.081   5.516  19.659  0.00  0.00    +0.000 OA
BRANCH   9  11
ATOM     11  C   UNL     1       3.992   3.090  19.566  0.00  0.00    +0.000 C 
BRANCH  11  12
ATOM     12  S   UNL     1       2.223   2.929  19.937  0.00  0.00    +0.000 S 
BRANCH  12  13
ATOM     13  C   UNL     1       1.614   3.511  18.472  0.00  0.00    +0.000 C 
ATOM     14  N   UNL     1       1.241   3.906  17.449  0.00  0.00    +0.000 NA
ENDBRANCH  12  13
ENDBRANCH  11  12
ENDBRANCH   9  11
ENDBRANCH   4   9
BRANCH   6  15
ATOM     15  O   UNL     1       7.782   6.732  16.611  0.00  0.00    +0.000 OA
ATOM     16  C   UNL     1       7.610   7.756  17.577  0.00  0.00    +0.000 C 
ENDBRANCH   6  15
TORSDOF 6
ENDMDL
MODEL 7
REMARK VINA RESULT:      -5.6      1.912      1.994
REMARK  Name = 
REMARK  8 active torsions:
REMARK  status: ('A' for Active; 'I' for Inactive)
REMARK    1  A    between atoms: C_1  and  O_2
REMARK    2  A    between atoms: O_2  and  C_3
REMARK    3  A    between atoms: C_6  and  C_7
REMARK    4  A    between atoms: C_7  and  C_9
REMARK    5  A    between atoms: C_9  and  S_10
REMARK    6  A    between atoms: S_10  and  C_11
REMARK    7  A    between atoms: C_14  and  O_15
REMARK    8  A    between atoms: O_15  and  C_16
REMARK                            x       y       z     vdW  Elec       q    Type
REMARK                         _______ _______ _______ _____ _____    ______ ____
ROOT
ATOM      1  C   UNL     1       6.614   5.547  17.396  0.00  0.00    +0.000 A 
ATOM      2  C   UNL     1       6.241   5.387  18.737  0.00  0.00    +0.000 A 
ATOM      3  C   UNL     1       5.189   4.536  19.097  0.00  0.00    +0.000 A 
ATOM      4  C   UNL     1       4.480   3.865  18.106  0.00  0.00    +0.000 A 
ATOM      5  C   UNL     1       4.786   4.100  16.761  0.00  0.00    +0.000 A 
ATOM      6  C   UNL     1       5.840   4.951  16.389  0.00  0.00    +0.000 A 
ENDROOT
BRANCH   1   8
ATOM      7  C   UNL     1       7.663   7.658  17.484  0.00  0.00    +0.000 C 
ATOM      8  O   UNL     1       7.714   6.291  17.067  0.00  0.00    +0.000 OA
ENDBRANCH   1   8
BRANCH   4   9
ATOM      9  C   UNL     1       3.435   2.852  18.431  0.00  0.00    +0.000 C 
ATOM     10  O   UNL     1       3.794   1.696  18.646  0.00  0.00    +0.000 OA
BRANCH   9  11
ATOM     11  C   UNL     1       1.988   3.311  18.473  0.00  0.00    +0.000 C 
BRANCH  11  12
ATOM     12  S   UNL     1       1.632   4.395  19.883  0.00  0.00    +0.000 S 
BRANCH  12  13
ATOM     13  C   UNL     1       1.745   3.240  21.112  0.00  0.00    +0.000 C 
ATOM     14  N   UNL     1       1.871   2.455  21.954  0.00  0.00    +0.000 NA
ENDBRANCH  12  13
ENDBRANCH  11  12
ENDBRANCH   9  11
ENDBRANCH   4   9
BRANCH   6  15
ATOM     15  O   UNL     1       5.971   5.044  15.030  0.00  0.00    +0.000 OA
ATOM     16  C   UNL     1       6.122   3.858  14.266  0.00  0.00    +0.000 C 
ENDBRANCH   6  15
TORSDOF 6
ENDMDL
MODEL 8
REMARK VINA RESULT:      -5.6      1.840      2.062
REMARK  Name = 
REMARK  8 active torsions:
REMARK  status: ('A' for Active; 'I' for Inactive)
REMARK    1  A    between atoms: C_1  and  O_2
REMARK    2  A    between atoms: O_2  and  C_3
REMARK    3  A    between atoms: C_6  and  C_7
REMARK    4  A    between atoms: C_7  and  C_9
REMARK    5  A    between atoms: C_9  and  S_10
REMARK    6  A    between atoms: S_10  and  C_11
REMARK    7  A    between atoms: C_14  and  O_15
REMARK    8  A    between atoms: O_15  and  C_16
REMARK                            x       y       z     vdW  Elec       q    Type
REMARK                         _______ _______ _______ _____ _____    ______ ____
ROOT
ATOM      1  C   UNL     1       6.480   5.790  17.143  0.00  0.00    +0.000 A 
ATOM      2  C   UNL     1       6.255   5.659  18.520  0.00  0.00    +0.000 A 
ATOM      3  C   UNL     1       5.347   4.716  19.017  0.00  0.00    +0.000 A 
ATOM      4  C   UNL     1       4.631   3.920  18.129  0.00  0.00    +0.000 A 
ATOM      5  C   UNL     1       4.779   4.118  16.752  0.00  0.00    +0.000 A 
ATOM      6  C   UNL     1       5.688   5.060  16.243  0.00  0.00    +0.000 A 
ENDROOT
BRANCH   1   8
ATOM      7  C   UNL     1       7.701   7.776  17.499  0.00  0.00    +0.000 C 
ATOM      8  O   UNL     1       7.450   6.634  16.677  0.00  0.00    +0.000 OA
ENDBRANCH   1   8
BRANCH   4   9
ATOM      9  C   UNL     1       3.746   2.815  18.598  0.00  0.00    +0.000 C 
ATOM     10  O   UNL     1       3.136   2.162  17.753  0.00  0.00    +0.000 OA
BRANCH   9  11
ATOM     11  C   UNL     1       3.647   2.567  20.093  0.00  0.00    +0.000 C 
BRANCH  11  12
ATOM     12  S   UNL     1       1.964   2.783  20.735  0.00  0.00    +0.000 S 
BRANCH  12  13
ATOM     13  C   UNL     1       1.886   4.469  20.648  0.00  0.00    +0.000 C 
ATOM     14  N   UNL     1       1.855   5.627  20.632  0.00  0.00    +0.000 NA
ENDBRANCH  12  13
ENDBRANCH  11  12
ENDBRANCH   9  11
ENDBRANCH   4   9
BRANCH   6  15
ATOM     15  O   UNL     1       5.679   5.097  14.876  0.00  0.00    +0.000 OA
ATOM     16  C   UNL     1       6.196   3.992  14.150  0.00  0.00    +0.000 C 
ENDBRANCH   6  15
TORSDOF 6
ENDMDL
MODEL 9
REMARK VINA RESULT:      -5.6      2.864      5.504
REMARK  Name = 
REMARK  8 active torsions:
REMARK  status: ('A' for Active; 'I' for Inactive)
REMARK    1  A    between atoms: C_1  and  O_2
REMARK    2  A    between atoms: O_2  and  C_3
REMARK    3  A    between atoms: C_6  and  C_7
REMARK    4  A    between atoms: C_7  and  C_9
REMARK    5  A    between atoms: C_9  and  S_10
REMARK    6  A    between atoms: S_10  and  C_11
REMARK    7  A    between atoms: C_14  and  O_15
REMARK    8  A    between atoms: O_15  and  C_16
REMARK                            x       y       z     vdW  Elec       q    Type
REMARK                         _______ _______ _______ _____ _____    ______ ____
ROOT
ATOM      1  C   UNL     1       1.645   4.172  19.634  0.00  0.00    +0.000 A 
ATOM      2  C   UNL     1       1.988   3.343  18.557  0.00  0.00    +0.000 A 
ATOM      3  C   UNL     1       2.904   3.764  17.585  0.00  0.00    +0.000 A 
ATOM      4  C   UNL     1       3.457   5.038  17.670  0.00  0.00    +0.000 A 
ATOM      5  C   UNL     1       3.040   5.904  18.687  0.00  0.00    +0.000 A 
ATOM      6  C   UNL     1       2.123   5.491  19.668  0.00  0.00    +0.000 A 
ENDROOT
BRANCH   1   8
ATOM      7  C   UNL     1       1.442   2.735  21.492  0.00  0.00    +0.000 C 
ATOM      8  O   UNL     1       0.839   3.707  20.636  0.00  0.00    +0.000 OA
ENDBRANCH   1   8
BRANCH   4   9
ATOM      9  C   UNL     1       4.529   5.496  16.740  0.00  0.00    +0.000 C 
ATOM     10  O   UNL     1       4.833   6.687  16.747  0.00  0.00    +0.000 OA
BRANCH   9  11
ATOM     11  C   UNL     1       5.177   4.462  15.835  0.00  0.00    +0.000 C 
BRANCH  11  12
ATOM     12  S   UNL     1       6.952   4.751  15.593  0.00  0.00    +0.000 S 
BRANCH  12  13
ATOM     13  C   UNL     1       7.445   4.594  17.202  0.00  0.00    +0.000 C 
ATOM     14  N   UNL     1       7.738   4.502  18.319  0.00  0.00    +0.000 NA
ENDBRANCH  12  13
ENDBRANCH  11  12
ENDBRANCH   9  11
ENDBRANCH   4   9
BRANCH   6  15
ATOM     15  O   UNL     1       1.850   6.485  20.567  0.00  0.00    +0.000 OA
ATOM     16  C   UNL     1       1.847   7.834  20.128  0.00  0.00    +0.000 C 
ENDBRANCH   6  15
TORSDOF 6
ENDMDL
