MODEL 1
REMARK VINA RESULT:      -8.8      0.000      0.000
REMARK  Name = 
REMARK  9 active torsions:
REMARK  status: ('A' for Active; 'I' for Inactive)
REMARK    1  A    between atoms: C_1  and  C_2
REMARK    2  A    between atoms: C_2  and  C_3
REMARK    3  A    between atoms: C_2  and  C_4
REMARK    4  A    between atoms: C_2  and  N_5
REMARK    5  A    between atoms: N_10  and  C_11
REMARK    6  A    between atoms: C_11  and  C_12
REMARK    7  A    between atoms: C_12  and  C_13
REMARK    8  A    between atoms: C_20  and  C_21
REMARK    9  A    between atoms: C_28  and  N_29
REMARK                            x       y       z     vdW  Elec       q    Type
REMARK                         _______ _______ _______ _____ _____    ______ ____
ROOT
ATOM      1  N   UNL     1       4.398   4.044  18.611  0.00  0.00    +0.000 N 
ATOM      2  N   UNL     1       4.894   5.180  19.171  0.00  0.00    +0.000 NA
ATOM      3  C   UNL     1       5.685   5.708  18.230  0.00  0.00    +0.000 A 
ATOM      4  N   UNL     1       6.436   6.831  18.327  0.00  0.00    +0.000 NA
ATOM      5  C   UNL     1       7.082   7.136  17.175  0.00  0.00    +0.000 A 
ATOM      6  N   UNL     1       7.959   8.203  17.127  0.00  0.00    +0.000 N 
ATOM      7  N   UNL     1       6.998   6.477  15.981  0.00  0.00    +0.000 NA
ATOM      8  C   UNL     1       6.291   5.314  15.867  0.00  0.00    +0.000 A 
ATOM      9  C   UNL     1       5.651   4.937  17.047  0.00  0.00    +0.000 A 
ATOM     10  C   UNL     1       4.934   3.803  17.348  0.00  0.00    +0.000 A 
ATOM     11  H   UNL     1       7.678   8.836  16.388  0.00  0.00    +0.000 HD
ENDROOT
BRANCH   8  12
ATOM     12  C   UNL     1       6.214   4.671  14.561  0.00  0.00    +0.000 A 
ATOM     13  C   UNL     1       7.357   4.535  13.756  0.00  0.00    +0.000 A 
ATOM     14  C   UNL     1       7.288   3.916  12.504  0.00  0.00    +0.000 A 
ATOM     15  C   UNL     1       6.075   3.409  12.041  0.00  0.00    +0.000 A 
ATOM     16  C   UNL     1       4.928   3.546  12.811  0.00  0.00    +0.000 A 
ATOM     17  C   UNL     1       4.994   4.200  14.042  0.00  0.00    +0.000 A 
ENDBRANCH   8  12
BRANCH   1  19
ATOM     18  C   UNL     1       4.167   2.078  20.157  0.00  0.00    +0.000 C 
ATOM     19  C   UNL     1       3.445   3.197  19.366  0.00  0.00    +0.000 C 
ATOM     20  C   UNL     1       2.448   2.502  18.417  0.00  0.00    +0.000 C 
ATOM     21  C   UNL     1       2.673   4.046  20.400  0.00  0.00    +0.000 C 
ENDBRANCH   1  19
BRANCH  10  22
ATOM     22  N   UNL     1       4.769   2.631  16.678  0.00  0.00    +0.000 N 
ATOM     23  H   UNL     1       5.548   1.970  16.664  0.00  0.00    +0.000 HD
ATOM     24  H   UNL     1       4.311   2.632  15.769  0.00  0.00    +0.000 HD
ENDBRANCH  10  22
BRANCH   6  25
ATOM     25  C   UNL     1       8.461   8.780  18.361  0.00  0.00    +0.000 C 
BRANCH  25  26
ATOM     26  C   UNL     1       8.394  10.313  18.277  0.00  0.00    +0.000 C 
BRANCH  26  27
ATOM     27  C   UNL     1       9.643  11.010  18.748  0.00  0.00    +0.000 A 
ATOM     28  C   UNL     1       9.815  11.290  20.110  0.00  0.00    +0.000 A 
ATOM     29  C   UNL     1      10.995  11.876  20.566  0.00  0.00    +0.000 A 
ATOM     30  C   UNL     1      12.010  12.194  19.665  0.00  0.00    +0.000 A 
ATOM     31  C   UNL     1      11.841  11.935  18.306  0.00  0.00    +0.000 A 
ATOM     32  C   UNL     1      10.660  11.349  17.847  0.00  0.00    +0.000 A 
ENDBRANCH  26  27
ENDBRANCH  25  26
ENDBRANCH   6  25
TORSDOF 6
ENDMDL
MODEL 2
REMARK VINA RESULT:      -8.8      0.347      1.171
REMARK  Name = 
REMARK  9 active torsions:
REMARK  status: ('A' for Active; 'I' for Inactive)
REMARK    1  A    between atoms: C_1  and  C_2
REMARK    2  A    between atoms: C_2  and  C_3
REMARK    3  A    between atoms: C_2  and  C_4
REMARK    4  A    between atoms: C_2  and  N_5
REMARK    5  A    between atoms: N_10  and  C_11
REMARK    6  A    between atoms: C_11  and  C_12
REMARK    7  A    between atoms: C_12  and  C_13
REMARK    8  A    between atoms: C_20  and  C_21
REMARK    9  A    between atoms: C_28  and  N_29
REMARK                            x       y       z     vdW  Elec       q    Type
REMARK                         _______ _______ _______ _____ _____    ______ ____
ROOT
ATOM      1  N   UNL     1       4.145   4.282  18.440  0.00  0.00    +0.000 N 
ATOM      2  N   UNL     1       4.666   5.394  19.024  0.00  0.00    +0.000 NA
ATOM      3  C   UNL     1       5.556   5.860  18.140  0.00  0.00    +0.000 A 
ATOM      4  N   UNL     1       6.365   6.937  18.281  0.00  0.00    +0.000 NA
ATOM      5  C   UNL     1       7.113   7.185  17.178  0.00  0.00    +0.000 A 
ATOM      6  N   UNL     1       8.055   8.197  17.186  0.00  0.00    +0.000 N 
ATOM      7  N   UNL     1       7.078   6.515  15.989  0.00  0.00    +0.000 NA
ATOM      8  C   UNL     1       6.312   5.395  15.834  0.00  0.00    +0.000 A 
ATOM      9  C   UNL     1       5.564   5.075  16.965  0.00  0.00    +0.000 A 
ATOM     10  C   UNL     1       4.758   3.991  17.223  0.00  0.00    +0.000 A 
ATOM     11  H   UNL     1       7.870   8.834  16.422  0.00  0.00    +0.000 HD
ENDROOT
BRANCH   8  12
ATOM     12  C   UNL     1       6.293   4.738  14.532  0.00  0.00    +0.000 A 
ATOM     13  C   UNL     1       7.414   4.782  13.687  0.00  0.00    +0.000 A 
ATOM     14  C   UNL     1       7.402   4.150  12.439  0.00  0.00    +0.000 A 
ATOM     15  C   UNL     1       6.271   3.453  12.020  0.00  0.00    +0.000 A 
ATOM     16  C   UNL     1       5.144   3.410  12.831  0.00  0.00    +0.000 A 
ATOM     17  C   UNL     1       5.148   4.074  14.057  0.00  0.00    +0.000 A 
ENDBRANCH   8  12
BRANCH   1  19
ATOM     18  C   UNL     1       2.650   4.174  20.454  0.00  0.00    +0.000 C 
ATOM     19  C   UNL     1       3.088   3.506  19.129  0.00  0.00    +0.000 C 
ATOM     20  C   UNL     1       3.583   2.089  19.484  0.00  0.00    +0.000 C 
ATOM     21  C   UNL     1       1.827   3.408  18.241  0.00  0.00    +0.000 C 
ENDBRANCH   1  19
BRANCH  10  22
ATOM     22  N   UNL     1       4.572   2.821  16.554  0.00  0.00    +0.000 N 
ATOM     23  H   UNL     1       3.655   2.372  16.617  0.00  0.00    +0.000 HD
ATOM     24  H   UNL     1       5.299   2.109  16.574  0.00  0.00    +0.000 HD
ENDBRANCH  10  22
BRANCH   6  25
ATOM     25  C   UNL     1       8.498   8.760  18.448  0.00  0.00    +0.000 C 
BRANCH  25  26
ATOM     26  C   UNL     1       8.444  10.295  18.374  0.00  0.00    +0.000 C 
BRANCH  26  27
ATOM     27  C   UNL     1       9.731  10.974  18.761  0.00  0.00    +0.000 A 
ATOM     28  C   UNL     1      10.619  11.406  17.767  0.00  0.00    +0.000 A 
ATOM     29  C   UNL     1      11.782  12.094  18.111  0.00  0.00    +0.000 A 
ATOM     30  C   UNL     1      12.073  12.347  19.451  0.00  0.00    +0.000 A 
ATOM     31  C   UNL     1      11.205  11.904  20.448  0.00  0.00    +0.000 A 
ATOM     32  C   UNL     1      10.040  11.215  20.105  0.00  0.00    +0.000 A 
ENDBRANCH  26  27
ENDBRANCH  25  26
ENDBRANCH   6  25
TORSDOF 6
ENDMDL
MODEL 3
REMARK VINA RESULT:      -8.7      0.072      1.208
REMARK  Name = 
REMARK  9 active torsions:
REMARK  status: ('A' for Active; 'I' for Inactive)
REMARK    1  A    between atoms: C_1  and  C_2
REMARK    2  A    between atoms: C_2  and  C_3
REMARK    3  A    between atoms: C_2  and  C_4
REMARK    4  A    between atoms: C_2  and  N_5
REMARK    5  A    between atoms: N_10  and  C_11
REMARK    6  A    between atoms: C_11  and  C_12
REMARK    7  A    between atoms: C_12  and  C_13
REMARK    8  A    between atoms: C_20  and  C_21
REMARK    9  A    between atoms: C_28  and  N_29
REMARK                            x       y       z     vdW  Elec       q    Type
REMARK                         _______ _______ _______ _____ _____    ______ ____
ROOT
ATOM      1  N   UNL     1       4.403   4.064  18.684  0.00  0.00    +0.000 N 
ATOM      2  N   UNL     1       4.902   5.203  19.236  0.00  0.00    +0.000 NA
ATOM      3  C   UNL     1       5.687   5.726  18.287  0.00  0.00    +0.000 A 
ATOM      4  N   UNL     1       6.439   6.849  18.374  0.00  0.00    +0.000 NA
ATOM      5  C   UNL     1       7.078   7.148  17.216  0.00  0.00    +0.000 A 
ATOM      6  N   UNL     1       7.956   8.215  17.158  0.00  0.00    +0.000 N 
ATOM      7  N   UNL     1       6.987   6.484  16.026  0.00  0.00    +0.000 NA
ATOM      8  C   UNL     1       6.278   5.321  15.923  0.00  0.00    +0.000 A 
ATOM      9  C   UNL     1       5.646   4.950  17.107  0.00  0.00    +0.000 A 
ATOM     10  C   UNL     1       4.931   3.818  17.418  0.00  0.00    +0.000 A 
ATOM     11  H   UNL     1       7.671   8.844  16.418  0.00  0.00    +0.000 HD
ENDROOT
BRANCH   8  12
ATOM     12  C   UNL     1       6.193   4.671  14.619  0.00  0.00    +0.000 A 
ATOM     13  C   UNL     1       4.978   4.139  14.158  0.00  0.00    +0.000 A 
ATOM     14  C   UNL     1       4.890   3.519  12.908  0.00  0.00    +0.000 A 
ATOM     15  C   UNL     1       6.016   3.431  12.091  0.00  0.00    +0.000 A 
ATOM     16  C   UNL     1       7.233   3.935  12.532  0.00  0.00    +0.000 A 
ATOM     17  C   UNL     1       7.323   4.518  13.796  0.00  0.00    +0.000 A 
ENDBRANCH   8  12
BRANCH   1  19
ATOM     18  C   UNL     1       2.397   2.561  18.531  0.00  0.00    +0.000 C 
ATOM     19  C   UNL     1       3.454   3.221  19.449  0.00  0.00    +0.000 C 
ATOM     20  C   UNL     1       2.683   4.057  20.490  0.00  0.00    +0.000 C 
ATOM     21  C   UNL     1       4.207   2.074  20.158  0.00  0.00    +0.000 C 
ENDBRANCH   1  19
BRANCH  10  22
ATOM     22  N   UNL     1       4.760   2.642  16.755  0.00  0.00    +0.000 N 
ATOM     23  H   UNL     1       4.135   1.945  17.165  0.00  0.00    +0.000 HD
ATOM     24  H   UNL     1       5.567   2.175  16.346  0.00  0.00    +0.000 HD
ENDBRANCH  10  22
BRANCH   6  25
ATOM     25  C   UNL     1       8.465   8.798  18.386  0.00  0.00    +0.000 C 
BRANCH  25  26
ATOM     26  C   UNL     1       8.404  10.331  18.292  0.00  0.00    +0.000 C 
BRANCH  26  27
ATOM     27  C   UNL     1       9.665  11.024  18.736  0.00  0.00    +0.000 A 
ATOM     28  C   UNL     1       9.875  11.289  20.095  0.00  0.00    +0.000 A 
ATOM     29  C   UNL     1      11.067  11.872  20.525  0.00  0.00    +0.000 A 
ATOM     30  C   UNL     1      12.055  12.203  19.599  0.00  0.00    +0.000 A 
ATOM     31  C   UNL     1      11.848  11.959  18.242  0.00  0.00    +0.000 A 
ATOM     32  C   UNL     1      10.655  11.376  17.811  0.00  0.00    +0.000 A 
ENDBRANCH  26  27
ENDBRANCH  25  26
ENDBRANCH   6  25
TORSDOF 6
ENDMDL
MODEL 4
REMARK VINA RESULT:      -8.7      4.927      8.274
REMARK  Name = 
REMARK  9 active torsions:
REMARK  status: ('A' for Active; 'I' for Inactive)
REMARK    1  A    between atoms: C_1  and  C_2
REMARK    2  A    between atoms: C_2  and  C_3
REMARK    3  A    between atoms: C_2  and  C_4
REMARK    4  A    between atoms: C_2  and  N_5
REMARK    5  A    between atoms: N_10  and  C_11
REMARK    6  A    between atoms: C_11  and  C_12
REMARK    7  A    between atoms: C_12  and  C_13
REMARK    8  A    between atoms: C_20  and  C_21
REMARK    9  A    between atoms: C_28  and  N_29
REMARK                            x       y       z     vdW  Elec       q    Type
REMARK                         _______ _______ _______ _____ _____    ______ ____
ROOT
ATOM      1  N   UNL     1       5.164   5.515  16.815  0.00  0.00    +0.000 N 
ATOM      2  N   UNL     1       4.918   6.851  16.751  0.00  0.00    +0.000 NA
ATOM      3  C   UNL     1       3.863   7.043  17.551  0.00  0.00    +0.000 A 
ATOM      4  N   UNL     1       3.217   8.209  17.789  0.00  0.00    +0.000 NA
ATOM      5  C   UNL     1       2.220   8.084  18.699  0.00  0.00    +0.000 A 
ATOM      6  N   UNL     1       1.404   9.161  18.994  0.00  0.00    +0.000 N 
ATOM      7  N   UNL     1       1.872   6.962  19.395  0.00  0.00    +0.000 NA
ATOM      8  C   UNL     1       2.470   5.761  19.139  0.00  0.00    +0.000 A 
ATOM      9  C   UNL     1       3.468   5.835  18.170  0.00  0.00    +0.000 A 
ATOM     10  C   UNL     1       4.220   4.842  17.587  0.00  0.00    +0.000 A 
ATOM     11  H   UNL     1       1.427   9.337  19.990  0.00  0.00    +0.000 HD
ENDROOT
BRANCH   8  12
ATOM     12  C   UNL     1       2.077   4.603  19.934  0.00  0.00    +0.000 A 
ATOM     13  C   UNL     1       2.621   4.387  21.210  0.00  0.00    +0.000 A 
ATOM     14  C   UNL     1       2.244   3.280  21.977  0.00  0.00    +0.000 A 
ATOM     15  C   UNL     1       1.305   2.376  21.485  0.00  0.00    +0.000 A 
ATOM     16  C   UNL     1       0.765   2.559  20.219  0.00  0.00    +0.000 A 
ATOM     17  C   UNL     1       1.173   3.643  19.442  0.00  0.00    +0.000 A 
ENDBRANCH   8  12
BRANCH   1  19
ATOM     18  C   UNL     1       6.936   5.952  15.089  0.00  0.00    +0.000 C 
ATOM     19  C   UNL     1       6.300   4.931  16.063  0.00  0.00    +0.000 C 
ATOM     20  C   UNL     1       5.843   3.727  15.214  0.00  0.00    +0.000 C 
ATOM     21  C   UNL     1       7.416   4.487  17.035  0.00  0.00    +0.000 C 
ENDBRANCH   1  19
BRANCH  10  22
ATOM     22  N   UNL     1       4.118   3.487  17.628  0.00  0.00    +0.000 N 
ATOM     23  H   UNL     1       4.790   2.937  17.089  0.00  0.00    +0.000 HD
ATOM     24  H   UNL     1       3.200   3.050  17.569  0.00  0.00    +0.000 HD
ENDBRANCH  10  22
BRANCH   6  25
ATOM     25  C   UNL     1       1.372  10.306  18.103  0.00  0.00    +0.000 C 
BRANCH  25  26
ATOM     26  C   UNL     1       0.394  11.357  18.650  0.00  0.00    +0.000 C 
BRANCH  26  27
ATOM     27  C   UNL     1      -1.051  11.077  18.331  0.00  0.00    +0.000 A 
ATOM     28  C   UNL     1      -2.057  11.876  18.889  0.00  0.00    +0.000 A 
ATOM     29  C   UNL     1      -3.394  11.667  18.549  0.00  0.00    +0.000 A 
ATOM     30  C   UNL     1      -3.736  10.652  17.657  0.00  0.00    +0.000 A 
ATOM     31  C   UNL     1      -2.744   9.840  17.111  0.00  0.00    +0.000 A 
ATOM     32  C   UNL     1      -1.406  10.048  17.450  0.00  0.00    +0.000 A 
ENDBRANCH  26  27
ENDBRANCH  25  26
ENDBRANCH   6  25
TORSDOF 6
ENDMDL
MODEL 5
REMARK VINA RESULT:      -8.7      4.948      8.355
REMARK  Name = 
REMARK  9 active torsions:
REMARK  status: ('A' for Active; 'I' for Inactive)
REMARK    1  A    between atoms: C_1  and  C_2
REMARK    2  A    between atoms: C_2  and  C_3
REMARK    3  A    between atoms: C_2  and  C_4
REMARK    4  A    between atoms: C_2  and  N_5
REMARK    5  A    between atoms: N_10  and  C_11
REMARK    6  A    between atoms: C_11  and  C_12
REMARK    7  A    between atoms: C_12  and  C_13
REMARK    8  A    between atoms: C_20  and  C_21
REMARK    9  A    between atoms: C_28  and  N_29
REMARK                            x       y       z     vdW  Elec       q    Type
REMARK                         _______ _______ _______ _____ _____    ______ ____
ROOT
ATOM      1  N   UNL     1       5.083   5.561  16.752  0.00  0.00    +0.000 N 
ATOM      2  N   UNL     1       4.839   6.898  16.701  0.00  0.00    +0.000 NA
ATOM      3  C   UNL     1       3.802   7.088  17.525  0.00  0.00    +0.000 A 
ATOM      4  N   UNL     1       3.165   8.255  17.783  0.00  0.00    +0.000 NA
ATOM      5  C   UNL     1       2.188   8.128  18.715  0.00  0.00    +0.000 A 
ATOM      6  N   UNL     1       1.382   9.206  19.032  0.00  0.00    +0.000 N 
ATOM      7  N   UNL     1       1.852   7.003  19.412  0.00  0.00    +0.000 NA
ATOM      8  C   UNL     1       2.441   5.802  19.137  0.00  0.00    +0.000 A 
ATOM      9  C   UNL     1       3.418   5.879  18.146  0.00  0.00    +0.000 A 
ATOM     10  C   UNL     1       4.154   4.887  17.543  0.00  0.00    +0.000 A 
ATOM     11  H   UNL     1       1.427   9.376  20.029  0.00  0.00    +0.000 HD
ENDROOT
BRANCH   8  12
ATOM     12  C   UNL     1       2.063   4.641  19.935  0.00  0.00    +0.000 A 
ATOM     13  C   UNL     1       1.144   3.699  19.444  0.00  0.00    +0.000 A 
ATOM     14  C   UNL     1       0.781   2.583  20.204  0.00  0.00    +0.000 A 
ATOM     15  C   UNL     1       1.341   2.383  21.465  0.00  0.00    +0.000 A 
ATOM     16  C   UNL     1       2.239   3.310  21.978  0.00  0.00    +0.000 A 
ATOM     17  C   UNL     1       2.568   4.442  21.232  0.00  0.00    +0.000 A 
ENDBRANCH   8  12
BRANCH   1  19
ATOM     18  C   UNL     1       6.881   6.028  15.063  0.00  0.00    +0.000 C 
ATOM     19  C   UNL     1       6.200   4.978  15.973  0.00  0.00    +0.000 C 
ATOM     20  C   UNL     1       5.703   3.844  15.054  0.00  0.00    +0.000 C 
ATOM     21  C   UNL     1       7.292   4.436  16.922  0.00  0.00    +0.000 C 
ENDBRANCH   1  19
BRANCH  10  22
ATOM     22  N   UNL     1       4.049   3.531  17.578  0.00  0.00    +0.000 N 
ATOM     23  H   UNL     1       3.170   3.108  17.272  0.00  0.00    +0.000 HD
ATOM     24  H   UNL     1       4.408   3.021  18.382  0.00  0.00    +0.000 HD
ENDBRANCH  10  22
BRANCH   6  25
ATOM     25  C   UNL     1       1.333  10.356  18.148  0.00  0.00    +0.000 C 
BRANCH  25  26
ATOM     26  C   UNL     1       0.336  11.387  18.699  0.00  0.00    +0.000 C 
BRANCH  26  27
ATOM     27  C   UNL     1      -1.094  11.132  18.303  0.00  0.00    +0.000 A 
ATOM     28  C   UNL     1      -1.397  10.093  17.413  0.00  0.00    +0.000 A 
ATOM     29  C   UNL     1      -2.723   9.806  17.090  0.00  0.00    +0.000 A 
ATOM     30  C   UNL     1      -3.756  10.560  17.646  0.00  0.00    +0.000 A 
ATOM     31  C   UNL     1      -3.463  11.607  18.517  0.00  0.00    +0.000 A 
ATOM     32  C   UNL     1      -2.136  11.896  18.842  0.00  0.00    +0.000 A 
ENDBRANCH  26  27
ENDBRANCH  25  26
ENDBRANCH   6  25
TORSDOF 6
ENDMDL
MODEL 6
REMARK VINA RESULT:      -8.7      4.940      8.318
REMARK  Name = 
REMARK  9 active torsions:
REMARK  status: ('A' for Active; 'I' for Inactive)
REMARK    1  A    between atoms: C_1  and  C_2
REMARK    2  A    between atoms: C_2  and  C_3
REMARK    3  A    between atoms: C_2  and  C_4
REMARK    4  A    between atoms: C_2  and  N_5
REMARK    5  A    between atoms: N_10  and  C_11
REMARK    6  A    between atoms: C_11  and  C_12
REMARK    7  A    between atoms: C_12  and  C_13
REMARK    8  A    between atoms: C_20  and  C_21
REMARK    9  A    between atoms: C_28  and  N_29
REMARK                            x       y       z     vdW  Elec       q    Type
REMARK                         _______ _______ _______ _____ _____    ______ ____
ROOT
ATOM      1  N   UNL     1       5.076   5.531  16.747  0.00  0.00    +0.000 N 
ATOM      2  N   UNL     1       4.846   6.871  16.700  0.00  0.00    +0.000 NA
ATOM      3  C   UNL     1       3.810   7.069  17.525  0.00  0.00    +0.000 A 
ATOM      4  N   UNL     1       3.185   8.241  17.788  0.00  0.00    +0.000 NA
ATOM      5  C   UNL     1       2.206   8.121  18.718  0.00  0.00    +0.000 A 
ATOM      6  N   UNL     1       1.411   9.205  19.040  0.00  0.00    +0.000 N 
ATOM      7  N   UNL     1       1.859   6.997  19.411  0.00  0.00    +0.000 NA
ATOM      8  C   UNL     1       2.435   5.790  19.131  0.00  0.00    +0.000 A 
ATOM      9  C   UNL     1       3.414   5.861  18.141  0.00  0.00    +0.000 A 
ATOM     10  C   UNL     1       4.139   4.864  17.534  0.00  0.00    +0.000 A 
ATOM     11  H   UNL     1       1.458   9.371  20.037  0.00  0.00    +0.000 HD
ENDROOT
BRANCH   8  12
ATOM     12  C   UNL     1       2.044   4.630  19.924  0.00  0.00    +0.000 A 
ATOM     13  C   UNL     1       1.107   3.706  19.434  0.00  0.00    +0.000 A 
ATOM     14  C   UNL     1       0.732   2.590  20.189  0.00  0.00    +0.000 A 
ATOM     15  C   UNL     1       1.298   2.373  21.444  0.00  0.00    +0.000 A 
ATOM     16  C   UNL     1       2.215   3.282  21.956  0.00  0.00    +0.000 A 
ATOM     17  C   UNL     1       2.556   4.414  21.216  0.00  0.00    +0.000 A 
ENDBRANCH   8  12
BRANCH   1  19
ATOM     18  C   UNL     1       5.728   3.708  15.148  0.00  0.00    +0.000 C 
ATOM     19  C   UNL     1       6.187   4.940  15.966  0.00  0.00    +0.000 C 
ATOM     20  C   UNL     1       7.325   4.464  16.891  0.00  0.00    +0.000 C 
ATOM     21  C   UNL     1       6.737   5.967  14.951  0.00  0.00    +0.000 C 
ENDBRANCH   1  19
BRANCH  10  22
ATOM     22  N   UNL     1       4.020   3.509  17.564  0.00  0.00    +0.000 N 
ATOM     23  H   UNL     1       4.711   2.977  18.097  0.00  0.00    +0.000 HD
ATOM     24  H   UNL     1       3.792   3.006  16.709  0.00  0.00    +0.000 HD
ENDBRANCH  10  22
BRANCH   6  25
ATOM     25  C   UNL     1       1.375  10.359  18.160  0.00  0.00    +0.000 C 
BRANCH  25  26
ATOM     26  C   UNL     1       0.367  11.387  18.700  0.00  0.00    +0.000 C 
BRANCH  26  27
ATOM     27  C   UNL     1      -1.065  11.086  18.347  0.00  0.00    +0.000 A 
ATOM     28  C   UNL     1      -2.099  11.831  18.929  0.00  0.00    +0.000 A 
ATOM     29  C   UNL     1      -3.425  11.605  18.560  0.00  0.00    +0.000 A 
ATOM     30  C   UNL     1      -3.730  10.627  17.615  0.00  0.00    +0.000 A 
ATOM     31  C   UNL     1      -2.709   9.867  17.045  0.00  0.00    +0.000 A 
ATOM     32  C   UNL     1      -1.382  10.093  17.412  0.00  0.00    +0.000 A 
ENDBRANCH  26  27
ENDBRANCH  25  26
ENDBRANCH   6  25
TORSDOF 6
ENDMDL
MODEL 7
REMARK VINA RESULT:      -8.6      4.929      8.309
REMARK  Name = 
REMARK  9 active torsions:
REMARK  status: ('A' for Active; 'I' for Inactive)
REMARK    1  A    between atoms: C_1  and  C_2
REMARK    2  A    between atoms: C_2  and  C_3
REMARK    3  A    between atoms: C_2  and  C_4
REMARK    4  A    between atoms: C_2  and  N_5
REMARK    5  A    between atoms: N_10  and  C_11
REMARK    6  A    between atoms: C_11  and  C_12
REMARK    7  A    between atoms: C_12  and  C_13
REMARK    8  A    between atoms: C_20  and  C_21
REMARK    9  A    between atoms: C_28  and  N_29
REMARK                            x       y       z     vdW  Elec       q    Type
REMARK                         _______ _______ _______ _____ _____    ______ ____
ROOT
ATOM      1  N   UNL     1       5.158   5.526  16.821  0.00  0.00    +0.000 N 
ATOM      2  N   UNL     1       4.909   6.862  16.757  0.00  0.00    +0.000 NA
ATOM      3  C   UNL     1       3.855   7.052  17.559  0.00  0.00    +0.000 A 
ATOM      4  N   UNL     1       3.206   8.217  17.797  0.00  0.00    +0.000 NA
ATOM      5  C   UNL     1       2.211   8.091  18.709  0.00  0.00    +0.000 A 
ATOM      6  N   UNL     1       1.393   9.166  19.003  0.00  0.00    +0.000 N 
ATOM      7  N   UNL     1       1.866   6.968  19.405  0.00  0.00    +0.000 NA
ATOM      8  C   UNL     1       2.466   5.768  19.149  0.00  0.00    +0.000 A 
ATOM      9  C   UNL     1       3.464   5.844  18.179  0.00  0.00    +0.000 A 
ATOM     10  C   UNL     1       4.216   4.852  17.596  0.00  0.00    +0.000 A 
ATOM     11  H   UNL     1       1.417   9.342  20.000  0.00  0.00    +0.000 HD
ENDROOT
BRANCH   8  12
ATOM     12  C   UNL     1       2.077   4.610  19.945  0.00  0.00    +0.000 A 
ATOM     13  C   UNL     1       2.615   4.402  21.226  0.00  0.00    +0.000 A 
ATOM     14  C   UNL     1       2.241   3.295  21.994  0.00  0.00    +0.000 A 
ATOM     15  C   UNL     1       1.312   2.382  21.499  0.00  0.00    +0.000 A 
ATOM     16  C   UNL     1       0.779   2.557  20.228  0.00  0.00    +0.000 A 
ATOM     17  C   UNL     1       1.184   3.642  19.450  0.00  0.00    +0.000 A 
ENDBRANCH   8  12
BRANCH   1  19
ATOM     18  C   UNL     1       7.439   4.493  17.007  0.00  0.00    +0.000 C 
ATOM     19  C   UNL     1       6.294   4.944  16.069  0.00  0.00    +0.000 C 
ATOM     20  C   UNL     1       6.896   5.972  15.090  0.00  0.00    +0.000 C 
ATOM     21  C   UNL     1       5.836   3.691  15.289  0.00  0.00    +0.000 C 
ENDBRANCH   1  19
BRANCH  10  22
ATOM     22  N   UNL     1       4.117   3.496  17.637  0.00  0.00    +0.000 N 
ATOM     23  H   UNL     1       4.110   2.987  16.750  0.00  0.00    +0.000 HD
ATOM     24  H   UNL     1       3.462   3.060  18.282  0.00  0.00    +0.000 HD
ENDBRANCH  10  22
BRANCH   6  25
ATOM     25  C   UNL     1       1.358  10.311  18.112  0.00  0.00    +0.000 C 
BRANCH  25  26
ATOM     26  C   UNL     1       0.387  11.365  18.667  0.00  0.00    +0.000 C 
BRANCH  26  27
ATOM     27  C   UNL     1      -1.054  11.124  18.306  0.00  0.00    +0.000 A 
ATOM     28  C   UNL     1      -1.392  10.071  17.446  0.00  0.00    +0.000 A 
ATOM     29  C   UNL     1      -2.728   9.798  17.156  0.00  0.00    +0.000 A 
ATOM     30  C   UNL     1      -3.738  10.580  17.715  0.00  0.00    +0.000 A 
ATOM     31  C   UNL     1      -3.411  11.642  18.557  0.00  0.00    +0.000 A 
ATOM     32  C   UNL     1      -2.073  11.916  18.848  0.00  0.00    +0.000 A 
ENDBRANCH  26  27
ENDBRANCH  25  26
ENDBRANCH   6  25
TORSDOF 6
ENDMDL
MODEL 8
REMARK VINA RESULT:      -8.3      6.983     11.344
REMARK  Name = 
REMARK  9 active torsions:
REMARK  status: ('A' for Active; 'I' for Inactive)
REMARK    1  A    between atoms: C_1  and  C_2
REMARK    2  A    between atoms: C_2  and  C_3
REMARK    3  A    between atoms: C_2  and  C_4
REMARK    4  A    between atoms: C_2  and  N_5
REMARK    5  A    between atoms: N_10  and  C_11
REMARK    6  A    between atoms: C_11  and  C_12
REMARK    7  A    between atoms: C_12  and  C_13
REMARK    8  A    between atoms: C_20  and  C_21
REMARK    9  A    between atoms: C_28  and  N_29
REMARK                            x       y       z     vdW  Elec       q    Type
REMARK                         _______ _______ _______ _____ _____    ______ ____
ROOT
ATOM      1  N   UNL     1       2.275  14.107  18.887  0.00  0.00    +0.000 N 
ATOM      2  N   UNL     1       2.723  13.087  18.108  0.00  0.00    +0.000 NA
ATOM      3  C   UNL     1       2.040  12.014  18.523  0.00  0.00    +0.000 A 
ATOM      4  N   UNL     1       2.161  10.741  18.076  0.00  0.00    +0.000 NA
ATOM      5  C   UNL     1       1.281   9.890  18.657  0.00  0.00    +0.000 A 
ATOM      6  N   UNL     1       1.328   8.537  18.376  0.00  0.00    +0.000 N 
ATOM      7  N   UNL     1       0.304  10.201  19.559  0.00  0.00    +0.000 NA
ATOM      8  C   UNL     1       0.191  11.464  20.067  0.00  0.00    +0.000 A 
ATOM      9  C   UNL     1       1.114  12.361  19.532  0.00  0.00    +0.000 A 
ATOM     10  C   UNL     1       1.369  13.673  19.852  0.00  0.00    +0.000 A 
ATOM     11  H   UNL     1       0.423   8.232  18.042  0.00  0.00    +0.000 HD
ENDROOT
BRANCH   8  12
ATOM     12  C   UNL     1      -0.890  11.744  21.006  0.00  0.00    +0.000 A 
ATOM     13  C   UNL     1      -0.804  11.334  22.346  0.00  0.00    +0.000 A 
ATOM     14  C   UNL     1      -1.836  11.602  23.250  0.00  0.00    +0.000 A 
ATOM     15  C   UNL     1      -2.968  12.299  22.831  0.00  0.00    +0.000 A 
ATOM     16  C   UNL     1      -3.084  12.699  21.507  0.00  0.00    +0.000 A 
ATOM     17  C   UNL     1      -2.069  12.394  20.600  0.00  0.00    +0.000 A 
ENDBRANCH   8  12
BRANCH   1  19
ATOM     18  C   UNL     1       3.682  15.938  19.874  0.00  0.00    +0.000 C 
ATOM     19  C   UNL     1       2.798  15.479  18.689  0.00  0.00    +0.000 C 
ATOM     20  C   UNL     1       1.648  16.499  18.567  0.00  0.00    +0.000 C 
ATOM     21  C   UNL     1       3.683  15.540  17.424  0.00  0.00    +0.000 C 
ENDBRANCH   1  19
BRANCH  10  22
ATOM     22  N   UNL     1       0.947  14.453  20.883  0.00  0.00    +0.000 N 
ATOM     23  H   UNL     1       1.129  15.458  20.832  0.00  0.00    +0.000 HD
ATOM     24  H   UNL     1       1.076  14.134  21.841  0.00  0.00    +0.000 HD
ENDBRANCH  10  22
BRANCH   6  25
ATOM     25  C   UNL     1       2.509   7.971  17.751  0.00  0.00    +0.000 C 
BRANCH  25  26
ATOM     26  C   UNL     1       3.187   6.992  18.723  0.00  0.00    +0.000 C 
BRANCH  26  27
ATOM     27  C   UNL     1       2.380   5.755  19.011  0.00  0.00    +0.000 A 
ATOM     28  C   UNL     1       2.076   4.862  17.975  0.00  0.00    +0.000 A 
ATOM     29  C   UNL     1       1.385   3.680  18.242  0.00  0.00    +0.000 A 
ATOM     30  C   UNL     1       0.984   3.385  19.544  0.00  0.00    +0.000 A 
ATOM     31  C   UNL     1       1.265   4.277  20.578  0.00  0.00    +0.000 A 
ATOM     32  C   UNL     1       1.957   5.460  20.313  0.00  0.00    +0.000 A 
ENDBRANCH  26  27
ENDBRANCH  25  26
ENDBRANCH   6  25
TORSDOF 6
ENDMDL
MODEL 9
REMARK VINA RESULT:      -8.2      7.114     11.397
REMARK  Name = 
REMARK  9 active torsions:
REMARK  status: ('A' for Active; 'I' for Inactive)
REMARK    1  A    between atoms: C_1  and  C_2
REMARK    2  A    between atoms: C_2  and  C_3
REMARK    3  A    between atoms: C_2  and  C_4
REMARK    4  A    between atoms: C_2  and  N_5
REMARK    5  A    between atoms: N_10  and  C_11
REMARK    6  A    between atoms: C_11  and  C_12
REMARK    7  A    between atoms: C_12  and  C_13
REMARK    8  A    between atoms: C_20  and  C_21
REMARK    9  A    between atoms: C_28  and  N_29
REMARK                            x       y       z     vdW  Elec       q    Type
REMARK                         _______ _______ _______ _____ _____    ______ ____
ROOT
ATOM      1  N   UNL     1       2.154  14.180  18.896  0.00  0.00    +0.000 N 
ATOM      2  N   UNL     1       2.625  13.146  18.149  0.00  0.00    +0.000 NA
ATOM      3  C   UNL     1       1.933  12.080  18.565  0.00  0.00    +0.000 A 
ATOM      4  N   UNL     1       2.069  10.800  18.145  0.00  0.00    +0.000 NA
ATOM      5  C   UNL     1       1.174   9.957  18.718  0.00  0.00    +0.000 A 
ATOM      6  N   UNL     1       1.231   8.599  18.464  0.00  0.00    +0.000 N 
ATOM      7  N   UNL     1       0.171  10.283  19.586  0.00  0.00    +0.000 NA
ATOM      8  C   UNL     1       0.042  11.555  20.067  0.00  0.00    +0.000 A 
ATOM      9  C   UNL     1       0.978  12.443  19.541  0.00  0.00    +0.000 A 
ATOM     10  C   UNL     1       1.221  13.762  19.844  0.00  0.00    +0.000 A 
ATOM     11  H   UNL     1       0.336   8.286  18.110  0.00  0.00    +0.000 HD
ENDROOT
BRANCH   8  12
ATOM     12  C   UNL     1      -1.065  11.849  20.970  0.00  0.00    +0.000 A 
ATOM     13  C   UNL     1      -0.997  11.504  22.329  0.00  0.00    +0.000 A 
ATOM     14  C   UNL     1      -2.055  11.787  23.199  0.00  0.00    +0.000 A 
ATOM     15  C   UNL     1      -3.196  12.433  22.725  0.00  0.00    +0.000 A 
ATOM     16  C   UNL     1      -3.293  12.769  21.381  0.00  0.00    +0.000 A 
ATOM     17  C   UNL     1      -2.251  12.449  20.510  0.00  0.00    +0.000 A 
ENDBRANCH   8  12
BRANCH   1  19
ATOM     18  C   UNL     1       3.563  15.643  17.420  0.00  0.00    +0.000 C 
ATOM     19  C   UNL     1       2.679  15.549  18.688  0.00  0.00    +0.000 C 
ATOM     20  C   UNL     1       3.554  15.996  19.877  0.00  0.00    +0.000 C 
ATOM     21  C   UNL     1       1.516  16.548  18.494  0.00  0.00    +0.000 C 
ENDBRANCH   1  19
BRANCH  10  22
ATOM     22  N   UNL     1       0.769  14.560  20.848  0.00  0.00    +0.000 N 
ATOM     23  H   UNL     1       0.792  15.572  20.706  0.00  0.00    +0.000 HD
ATOM     24  H   UNL     1       1.021  14.348  21.811  0.00  0.00    +0.000 HD
ENDBRANCH  10  22
BRANCH   6  25
ATOM     25  C   UNL     1       2.430   8.025  17.882  0.00  0.00    +0.000 C 
BRANCH  25  26
ATOM     26  C   UNL     1       3.100   7.090  18.902  0.00  0.00    +0.000 C 
BRANCH  26  27
ATOM     27  C   UNL     1       2.400   5.769  19.077  0.00  0.00    +0.000 A 
ATOM     28  C   UNL     1       2.005   5.352  20.355  0.00  0.00    +0.000 A 
ATOM     29  C   UNL     1       1.299   4.161  20.521  0.00  0.00    +0.000 A 
ATOM     30  C   UNL     1       0.990   3.372  19.413  0.00  0.00    +0.000 A 
ATOM     31  C   UNL     1       1.395   3.770  18.140  0.00  0.00    +0.000 A 
ATOM     32  C   UNL     1       2.102   4.962  17.972  0.00  0.00    +0.000 A 
ENDBRANCH  26  27
ENDBRANCH  25  26
ENDBRANCH   6  25
TORSDOF 6
ENDMDL
