MODEL 1
REMARK VINA RESULT:      -8.5      0.000      0.000
REMARK  Name = 
REMARK  9 active torsions:
REMARK  status: ('A' for Active; 'I' for Inactive)
REMARK    1  A    between atoms: C_1  and  C_2
REMARK    2  A    between atoms: C_2  and  C_3
REMARK    3  A    between atoms: C_3  and  N_4
REMARK    4  A    between atoms: C_3  and  C_24
REMARK    5  A    between atoms: C_5  and  C_7
REMARK    6  A    between atoms: C_12  and  N_13
REMARK    7  A    between atoms: N_13  and  S_14
REMARK    8  A    between atoms: S_14  and  C_17
REMARK    9  A    between atoms: C_20  and  C_21
REMARK                            x       y       z     vdW  Elec       q    Type
REMARK                         _______ _______ _______ _____ _____    ______ ____
ROOT
ATOM      1  C   UNL     1       3.838   3.648  18.779  0.00  0.00    +0.000 A 
ATOM      2  C   UNL     1       3.463   2.330  18.464  0.00  0.00    +0.000 A 
ATOM      3  C   UNL     1       2.195   1.847  18.793  0.00  0.00    +0.000 A 
ATOM      4  C   UNL     1       1.303   2.654  19.489  0.00  0.00    +0.000 A 
ATOM      5  C   UNL     1       1.678   3.945  19.857  0.00  0.00    +0.000 A 
ATOM      6  C   UNL     1       2.932   4.457  19.498  0.00  0.00    +0.000 A 
ENDROOT
BRANCH   1   8
ATOM      7  N   UNL     1       5.358   4.443  17.034  0.00  0.00    +0.000 N 
ATOM      8  C   UNL     1       5.195   4.154  18.378  0.00  0.00    +0.000 C 
ATOM      9  O   UNL     1       6.069   4.298  19.223  0.00  0.00    +0.000 OA
ATOM     10  H   UNL     1       4.554   4.448  16.430  0.00  0.00    +0.000 HD
BRANCH   7  11
ATOM     11  C   UNL     1       6.576   5.002  16.455  0.00  0.00    +0.000 C 
BRANCH  11  12
ATOM     12  C   UNL     1       6.671   4.642  14.972  0.00  0.00    +0.000 A 
ATOM     13  C   UNL     1       7.629   5.264  14.157  0.00  0.00    +0.000 A 
ATOM     14  C   UNL     1       7.673   5.015  12.781  0.00  0.00    +0.000 A 
ATOM     15  C   UNL     1       6.763   4.134  12.198  0.00  0.00    +0.000 A 
ATOM     16  C   UNL     1       5.821   3.489  12.995  0.00  0.00    +0.000 A 
ATOM     17  C   UNL     1       5.777   3.737  14.369  0.00  0.00    +0.000 A 
ENDBRANCH  11  12
BRANCH  11  19
ATOM     18  C   UNL     1       7.612   7.038  17.631  0.00  0.00    +0.000 C 
ATOM     19  C   UNL     1       6.605   6.539  16.608  0.00  0.00    +0.000 C 
ENDBRANCH  11  19
ENDBRANCH   7  11
ENDBRANCH   1   8
BRANCH   6  20
ATOM     20  N   UNL     1       3.187   5.841  19.796  0.00  0.00    +0.000 N 
ATOM     21  H   UNL     1       4.171   6.047  20.018  0.00  0.00    +0.000 HD
BRANCH  20  22
ATOM     22  S   UNL     1       2.647   6.971  18.642  0.00  0.00    +0.000 S 
ATOM     23  O   UNL     1       3.822   7.660  18.152  0.00  0.00    +0.000 OA
ATOM     24  O   UNL     1       1.724   6.320  17.736  0.00  0.00    +0.000 OA
BRANCH  22  25
ATOM     25  C   UNL     1       1.734   8.154  19.620  0.00  0.00    +0.000 A 
ATOM     26  C   UNL     1       1.503   7.903  20.974  0.00  0.00    +0.000 A 
ATOM     27  C   UNL     1       0.782   8.827  21.737  0.00  0.00    +0.000 A 
ATOM     28  C   UNL     1       0.296  10.006  21.156  0.00  0.00    +0.000 A 
ATOM     29  C   UNL     1      -0.503  10.992  21.962  0.00  0.00    +0.000 C 
ATOM     30  C   UNL     1       0.573  10.267  19.808  0.00  0.00    +0.000 A 
ATOM     31  C   UNL     1       1.296   9.350  19.039  0.00  0.00    +0.000 A 
ENDBRANCH  22  25
ENDBRANCH  20  22
ENDBRANCH   6  20
TORSDOF 7
ENDMDL
MODEL 2
REMARK VINA RESULT:      -8.4      0.485      1.354
REMARK  Name = 
REMARK  9 active torsions:
REMARK  status: ('A' for Active; 'I' for Inactive)
REMARK    1  A    between atoms: C_1  and  C_2
REMARK    2  A    between atoms: C_2  and  C_3
REMARK    3  A    between atoms: C_3  and  N_4
REMARK    4  A    between atoms: C_3  and  C_24
REMARK    5  A    between atoms: C_5  and  C_7
REMARK    6  A    between atoms: C_12  and  N_13
REMARK    7  A    between atoms: N_13  and  S_14
REMARK    8  A    between atoms: S_14  and  C_17
REMARK    9  A    between atoms: C_20  and  C_21
REMARK                            x       y       z     vdW  Elec       q    Type
REMARK                         _______ _______ _______ _____ _____    ______ ____
ROOT
ATOM      1  C   UNL     1       3.839   3.799  19.164  0.00  0.00    +0.000 A 
ATOM      2  C   UNL     1       3.473   2.446  19.047  0.00  0.00    +0.000 A 
ATOM      3  C   UNL     1       2.206   2.009  19.439  0.00  0.00    +0.000 A 
ATOM      4  C   UNL     1       1.305   2.905  20.002  0.00  0.00    +0.000 A 
ATOM      5  C   UNL     1       1.670   4.239  20.176  0.00  0.00    +0.000 A 
ATOM      6  C   UNL     1       2.923   4.700  19.751  0.00  0.00    +0.000 A 
ENDROOT
BRANCH   1   8
ATOM      7  N   UNL     1       5.292   4.587  17.360  0.00  0.00    +0.000 N 
ATOM      8  C   UNL     1       5.195   4.248  18.699  0.00  0.00    +0.000 C 
ATOM      9  O   UNL     1       6.126   4.306  19.492  0.00  0.00    +0.000 OA
ATOM     10  H   UNL     1       4.453   4.663  16.809  0.00  0.00    +0.000 HD
BRANCH   7  11
ATOM     11  C   UNL     1       6.501   5.106  16.728  0.00  0.00    +0.000 C 
BRANCH  11  12
ATOM     12  C   UNL     1       6.497   4.784  15.233  0.00  0.00    +0.000 A 
ATOM     13  C   UNL     1       5.506   3.948  14.697  0.00  0.00    +0.000 A 
ATOM     14  C   UNL     1       5.536   3.570  13.351  0.00  0.00    +0.000 A 
ATOM     15  C   UNL     1       6.555   4.027  12.516  0.00  0.00    +0.000 A 
ATOM     16  C   UNL     1       7.533   4.878  13.025  0.00  0.00    +0.000 A 
ATOM     17  C   UNL     1       7.503   5.256  14.369  0.00  0.00    +0.000 A 
ENDBRANCH  11  12
BRANCH  11  19
ATOM     18  C   UNL     1       7.689   7.056  17.906  0.00  0.00    +0.000 C 
ATOM     19  C   UNL     1       6.612   6.634  16.919  0.00  0.00    +0.000 C 
ENDBRANCH  11  19
ENDBRANCH   7  11
ENDBRANCH   1   8
BRANCH   6  20
ATOM     20  N   UNL     1       3.169   6.114  19.840  0.00  0.00    +0.000 N 
ATOM     21  H   UNL     1       4.146   6.357  20.060  0.00  0.00    +0.000 HD
BRANCH  20  22
ATOM     22  S   UNL     1       2.669   7.051  18.509  0.00  0.00    +0.000 S 
ATOM     23  O   UNL     1       3.861   7.647  17.946  0.00  0.00    +0.000 OA
ATOM     24  O   UNL     1       1.762   6.270  17.694  0.00  0.00    +0.000 OA
BRANCH  22  25
ATOM     25  C   UNL     1       1.743   8.379  19.264  0.00  0.00    +0.000 A 
ATOM     26  C   UNL     1       1.298   9.446  18.482  0.00  0.00    +0.000 A 
ATOM     27  C   UNL     1       0.579  10.488  19.076  0.00  0.00    +0.000 A 
ATOM     28  C   UNL     1       0.296  10.466  20.449  0.00  0.00    +0.000 A 
ATOM     29  C   UNL     1      -0.453  11.595  21.100  0.00  0.00    +0.000 C 
ATOM     30  C   UNL     1       0.708   9.367  21.213  0.00  0.00    +0.000 A 
ATOM     31  C   UNL     1       1.424   8.320  20.626  0.00  0.00    +0.000 A 
ENDBRANCH  22  25
ENDBRANCH  20  22
ENDBRANCH   6  20
TORSDOF 7
ENDMDL
MODEL 3
REMARK VINA RESULT:      -7.9      1.098      1.327
REMARK  Name = 
REMARK  9 active torsions:
REMARK  status: ('A' for Active; 'I' for Inactive)
REMARK    1  A    between atoms: C_1  and  C_2
REMARK    2  A    between atoms: C_2  and  C_3
REMARK    3  A    between atoms: C_3  and  N_4
REMARK    4  A    between atoms: C_3  and  C_24
REMARK    5  A    between atoms: C_5  and  C_7
REMARK    6  A    between atoms: C_12  and  N_13
REMARK    7  A    between atoms: N_13  and  S_14
REMARK    8  A    between atoms: S_14  and  C_17
REMARK    9  A    between atoms: C_20  and  C_21
REMARK                            x       y       z     vdW  Elec       q    Type
REMARK                         _______ _______ _______ _____ _____    ______ ____
ROOT
ATOM      1  C   UNL     1       3.489   3.340  18.166  0.00  0.00    +0.000 A 
ATOM      2  C   UNL     1       3.299   1.966  18.396  0.00  0.00    +0.000 A 
ATOM      3  C   UNL     1       2.021   1.444  18.606  0.00  0.00    +0.000 A 
ATOM      4  C   UNL     1       0.921   2.293  18.644  0.00  0.00    +0.000 A 
ATOM      5  C   UNL     1       1.097   3.665  18.472  0.00  0.00    +0.000 A 
ATOM      6  C   UNL     1       2.369   4.197  18.220  0.00  0.00    +0.000 A 
ENDROOT
BRANCH   1   8
ATOM      7  N   UNL     1       5.154   4.189  16.587  0.00  0.00    +0.000 N 
ATOM      8  C   UNL     1       4.871   3.868  17.903  0.00  0.00    +0.000 C 
ATOM      9  O   UNL     1       5.661   4.001  18.828  0.00  0.00    +0.000 OA
ATOM     10  H   UNL     1       4.409   4.200  15.911  0.00  0.00    +0.000 HD
BRANCH   7  11
ATOM     11  C   UNL     1       6.414   4.774  16.135  0.00  0.00    +0.000 C 
BRANCH  11  12
ATOM     12  C   UNL     1       6.617   4.506  14.644  0.00  0.00    +0.000 A 
ATOM     13  C   UNL     1       7.603   5.204  13.931  0.00  0.00    +0.000 A 
ATOM     14  C   UNL     1       7.746   5.038  12.550  0.00  0.00    +0.000 A 
ATOM     15  C   UNL     1       6.907   4.166  11.858  0.00  0.00    +0.000 A 
ATOM     16  C   UNL     1       5.938   3.446  12.552  0.00  0.00    +0.000 A 
ATOM     17  C   UNL     1       5.796   3.611  13.931  0.00  0.00    +0.000 A 
ENDBRANCH  11  12
BRANCH  11  19
ATOM     18  C   UNL     1       7.471   6.740  17.407  0.00  0.00    +0.000 C 
ATOM     19  C   UNL     1       6.436   6.297  16.385  0.00  0.00    +0.000 C 
ENDBRANCH  11  19
ENDBRANCH   7  11
ENDBRANCH   1   8
BRANCH   6  20
ATOM     20  N   UNL     1       2.445   5.601  17.918  0.00  0.00    +0.000 N 
ATOM     21  H   UNL     1       1.559   6.008  17.585  0.00  0.00    +0.000 HD
BRANCH  20  22
ATOM     22  S   UNL     1       3.070   6.603  19.145  0.00  0.00    +0.000 S 
ATOM     23  O   UNL     1       2.887   5.896  20.395  0.00  0.00    +0.000 OA
ATOM     24  O   UNL     1       4.372   7.091  18.741  0.00  0.00    +0.000 OA
BRANCH  22  25
ATOM     25  C   UNL     1       1.935   7.982  19.169  0.00  0.00    +0.000 A 
ATOM     26  C   UNL     1       1.345   8.373  20.372  0.00  0.00    +0.000 A 
ATOM     27  C   UNL     1       0.451   9.449  20.388  0.00  0.00    +0.000 A 
ATOM     28  C   UNL     1       0.150  10.142  19.207  0.00  0.00    +0.000 A 
ATOM     29  C   UNL     1      -0.829  11.283  19.210  0.00  0.00    +0.000 C 
ATOM     30  C   UNL     1       0.785   9.769  18.015  0.00  0.00    +0.000 A 
ATOM     31  C   UNL     1       1.681   8.696  17.992  0.00  0.00    +0.000 A 
ENDBRANCH  22  25
ENDBRANCH  20  22
ENDBRANCH   6  20
TORSDOF 7
ENDMDL
MODEL 4
REMARK VINA RESULT:      -7.9      1.126      1.863
REMARK  Name = 
REMARK  9 active torsions:
REMARK  status: ('A' for Active; 'I' for Inactive)
REMARK    1  A    between atoms: C_1  and  C_2
REMARK    2  A    between atoms: C_2  and  C_3
REMARK    3  A    between atoms: C_3  and  N_4
REMARK    4  A    between atoms: C_3  and  C_24
REMARK    5  A    between atoms: C_5  and  C_7
REMARK    6  A    between atoms: C_12  and  N_13
REMARK    7  A    between atoms: N_13  and  S_14
REMARK    8  A    between atoms: S_14  and  C_17
REMARK    9  A    between atoms: C_20  and  C_21
REMARK                            x       y       z     vdW  Elec       q    Type
REMARK                         _______ _______ _______ _____ _____    ______ ____
ROOT
ATOM      1  C   UNL     1       3.460   3.262  18.172  0.00  0.00    +0.000 A 
ATOM      2  C   UNL     1       3.270   1.874  18.296  0.00  0.00    +0.000 A 
ATOM      3  C   UNL     1       1.995   1.339  18.486  0.00  0.00    +0.000 A 
ATOM      4  C   UNL     1       0.898   2.183  18.608  0.00  0.00    +0.000 A 
ATOM      5  C   UNL     1       1.074   3.565  18.542  0.00  0.00    +0.000 A 
ATOM      6  C   UNL     1       2.343   4.114  18.311  0.00  0.00    +0.000 A 
ENDROOT
BRANCH   1   8
ATOM      7  N   UNL     1       5.112   4.200  16.629  0.00  0.00    +0.000 N 
ATOM      8  C   UNL     1       4.838   3.808  17.928  0.00  0.00    +0.000 C 
ATOM      9  O   UNL     1       5.635   3.893  18.854  0.00  0.00    +0.000 OA
ATOM     10  H   UNL     1       4.361   4.245  15.960  0.00  0.00    +0.000 HD
BRANCH   7  11
ATOM     11  C   UNL     1       6.366   4.812  16.200  0.00  0.00    +0.000 C 
BRANCH  11  12
ATOM     12  C   UNL     1       6.555   4.633  14.694  0.00  0.00    +0.000 A 
ATOM     13  C   UNL     1       5.744   3.734  13.986  0.00  0.00    +0.000 A 
ATOM     14  C   UNL     1       5.959   3.490  12.625  0.00  0.00    +0.000 A 
ATOM     15  C   UNL     1       6.986   4.147  11.949  0.00  0.00    +0.000 A 
ATOM     16  C   UNL     1       7.786   5.061  12.630  0.00  0.00    +0.000 A 
ATOM     17  C   UNL     1       7.570   5.305  13.988  0.00  0.00    +0.000 A 
ENDBRANCH  11  12
BRANCH  11  19
ATOM     18  C   UNL     1       7.455   6.706  17.554  0.00  0.00    +0.000 C 
ATOM     19  C   UNL     1       6.390   6.319  16.540  0.00  0.00    +0.000 C 
ENDBRANCH  11  19
ENDBRANCH   7  11
ENDBRANCH   1   8
BRANCH   6  20
ATOM     20  N   UNL     1       2.417   5.537  18.120  0.00  0.00    +0.000 N 
ATOM     21  H   UNL     1       1.559   5.954  17.730  0.00  0.00    +0.000 HD
BRANCH  20  22
ATOM     22  S   UNL     1       2.894   6.456  19.473  0.00  0.00    +0.000 S 
ATOM     23  O   UNL     1       2.367   5.783  20.641  0.00  0.00    +0.000 OA
ATOM     24  O   UNL     1       4.303   6.771  19.358  0.00  0.00    +0.000 OA
BRANCH  22  25
ATOM     25  C   UNL     1       1.963   7.969  19.292  0.00  0.00    +0.000 A 
ATOM     26  C   UNL     1       1.866   8.578  18.040  0.00  0.00    +0.000 A 
ATOM     27  C   UNL     1       1.142   9.767  17.901  0.00  0.00    +0.000 A 
ATOM     28  C   UNL     1       0.506  10.346  19.008  0.00  0.00    +0.000 A 
ATOM     29  C   UNL     1      -0.252  11.638  18.874  0.00  0.00    +0.000 C 
ATOM     30  C   UNL     1       0.573   9.700  20.249  0.00  0.00    +0.000 A 
ATOM     31  C   UNL     1       1.292   8.511  20.395  0.00  0.00    +0.000 A 
ENDBRANCH  22  25
ENDBRANCH  20  22
ENDBRANCH   6  20
TORSDOF 7
ENDMDL
MODEL 5
REMARK VINA RESULT:      -7.8      0.442      1.107
REMARK  Name = 
REMARK  9 active torsions:
REMARK  status: ('A' for Active; 'I' for Inactive)
REMARK    1  A    between atoms: C_1  and  C_2
REMARK    2  A    between atoms: C_2  and  C_3
REMARK    3  A    between atoms: C_3  and  N_4
REMARK    4  A    between atoms: C_3  and  C_24
REMARK    5  A    between atoms: C_5  and  C_7
REMARK    6  A    between atoms: C_12  and  N_13
REMARK    7  A    between atoms: N_13  and  S_14
REMARK    8  A    between atoms: S_14  and  C_17
REMARK    9  A    between atoms: C_20  and  C_21
REMARK                            x       y       z     vdW  Elec       q    Type
REMARK                         _______ _______ _______ _____ _____    ______ ____
ROOT
ATOM      1  C   UNL     1       3.740   3.590  18.727  0.00  0.00    +0.000 A 
ATOM      2  C   UNL     1       3.355   2.283  18.378  0.00  0.00    +0.000 A 
ATOM      3  C   UNL     1       2.118   1.771  18.771  0.00  0.00    +0.000 A 
ATOM      4  C   UNL     1       1.268   2.536  19.562  0.00  0.00    +0.000 A 
ATOM      5  C   UNL     1       1.656   3.813  19.963  0.00  0.00    +0.000 A 
ATOM      6  C   UNL     1       2.878   4.355  19.542  0.00  0.00    +0.000 A 
ENDROOT
BRANCH   1   8
ATOM      7  N   UNL     1       5.187   4.314  16.891  0.00  0.00    +0.000 N 
ATOM      8  C   UNL     1       5.061   4.130  18.257  0.00  0.00    +0.000 C 
ATOM      9  O   UNL     1       5.941   4.387  19.069  0.00  0.00    +0.000 OA
ATOM     10  H   UNL     1       4.372   4.228  16.305  0.00  0.00    +0.000 HD
BRANCH   7  11
ATOM     11  C   UNL     1       6.363   4.885  16.242  0.00  0.00    +0.000 C 
BRANCH  11  12
ATOM     12  C   UNL     1       6.430   4.440  14.781  0.00  0.00    +0.000 A 
ATOM     13  C   UNL     1       7.465   4.900  13.952  0.00  0.00    +0.000 A 
ATOM     14  C   UNL     1       7.495   4.577  12.592  0.00  0.00    +0.000 A 
ATOM     15  C   UNL     1       6.492   3.782  12.038  0.00  0.00    +0.000 A 
ATOM     16  C   UNL     1       5.470   3.296  12.850  0.00  0.00    +0.000 A 
ATOM     17  C   UNL     1       5.441   3.618  14.209  0.00  0.00    +0.000 A 
ENDBRANCH  11  12
BRANCH  11  19
ATOM     18  C   UNL     1       5.127   7.049  15.615  0.00  0.00    +0.000 C 
ATOM     19  C   UNL     1       6.333   6.428  16.303  0.00  0.00    +0.000 C 
ENDBRANCH  11  19
ENDBRANCH   7  11
ENDBRANCH   1   8
BRANCH   6  20
ATOM     20  N   UNL     1       3.141   5.727  19.884  0.00  0.00    +0.000 N 
ATOM     21  H   UNL     1       4.118   5.912  20.154  0.00  0.00    +0.000 HD
BRANCH  20  22
ATOM     22  S   UNL     1       2.670   6.893  18.735  0.00  0.00    +0.000 S 
ATOM     23  O   UNL     1       3.876   7.570  18.309  0.00  0.00    +0.000 OA
ATOM     24  O   UNL     1       1.773   6.280  17.778  0.00  0.00    +0.000 OA
BRANCH  22  25
ATOM     25  C   UNL     1       1.739   8.072  19.703  0.00  0.00    +0.000 A 
ATOM     26  C   UNL     1       1.306   9.262  19.115  0.00  0.00    +0.000 A 
ATOM     27  C   UNL     1       0.583  10.187  19.876  0.00  0.00    +0.000 A 
ATOM     28  C   UNL     1       0.284   9.925  21.220  0.00  0.00    +0.000 A 
ATOM     29  C   UNL     1      -0.469  10.925  22.052  0.00  0.00    +0.000 C 
ATOM     30  C   UNL     1       0.685   8.707  21.784  0.00  0.00    +0.000 A 
ATOM     31  C   UNL     1       1.405   7.776  21.030  0.00  0.00    +0.000 A 
ENDBRANCH  22  25
ENDBRANCH  20  22
ENDBRANCH   6  20
TORSDOF 7
ENDMDL
MODEL 6
REMARK VINA RESULT:      -7.6      1.122      1.447
REMARK  Name = 
REMARK  9 active torsions:
REMARK  status: ('A' for Active; 'I' for Inactive)
REMARK    1  A    between atoms: C_1  and  C_2
REMARK    2  A    between atoms: C_2  and  C_3
REMARK    3  A    between atoms: C_3  and  N_4
REMARK    4  A    between atoms: C_3  and  C_24
REMARK    5  A    between atoms: C_5  and  C_7
REMARK    6  A    between atoms: C_12  and  N_13
REMARK    7  A    between atoms: N_13  and  S_14
REMARK    8  A    between atoms: S_14  and  C_17
REMARK    9  A    between atoms: C_20  and  C_21
REMARK                            x       y       z     vdW  Elec       q    Type
REMARK                         _______ _______ _______ _____ _____    ______ ____
ROOT
ATOM      1  C   UNL     1       3.383   4.645  17.851  0.00  0.00    +0.000 A 
ATOM      2  C   UNL     1       2.935   3.358  17.501  0.00  0.00    +0.000 A 
ATOM      3  C   UNL     1       1.811   2.800  18.111  0.00  0.00    +0.000 A 
ATOM      4  C   UNL     1       1.149   3.493  19.117  0.00  0.00    +0.000 A 
ATOM      5  C   UNL     1       1.611   4.747  19.515  0.00  0.00    +0.000 A 
ATOM      6  C   UNL     1       2.714   5.337  18.884  0.00  0.00    +0.000 A 
ENDROOT
BRANCH   1   8
ATOM      7  N   UNL     1       5.742   4.501  17.218  0.00  0.00    +0.000 N 
ATOM      8  C   UNL     1       4.572   5.237  17.150  0.00  0.00    +0.000 C 
ATOM      9  O   UNL     1       4.464   6.304  16.558  0.00  0.00    +0.000 OA
ATOM     10  H   UNL     1       5.714   3.565  17.587  0.00  0.00    +0.000 HD
BRANCH   7  11
ATOM     11  C   UNL     1       6.988   4.871  16.553  0.00  0.00    +0.000 C 
BRANCH  11  12
ATOM     12  C   UNL     1       6.863   4.667  15.043  0.00  0.00    +0.000 A 
ATOM     13  C   UNL     1       5.932   3.749  14.532  0.00  0.00    +0.000 A 
ATOM     14  C   UNL     1       5.864   3.483  13.161  0.00  0.00    +0.000 A 
ATOM     15  C   UNL     1       6.722   4.134  12.276  0.00  0.00    +0.000 A 
ATOM     16  C   UNL     1       7.635   5.066  12.762  0.00  0.00    +0.000 A 
ATOM     17  C   UNL     1       7.703   5.333  14.131  0.00  0.00    +0.000 A 
ENDBRANCH  11  12
BRANCH  11  19
ATOM     18  C   UNL     1       7.721   6.621  18.286  0.00  0.00    +0.000 C 
ATOM     19  C   UNL     1       7.349   6.345  16.838  0.00  0.00    +0.000 C 
ENDBRANCH  11  19
ENDBRANCH   7  11
ENDBRANCH   1   8
BRANCH   6  20
ATOM     20  N   UNL     1       3.041   6.686  19.258  0.00  0.00    +0.000 N 
ATOM     21  H   UNL     1       4.047   6.904  19.205  0.00  0.00    +0.000 HD
BRANCH  20  22
ATOM     22  S   UNL     1       2.181   7.920  18.459  0.00  0.00    +0.000 S 
ATOM     23  O   UNL     1       3.162   8.873  17.986  0.00  0.00    +0.000 OA
ATOM     24  O   UNL     1       1.220   7.320  17.558  0.00  0.00    +0.000 OA
BRANCH  22  25
ATOM     25  C   UNL     1       1.287   8.722  19.781  0.00  0.00    +0.000 A 
ATOM     26  C   UNL     1       1.378   8.222  21.082  0.00  0.00    +0.000 A 
ATOM     27  C   UNL     1       0.672   8.847  22.115  0.00  0.00    +0.000 A 
ATOM     28  C   UNL     1      -0.119   9.975  21.857  0.00  0.00    +0.000 A 
ATOM     29  C   UNL     1      -0.902  10.636  22.956  0.00  0.00    +0.000 C 
ATOM     30  C   UNL     1      -0.165  10.493  20.556  0.00  0.00    +0.000 A 
ATOM     31  C   UNL     1       0.540   9.876  19.519  0.00  0.00    +0.000 A 
ENDBRANCH  22  25
ENDBRANCH  20  22
ENDBRANCH   6  20
TORSDOF 7
ENDMDL
MODEL 7
REMARK VINA RESULT:      -7.5      1.157      1.471
REMARK  Name = 
REMARK  9 active torsions:
REMARK  status: ('A' for Active; 'I' for Inactive)
REMARK    1  A    between atoms: C_1  and  C_2
REMARK    2  A    between atoms: C_2  and  C_3
REMARK    3  A    between atoms: C_3  and  N_4
REMARK    4  A    between atoms: C_3  and  C_24
REMARK    5  A    between atoms: C_5  and  C_7
REMARK    6  A    between atoms: C_12  and  N_13
REMARK    7  A    between atoms: N_13  and  S_14
REMARK    8  A    between atoms: S_14  and  C_17
REMARK    9  A    between atoms: C_20  and  C_21
REMARK                            x       y       z     vdW  Elec       q    Type
REMARK                         _______ _______ _______ _____ _____    ______ ____
ROOT
ATOM      1  C   UNL     1       3.378   4.728  17.864  0.00  0.00    +0.000 A 
ATOM      2  C   UNL     1       2.929   3.441  17.520  0.00  0.00    +0.000 A 
ATOM      3  C   UNL     1       1.802   2.887  18.131  0.00  0.00    +0.000 A 
ATOM      4  C   UNL     1       1.139   3.588  19.131  0.00  0.00    +0.000 A 
ATOM      5  C   UNL     1       1.602   4.843  19.523  0.00  0.00    +0.000 A 
ATOM      6  C   UNL     1       2.707   5.428  18.891  0.00  0.00    +0.000 A 
ENDROOT
BRANCH   1   8
ATOM      7  N   UNL     1       5.747   4.594  17.266  0.00  0.00    +0.000 N 
ATOM      8  C   UNL     1       4.570   5.315  17.163  0.00  0.00    +0.000 C 
ATOM      9  O   UNL     1       4.459   6.364  16.542  0.00  0.00    +0.000 OA
ATOM     10  H   UNL     1       5.724   3.668  17.660  0.00  0.00    +0.000 HD
BRANCH   7  11
ATOM     11  C   UNL     1       6.997   4.960  16.608  0.00  0.00    +0.000 C 
BRANCH  11  12
ATOM     12  C   UNL     1       6.922   4.643  15.114  0.00  0.00    +0.000 A 
ATOM     13  C   UNL     1       7.767   5.305  14.211  0.00  0.00    +0.000 A 
ATOM     14  C   UNL     1       7.653   5.094  12.833  0.00  0.00    +0.000 A 
ATOM     15  C   UNL     1       6.694   4.213  12.335  0.00  0.00    +0.000 A 
ATOM     16  C   UNL     1       5.862   3.529  13.218  0.00  0.00    +0.000 A 
ATOM     17  C   UNL     1       5.977   3.738  14.594  0.00  0.00    +0.000 A 
ENDBRANCH  11  12
BRANCH  11  19
ATOM     18  C   UNL     1       7.780   6.828  18.189  0.00  0.00    +0.000 C 
ATOM     19  C   UNL     1       7.300   6.463  16.793  0.00  0.00    +0.000 C 
ENDBRANCH  11  19
ENDBRANCH   7  11
ENDBRANCH   1   8
BRANCH   6  20
ATOM     20  N   UNL     1       3.036   6.779  19.259  0.00  0.00    +0.000 N 
ATOM     21  H   UNL     1       4.040   7.000  19.190  0.00  0.00    +0.000 HD
BRANCH  20  22
ATOM     22  S   UNL     1       2.159   8.008  18.471  0.00  0.00    +0.000 S 
ATOM     23  O   UNL     1       3.126   8.985  18.017  0.00  0.00    +0.000 OA
ATOM     24  O   UNL     1       1.214   7.404  17.556  0.00  0.00    +0.000 OA
BRANCH  22  25
ATOM     25  C   UNL     1       1.243   8.776  19.799  0.00  0.00    +0.000 A 
ATOM     26  C   UNL     1       0.404   9.858  19.527  0.00  0.00    +0.000 A 
ATOM     27  C   UNL     1      -0.307  10.463  20.568  0.00  0.00    +0.000 A 
ATOM     28  C   UNL     1      -0.190   9.986  21.882  0.00  0.00    +0.000 A 
ATOM     29  C   UNL     1      -0.929  10.646  23.011  0.00  0.00    +0.000 C 
ATOM     30  C   UNL     1       0.620   8.871  22.133  0.00  0.00    +0.000 A 
ATOM     31  C   UNL     1       1.331   8.259  21.097  0.00  0.00    +0.000 A 
ENDBRANCH  22  25
ENDBRANCH  20  22
ENDBRANCH   6  20
TORSDOF 7
ENDMDL
MODEL 8
REMARK VINA RESULT:      -7.5      2.525      7.099
REMARK  Name = 
REMARK  9 active torsions:
REMARK  status: ('A' for Active; 'I' for Inactive)
REMARK    1  A    between atoms: C_1  and  C_2
REMARK    2  A    between atoms: C_2  and  C_3
REMARK    3  A    between atoms: C_3  and  N_4
REMARK    4  A    between atoms: C_3  and  C_24
REMARK    5  A    between atoms: C_5  and  C_7
REMARK    6  A    between atoms: C_12  and  N_13
REMARK    7  A    between atoms: N_13  and  S_14
REMARK    8  A    between atoms: S_14  and  C_17
REMARK    9  A    between atoms: C_20  and  C_21
REMARK                            x       y       z     vdW  Elec       q    Type
REMARK                         _______ _______ _______ _____ _____    ______ ____
ROOT
ATOM      1  C   UNL     1       1.996   5.076  19.459  0.00  0.00    +0.000 A 
ATOM      2  C   UNL     1       1.058   4.399  20.259  0.00  0.00    +0.000 A 
ATOM      3  C   UNL     1       0.713   3.073  19.994  0.00  0.00    +0.000 A 
ATOM      4  C   UNL     1       1.258   2.419  18.895  0.00  0.00    +0.000 A 
ATOM      5  C   UNL     1       2.148   3.092  18.059  0.00  0.00    +0.000 A 
ATOM      6  C   UNL     1       2.534   4.410  18.336  0.00  0.00    +0.000 A 
ENDROOT
BRANCH   1   8
ATOM      7  N   UNL     1       1.338   7.326  20.161  0.00  0.00    +0.000 N 
ATOM      8  C   UNL     1       2.378   6.490  19.791  0.00  0.00    +0.000 C 
ATOM      9  O   UNL     1       3.551   6.837  19.734  0.00  0.00    +0.000 OA
ATOM     10  H   UNL     1       0.428   6.933  20.334  0.00  0.00    +0.000 HD
BRANCH   7  11
ATOM     11  C   UNL     1       1.507   8.714  20.581  0.00  0.00    +0.000 C 
BRANCH  11  12
ATOM     12  C   UNL     1       0.621   9.633  19.740  0.00  0.00    +0.000 A 
ATOM     13  C   UNL     1       0.099  10.810  20.298  0.00  0.00    +0.000 A 
ATOM     14  C   UNL     1      -0.784  11.618  19.575  0.00  0.00    +0.000 A 
ATOM     15  C   UNL     1      -1.157  11.264  18.279  0.00  0.00    +0.000 A 
ATOM     16  C   UNL     1      -0.631  10.113  17.700  0.00  0.00    +0.000 A 
ATOM     17  C   UNL     1       0.252   9.307  18.422  0.00  0.00    +0.000 A 
ENDBRANCH  11  12
BRANCH  11  19
ATOM     18  C   UNL     1      -0.287   8.516  22.410  0.00  0.00    +0.000 C 
ATOM     19  C   UNL     1       1.149   8.887  22.073  0.00  0.00    +0.000 C 
ENDBRANCH  11  19
ENDBRANCH   7  11
ENDBRANCH   1   8
BRANCH   6  20
ATOM     20  N   UNL     1       3.559   4.984  17.506  0.00  0.00    +0.000 N 
ATOM     21  H   UNL     1       3.622   6.010  17.567  0.00  0.00    +0.000 HD
BRANCH  20  22
ATOM     22  S   UNL     1       5.124   4.336  17.684  0.00  0.00    +0.000 S 
ATOM     23  O   UNL     1       5.168   3.705  18.986  0.00  0.00    +0.000 OA
ATOM     24  O   UNL     1       5.474   3.607  16.483  0.00  0.00    +0.000 OA
BRANCH  22  25
ATOM     25  C   UNL     1       6.161   5.787  17.785  0.00  0.00    +0.000 A 
ATOM     26  C   UNL     1       7.297   5.772  18.597  0.00  0.00    +0.000 A 
ATOM     27  C   UNL     1       8.104   6.911  18.680  0.00  0.00    +0.000 A 
ATOM     28  C   UNL     1       7.787   8.064  17.949  0.00  0.00    +0.000 A 
ATOM     29  C   UNL     1       8.634   9.301  18.052  0.00  0.00    +0.000 C 
ATOM     30  C   UNL     1       6.671   8.049  17.102  0.00  0.00    +0.000 A 
ATOM     31  C   UNL     1       5.860   6.914  17.011  0.00  0.00    +0.000 A 
ENDBRANCH  22  25
ENDBRANCH  20  22
ENDBRANCH   6  20
TORSDOF 7
ENDMDL
MODEL 9
REMARK VINA RESULT:      -7.5      0.992      2.753
REMARK  Name = 
REMARK  9 active torsions:
REMARK  status: ('A' for Active; 'I' for Inactive)
REMARK    1  A    between atoms: C_1  and  C_2
REMARK    2  A    between atoms: C_2  and  C_3
REMARK    3  A    between atoms: C_3  and  N_4
REMARK    4  A    between atoms: C_3  and  C_24
REMARK    5  A    between atoms: C_5  and  C_7
REMARK    6  A    between atoms: C_12  and  N_13
REMARK    7  A    between atoms: N_13  and  S_14
REMARK    8  A    between atoms: S_14  and  C_17
REMARK    9  A    between atoms: C_20  and  C_21
REMARK                            x       y       z     vdW  Elec       q    Type
REMARK                         _______ _______ _______ _____ _____    ______ ____
ROOT
ATOM      1  C   UNL     1       3.136   3.733  19.053  0.00  0.00    +0.000 A 
ATOM      2  C   UNL     1       2.501   2.479  18.995  0.00  0.00    +0.000 A 
ATOM      3  C   UNL     1       1.290   2.258  19.653  0.00  0.00    +0.000 A 
ATOM      4  C   UNL     1       0.722   3.267  20.422  0.00  0.00    +0.000 A 
ATOM      5  C   UNL     1       1.365   4.498  20.536  0.00  0.00    +0.000 A 
ATOM      6  C   UNL     1       2.560   4.748  19.848  0.00  0.00    +0.000 A 
ENDROOT
BRANCH   1   8
ATOM      7  N   UNL     1       4.345   4.819  17.224  0.00  0.00    +0.000 N 
ATOM      8  C   UNL     1       4.418   3.955  18.303  0.00  0.00    +0.000 C 
ATOM      9  O   UNL     1       5.444   3.394  18.665  0.00  0.00    +0.000 OA
ATOM     10  H   UNL     1       3.508   5.361  17.083  0.00  0.00    +0.000 HD
BRANCH   7  11
ATOM     11  C   UNL     1       5.488   5.215  16.407  0.00  0.00    +0.000 C 
BRANCH  11  12
ATOM     12  C   UNL     1       6.457   6.066  17.229  0.00  0.00    +0.000 A 
ATOM     13  C   UNL     1       6.683   7.407  16.883  0.00  0.00    +0.000 A 
ATOM     14  C   UNL     1       7.630   8.176  17.567  0.00  0.00    +0.000 A 
ATOM     15  C   UNL     1       8.365   7.618  18.612  0.00  0.00    +0.000 A 
ATOM     16  C   UNL     1       8.137   6.296  18.985  0.00  0.00    +0.000 A 
ATOM     17  C   UNL     1       7.190   5.528  18.303  0.00  0.00    +0.000 A 
ENDBRANCH  11  12
BRANCH  11  19
ATOM     18  C   UNL     1       6.332   3.931  14.348  0.00  0.00    +0.000 C 
ATOM     19  C   UNL     1       6.234   3.977  15.864  0.00  0.00    +0.000 C 
ENDBRANCH  11  19
ENDBRANCH   7  11
ENDBRANCH   1   8
BRANCH   6  20
ATOM     20  N   UNL     1       3.086   6.085  19.907  0.00  0.00    +0.000 N 
ATOM     21  H   UNL     1       4.115   6.132  19.907  0.00  0.00    +0.000 HD
BRANCH  20  22
ATOM     22  S   UNL     1       2.497   7.178  18.741  0.00  0.00    +0.000 S 
ATOM     23  O   UNL     1       3.645   7.890  18.221  0.00  0.00    +0.000 OA
ATOM     24  O   UNL     1       1.580   6.484  17.862  0.00  0.00    +0.000 OA
BRANCH  22  25
ATOM     25  C   UNL     1       1.565   8.353  19.712  0.00  0.00    +0.000 A 
ATOM     26  C   UNL     1       1.350   8.114  21.071  0.00  0.00    +0.000 A 
ATOM     27  C   UNL     1       0.615   9.031  21.828  0.00  0.00    +0.000 A 
ATOM     28  C   UNL     1       0.098  10.192  21.235  0.00  0.00    +0.000 A 
ATOM     29  C   UNL     1      -0.716  11.170  22.035  0.00  0.00    +0.000 C 
ATOM     30  C   UNL     1       0.361  10.442  19.882  0.00  0.00    +0.000 A 
ATOM     31  C   UNL     1       1.097   9.532  19.119  0.00  0.00    +0.000 A 
ENDBRANCH  22  25
ENDBRANCH  20  22
ENDBRANCH   6  20
TORSDOF 7
ENDMDL
