MODEL 1
REMARK VINA RESULT:      -7.7      0.000      0.000
REMARK  Name = 
REMARK  8 active torsions:
REMARK  status: ('A' for Active; 'I' for Inactive)
REMARK    1  A    between atoms: C_1  and  O_2
REMARK    2  A    between atoms: O_2  and  C_3
REMARK    3  A    between atoms: C_8  and  O_9
REMARK    4  A    between atoms: O_9  and  C_10
REMARK    5  A    between atoms: C_11  and  C_12
REMARK    6  A    between atoms: C_12  and  C_13
REMARK    7  A    between atoms: C_13  and  O_14
REMARK    8  A    between atoms: C_13  and  C_15
REMARK                            x       y       z     vdW  Elec       q    Type
REMARK                         _______ _______ _______ _____ _____    ______ ____
ROOT
ATOM      1  C   UNL     1       1.965   7.167  20.153  0.00  0.00    +0.000 A 
ATOM      2  C   UNL     1       1.902   5.885  20.714  0.00  0.00    +0.000 A 
ATOM      3  C   UNL     1       2.362   4.772  20.006  0.00  0.00    +0.000 A 
ATOM      4  C   UNL     1       2.891   4.921  18.715  0.00  0.00    +0.000 A 
ATOM      5  C   UNL     1       2.948   6.209  18.160  0.00  0.00    +0.000 A 
ATOM      6  C   UNL     1       2.506   7.340  18.869  0.00  0.00    +0.000 A 
ATOM      7  C   UNL     1       3.326   3.649  17.988  0.00  0.00    +0.000 C 
ATOM      8  N   UNL     1       4.119   2.766  18.862  0.00  0.00    +0.000 NA
ATOM      9  C   UNL     1       3.652   2.677  20.254  0.00  0.00    +0.000 C 
ATOM     10  C   UNL     1       2.327   3.380  20.578  0.00  0.00    +0.000 C 
ATOM     11  H   UNL     1       5.093   3.063  18.868  0.00  0.00    +0.000 HD
ENDROOT
BRANCH   1  13
ATOM     12  C   UNL     1       0.122   8.216  21.236  0.00  0.00    +0.000 C 
ATOM     13  O   UNL     1       1.523   8.154  20.998  0.00  0.00    +0.000 OA
ENDBRANCH   1  13
BRANCH   6  14
ATOM     14  O   UNL     1       2.606   8.610  18.371  0.00  0.00    +0.000 OA
ATOM     15  C   UNL     1       1.462   9.200  17.768  0.00  0.00    +0.000 C 
ENDBRANCH   6  14
BRANCH   7  16
ATOM     16  C   UNL     1       4.121   3.930  16.692  0.00  0.00    +0.000 C 
BRANCH  16  17
ATOM     17  C   UNL     1       5.635   3.693  16.799  0.00  0.00    +0.000 C 
BRANCH  17  18
ATOM     18  C   UNL     1       6.367   4.961  17.231  0.00  0.00    +0.000 A 
ATOM     19  C   UNL     1       6.199   6.154  16.502  0.00  0.00    +0.000 A 
ATOM     20  C   UNL     1       6.865   7.326  16.883  0.00  0.00    +0.000 A 
ATOM     21  C   UNL     1       7.695   7.316  17.999  0.00  0.00    +0.000 A 
ATOM     22 CL   UNL     1       8.512   8.756  18.472  0.00  0.00    +0.000 Cl
ATOM     23  C   UNL     1       7.863   6.154  18.738  0.00  0.00    +0.000 A 
ATOM     24  C   UNL     1       7.199   4.985  18.357  0.00  0.00    +0.000 A 
ENDBRANCH  17  18
BRANCH  17  25
ATOM     25  O   UNL     1       6.131   3.231  15.541  0.00  0.00    +0.000 OA
ATOM     26  H   UNL     1       5.698   2.382  15.349  0.00  0.00    +0.000 HD
ENDBRANCH  17  25
ENDBRANCH  16  17
ENDBRANCH   7  16
TORSDOF 6
ENDMDL
MODEL 2
REMARK VINA RESULT:      -7.6      0.332      1.035
REMARK  Name = 
REMARK  8 active torsions:
REMARK  status: ('A' for Active; 'I' for Inactive)
REMARK    1  A    between atoms: C_1  and  O_2
REMARK    2  A    between atoms: O_2  and  C_3
REMARK    3  A    between atoms: C_8  and  O_9
REMARK    4  A    between atoms: O_9  and  C_10
REMARK    5  A    between atoms: C_11  and  C_12
REMARK    6  A    between atoms: C_12  and  C_13
REMARK    7  A    between atoms: C_13  and  O_14
REMARK    8  A    between atoms: C_13  and  C_15
REMARK                            x       y       z     vdW  Elec       q    Type
REMARK                         _______ _______ _______ _____ _____    ______ ____
ROOT
ATOM      1  C   UNL     1       1.714   7.162  20.497  0.00  0.00    +0.000 A 
ATOM      2  C   UNL     1       1.628   5.854  20.991  0.00  0.00    +0.000 A 
ATOM      3  C   UNL     1       2.085   4.773  20.233  0.00  0.00    +0.000 A 
ATOM      4  C   UNL     1       2.635   4.981  18.959  0.00  0.00    +0.000 A 
ATOM      5  C   UNL     1       2.715   6.295  18.472  0.00  0.00    +0.000 A 
ATOM      6  C   UNL     1       2.276   7.393  19.231  0.00  0.00    +0.000 A 
ATOM      7  C   UNL     1       3.066   3.742  18.173  0.00  0.00    +0.000 C 
ATOM      8  N   UNL     1       3.836   2.806  19.012  0.00  0.00    +0.000 NA
ATOM      9  C   UNL     1       3.347   2.652  20.391  0.00  0.00    +0.000 C 
ATOM     10  C   UNL     1       2.026   3.354  20.732  0.00  0.00    +0.000 C 
ATOM     11  H   UNL     1       4.812   3.090  19.047  0.00  0.00    +0.000 HD
ENDROOT
BRANCH   1  13
ATOM     12  C   UNL     1      -0.101   8.474  21.304  0.00  0.00    +0.000 C 
ATOM     13  O   UNL     1       1.271   8.111  21.385  0.00  0.00    +0.000 OA
ENDBRANCH   1  13
BRANCH   6  14
ATOM     14  O   UNL     1       2.398   8.686  18.801  0.00  0.00    +0.000 OA
ATOM     15  C   UNL     1       1.542   9.145  17.762  0.00  0.00    +0.000 C 
ENDBRANCH   6  14
BRANCH   7  16
ATOM     16  C   UNL     1       3.882   4.079  16.905  0.00  0.00    +0.000 C 
BRANCH  16  17
ATOM     17  C   UNL     1       5.390   3.804  17.016  0.00  0.00    +0.000 C 
BRANCH  17  18
ATOM     18  C   UNL     1       6.163   5.075  17.355  0.00  0.00    +0.000 A 
ATOM     19  C   UNL     1       7.159   5.050  18.351  0.00  0.00    +0.000 A 
ATOM     20  C   UNL     1       7.876   6.207  18.677  0.00  0.00    +0.000 A 
ATOM     21  C   UNL     1       7.611   7.395  18.004  0.00  0.00    +0.000 A 
ATOM     22 CL   UNL     1       8.494   8.820  18.400  0.00  0.00    +0.000 Cl
ATOM     23  C   UNL     1       6.644   7.438  17.011  0.00  0.00    +0.000 A 
ATOM     24  C   UNL     1       5.928   6.283  16.686  0.00  0.00    +0.000 A 
ENDBRANCH  17  18
BRANCH  17  25
ATOM     25  O   UNL     1       5.859   3.244  15.788  0.00  0.00    +0.000 OA
ATOM     26  H   UNL     1       5.842   3.950  15.119  0.00  0.00    +0.000 HD
ENDBRANCH  17  25
ENDBRANCH  16  17
ENDBRANCH   7  16
TORSDOF 6
ENDMDL
MODEL 3
REMARK VINA RESULT:      -7.1      2.043      2.458
REMARK  Name = 
REMARK  8 active torsions:
REMARK  status: ('A' for Active; 'I' for Inactive)
REMARK    1  A    between atoms: C_1  and  O_2
REMARK    2  A    between atoms: O_2  and  C_3
REMARK    3  A    between atoms: C_8  and  O_9
REMARK    4  A    between atoms: O_9  and  C_10
REMARK    5  A    between atoms: C_11  and  C_12
REMARK    6  A    between atoms: C_12  and  C_13
REMARK    7  A    between atoms: C_13  and  O_14
REMARK    8  A    between atoms: C_13  and  C_15
REMARK                            x       y       z     vdW  Elec       q    Type
REMARK                         _______ _______ _______ _____ _____    ______ ____
ROOT
ATOM      1  C   UNL     1       1.775   7.408  20.102  0.00  0.00    +0.000 A 
ATOM      2  C   UNL     1       1.454   6.271  20.855  0.00  0.00    +0.000 A 
ATOM      3  C   UNL     1       1.816   4.996  20.412  0.00  0.00    +0.000 A 
ATOM      4  C   UNL     1       2.506   4.834  19.201  0.00  0.00    +0.000 A 
ATOM      5  C   UNL     1       2.822   5.979  18.454  0.00  0.00    +0.000 A 
ATOM      6  C   UNL     1       2.480   7.268  18.896  0.00  0.00    +0.000 A 
ATOM      7  C   UNL     1       2.822   3.403  18.764  0.00  0.00    +0.000 C 
ATOM      8  N   UNL     1       3.365   2.601  19.874  0.00  0.00    +0.000 NA
ATOM      9  C   UNL     1       2.734   2.832  21.183  0.00  0.00    +0.000 C 
ATOM     10  C   UNL     1       1.503   3.749  21.197  0.00  0.00    +0.000 C 
ATOM     11  H   UNL     1       4.366   2.765  19.967  0.00  0.00    +0.000 HD
ENDROOT
BRANCH   1  13
ATOM     12  C   UNL     1       0.255   8.531  21.550  0.00  0.00    +0.000 C 
ATOM     13  O   UNL     1       1.396   8.583  20.701  0.00  0.00    +0.000 OA
ENDBRANCH   1  13
BRANCH   6  14
ATOM     14  O   UNL     1       2.829   8.402  18.213  0.00  0.00    +0.000 OA
ATOM     15  C   UNL     1       1.799   9.227  17.686  0.00  0.00    +0.000 C 
ENDBRANCH   6  14
BRANCH   7  16
ATOM     16  C   UNL     1       3.793   3.335  17.563  0.00  0.00    +0.000 C 
BRANCH  16  17
ATOM     17  C   UNL     1       5.065   4.184  17.712  0.00  0.00    +0.000 C 
BRANCH  17  18
ATOM     18  C   UNL     1       5.751   4.400  16.366  0.00  0.00    +0.000 A 
ATOM     19  C   UNL     1       5.161   3.904  15.188  0.00  0.00    +0.000 A 
ATOM     20  C   UNL     1       5.778   4.090  13.944  0.00  0.00    +0.000 A 
ATOM     21  C   UNL     1       6.983   4.782  13.869  0.00  0.00    +0.000 A 
ATOM     22 CL   UNL     1       7.741   5.017  12.341  0.00  0.00    +0.000 Cl
ATOM     23  C   UNL     1       7.573   5.290  15.017  0.00  0.00    +0.000 A 
ATOM     24  C   UNL     1       6.957   5.103  16.257  0.00  0.00    +0.000 A 
ENDBRANCH  17  18
BRANCH  17  25
ATOM     25  O   UNL     1       5.954   3.546  18.631  0.00  0.00    +0.000 OA
ATOM     26  H   UNL     1       6.474   4.241  19.067  0.00  0.00    +0.000 HD
ENDBRANCH  17  25
ENDBRANCH  16  17
ENDBRANCH   7  16
TORSDOF 6
ENDMDL
MODEL 4
REMARK VINA RESULT:      -6.9      2.475      6.118
REMARK  Name = 
REMARK  8 active torsions:
REMARK  status: ('A' for Active; 'I' for Inactive)
REMARK    1  A    between atoms: C_1  and  O_2
REMARK    2  A    between atoms: O_2  and  C_3
REMARK    3  A    between atoms: C_8  and  O_9
REMARK    4  A    between atoms: O_9  and  C_10
REMARK    5  A    between atoms: C_11  and  C_12
REMARK    6  A    between atoms: C_12  and  C_13
REMARK    7  A    between atoms: C_13  and  O_14
REMARK    8  A    between atoms: C_13  and  C_15
REMARK                            x       y       z     vdW  Elec       q    Type
REMARK                         _______ _______ _______ _____ _____    ______ ____
ROOT
ATOM      1  C   UNL     1       6.919   5.291  15.726  0.00  0.00    +0.000 A 
ATOM      2  C   UNL     1       6.053   4.190  15.721  0.00  0.00    +0.000 A 
ATOM      3  C   UNL     1       5.072   4.048  16.706  0.00  0.00    +0.000 A 
ATOM      4  C   UNL     1       4.941   5.008  17.720  0.00  0.00    +0.000 A 
ATOM      5  C   UNL     1       5.813   6.107  17.718  0.00  0.00    +0.000 A 
ATOM      6  C   UNL     1       6.793   6.271  16.724  0.00  0.00    +0.000 A 
ATOM      7  C   UNL     1       3.875   4.755  18.787  0.00  0.00    +0.000 C 
ATOM      8  N   UNL     1       2.594   4.336  18.190  0.00  0.00    +0.000 NA
ATOM      9  C   UNL     1       2.706   3.414  17.049  0.00  0.00    +0.000 C 
ATOM     10  C   UNL     1       4.111   2.889  16.728  0.00  0.00    +0.000 C 
ATOM     11  H   UNL     1       2.064   5.153  17.893  0.00  0.00    +0.000 HD
ENDROOT
BRANCH   1  13
ATOM     12  C   UNL     1       7.323   4.732  13.447  0.00  0.00    +0.000 C 
ATOM     13  O   UNL     1       7.787   5.306  14.663  0.00  0.00    +0.000 OA
ENDBRANCH   1  13
BRANCH   6  14
ATOM     14  O   UNL     1       7.616   7.363  16.668  0.00  0.00    +0.000 OA
ATOM     15  C   UNL     1       7.743   8.183  17.823  0.00  0.00    +0.000 C 
ENDBRANCH   6  14
BRANCH   7  16
ATOM     16  C   UNL     1       3.634   5.973  19.707  0.00  0.00    +0.000 C 
BRANCH  16  17
ATOM     17  C   UNL     1       2.156   6.305  19.964  0.00  0.00    +0.000 C 
BRANCH  17  18
ATOM     18  C   UNL     1       1.843   7.758  19.615  0.00  0.00    +0.000 A 
ATOM     19  C   UNL     1       2.157   8.258  18.336  0.00  0.00    +0.000 A 
ATOM     20  C   UNL     1       1.880   9.588  17.999  0.00  0.00    +0.000 A 
ATOM     21  C   UNL     1       1.279  10.426  18.933  0.00  0.00    +0.000 A 
ATOM     22 CL   UNL     1       0.933  12.061  18.520  0.00  0.00    +0.000 Cl
ATOM     23  C   UNL     1       0.949   9.948  20.194  0.00  0.00    +0.000 A 
ATOM     24  C   UNL     1       1.227   8.621  20.530  0.00  0.00    +0.000 A 
ENDBRANCH  17  18
BRANCH  17  25
ATOM     25  O   UNL     1       1.844   6.041  21.334  0.00  0.00    +0.000 OA
ATOM     26  H   UNL     1       1.420   5.167  21.374  0.00  0.00    +0.000 HD
ENDBRANCH  17  25
ENDBRANCH  16  17
ENDBRANCH   7  16
TORSDOF 6
ENDMDL
MODEL 5
REMARK VINA RESULT:      -6.8      2.888      6.636
REMARK  Name = 
REMARK  8 active torsions:
REMARK  status: ('A' for Active; 'I' for Inactive)
REMARK    1  A    between atoms: C_1  and  O_2
REMARK    2  A    between atoms: O_2  and  C_3
REMARK    3  A    between atoms: C_8  and  O_9
REMARK    4  A    between atoms: O_9  and  C_10
REMARK    5  A    between atoms: C_11  and  C_12
REMARK    6  A    between atoms: C_12  and  C_13
REMARK    7  A    between atoms: C_13  and  O_14
REMARK    8  A    between atoms: C_13  and  C_15
REMARK                            x       y       z     vdW  Elec       q    Type
REMARK                         _______ _______ _______ _____ _____    ______ ____
ROOT
ATOM      1  C   UNL     1       7.047   4.680  13.525  0.00  0.00    +0.000 A 
ATOM      2  C   UNL     1       7.443   5.378  14.673  0.00  0.00    +0.000 A 
ATOM      3  C   UNL     1       6.796   5.170  15.894  0.00  0.00    +0.000 A 
ATOM      4  C   UNL     1       5.734   4.258  15.988  0.00  0.00    +0.000 A 
ATOM      5  C   UNL     1       5.344   3.565  14.832  0.00  0.00    +0.000 A 
ATOM      6  C   UNL     1       5.997   3.751  13.602  0.00  0.00    +0.000 A 
ATOM      7  C   UNL     1       5.047   4.125  17.347  0.00  0.00    +0.000 C 
ATOM      8  N   UNL     1       6.026   4.019  18.444  0.00  0.00    +0.000 NA
ATOM      9  C   UNL     1       7.208   4.885  18.316  0.00  0.00    +0.000 C 
ATOM     10  C   UNL     1       7.199   5.888  17.154  0.00  0.00    +0.000 C 
ATOM     11  H   UNL     1       6.341   3.056  18.540  0.00  0.00    +0.000 HD
ENDROOT
BRANCH   1  13
ATOM     12  C   UNL     1       8.704   6.068  12.526  0.00  0.00    +0.000 C 
ATOM     13  O   UNL     1       7.817   4.960  12.424  0.00  0.00    +0.000 OA
ENDBRANCH   1  13
BRANCH   6  14
ATOM     14  O   UNL     1       5.672   3.044  12.476  0.00  0.00    +0.000 OA
ATOM     15  C   UNL     1       4.518   3.423  11.739  0.00  0.00    +0.000 C 
ENDBRANCH   6  14
BRANCH   7  16
ATOM     16  C   UNL     1       4.069   2.929  17.420  0.00  0.00    +0.000 C 
BRANCH  16  17
ATOM     17  C   UNL     1       2.582   3.313  17.445  0.00  0.00    +0.000 C 
BRANCH  17  18
ATOM     18  C   UNL     1       2.329   4.498  18.373  0.00  0.00    +0.000 A 
ATOM     19  C   UNL     1       1.925   4.278  19.704  0.00  0.00    +0.000 A 
ATOM     20  C   UNL     1       1.686   5.353  20.568  0.00  0.00    +0.000 A 
ATOM     21  C   UNL     1       1.858   6.656  20.111  0.00  0.00    +0.000 A 
ATOM     22 CL   UNL     1       1.569   7.981  21.173  0.00  0.00    +0.000 Cl
ATOM     23  C   UNL     1       2.269   6.894  18.808  0.00  0.00    +0.000 A 
ATOM     24  C   UNL     1       2.506   5.820  17.946  0.00  0.00    +0.000 A 
ENDBRANCH  17  18
BRANCH  17  25
ATOM     25  O   UNL     1       1.810   2.182  17.854  0.00  0.00    +0.000 OA
ATOM     26  H   UNL     1       2.430   1.500  18.161  0.00  0.00    +0.000 HD
ENDBRANCH  17  25
ENDBRANCH  16  17
ENDBRANCH   7  16
TORSDOF 6
ENDMDL
MODEL 6
REMARK VINA RESULT:      -6.7      2.723      6.519
REMARK  Name = 
REMARK  8 active torsions:
REMARK  status: ('A' for Active; 'I' for Inactive)
REMARK    1  A    between atoms: C_1  and  O_2
REMARK    2  A    between atoms: O_2  and  C_3
REMARK    3  A    between atoms: C_8  and  O_9
REMARK    4  A    between atoms: O_9  and  C_10
REMARK    5  A    between atoms: C_11  and  C_12
REMARK    6  A    between atoms: C_12  and  C_13
REMARK    7  A    between atoms: C_13  and  O_14
REMARK    8  A    between atoms: C_13  and  C_15
REMARK                            x       y       z     vdW  Elec       q    Type
REMARK                         _______ _______ _______ _____ _____    ______ ____
ROOT
ATOM      1  C   UNL     1       6.572   5.064  16.117  0.00  0.00    +0.000 A 
ATOM      2  C   UNL     1       5.684   3.995  16.291  0.00  0.00    +0.000 A 
ATOM      3  C   UNL     1       4.585   4.111  17.147  0.00  0.00    +0.000 A 
ATOM      4  C   UNL     1       4.357   5.302  17.851  0.00  0.00    +0.000 A 
ATOM      5  C   UNL     1       5.252   6.367  17.671  0.00  0.00    +0.000 A 
ATOM      6  C   UNL     1       6.351   6.271  16.800  0.00  0.00    +0.000 A 
ATOM      7  C   UNL     1       3.162   5.331  18.804  0.00  0.00    +0.000 C 
ATOM      8  N   UNL     1       1.953   4.763  18.181  0.00  0.00    +0.000 NA
ATOM      9  C   UNL     1       2.179   3.574  17.344  0.00  0.00    +0.000 C 
ATOM     10  C   UNL     1       3.599   2.991  17.350  0.00  0.00    +0.000 C 
ATOM     11  H   UNL     1       1.485   5.469  17.617  0.00  0.00    +0.000 HD
ENDROOT
BRANCH   1  13
ATOM     12  C   UNL     1       7.187   4.794  13.832  0.00  0.00    +0.000 C 
ATOM     13  O   UNL     1       7.564   4.806  15.204  0.00  0.00    +0.000 OA
ENDBRANCH   1  13
BRANCH   6  14
ATOM     14  O   UNL     1       7.203   7.315  16.565  0.00  0.00    +0.000 OA
ATOM     15  C   UNL     1       7.770   7.998  17.675  0.00  0.00    +0.000 C 
ENDBRANCH   6  14
BRANCH   7  16
ATOM     16  C   UNL     1       2.842   6.747  19.337  0.00  0.00    +0.000 C 
BRANCH  16  17
ATOM     17  C   UNL     1       1.631   6.824  20.280  0.00  0.00    +0.000 C 
BRANCH  17  18
ATOM     18  C   UNL     1       1.235   8.271  20.558  0.00  0.00    +0.000 A 
ATOM     19  C   UNL     1       0.908   8.673  21.868  0.00  0.00    +0.000 A 
ATOM     20  C   UNL     1       0.540   9.995  22.141  0.00  0.00    +0.000 A 
ATOM     21  C   UNL     1       0.504  10.929  21.109  0.00  0.00    +0.000 A 
ATOM     22 CL   UNL     1       0.055  12.557  21.443  0.00  0.00    +0.000 Cl
ATOM     23  C   UNL     1       0.835  10.556  19.815  0.00  0.00    +0.000 A 
ATOM     24  C   UNL     1       1.202   9.235  19.543  0.00  0.00    +0.000 A 
ENDBRANCH  17  18
BRANCH  17  25
ATOM     25  O   UNL     1       1.939   6.144  21.499  0.00  0.00    +0.000 OA
ATOM     26  H   UNL     1       2.144   5.221  21.275  0.00  0.00    +0.000 HD
ENDBRANCH  17  25
ENDBRANCH  16  17
ENDBRANCH   7  16
TORSDOF 6
ENDMDL
MODEL 7
REMARK VINA RESULT:      -6.6      4.609      7.286
REMARK  Name = 
REMARK  8 active torsions:
REMARK  status: ('A' for Active; 'I' for Inactive)
REMARK    1  A    between atoms: C_1  and  O_2
REMARK    2  A    between atoms: O_2  and  C_3
REMARK    3  A    between atoms: C_8  and  O_9
REMARK    4  A    between atoms: O_9  and  C_10
REMARK    5  A    between atoms: C_11  and  C_12
REMARK    6  A    between atoms: C_12  and  C_13
REMARK    7  A    between atoms: C_13  and  O_14
REMARK    8  A    between atoms: C_13  and  C_15
REMARK                            x       y       z     vdW  Elec       q    Type
REMARK                         _______ _______ _______ _____ _____    ______ ____
ROOT
ATOM      1  C   UNL     1      -3.323  11.247  17.785  0.00  0.00    +0.000 A 
ATOM      2  C   UNL     1      -2.857  11.902  18.932  0.00  0.00    +0.000 A 
ATOM      3  C   UNL     1      -1.677  11.491  19.558  0.00  0.00    +0.000 A 
ATOM      4  C   UNL     1      -0.942  10.411  19.049  0.00  0.00    +0.000 A 
ATOM      5  C   UNL     1      -1.418   9.760  17.900  0.00  0.00    +0.000 A 
ATOM      6  C   UNL     1      -2.593  10.174  17.250  0.00  0.00    +0.000 A 
ATOM      7  C   UNL     1       0.311   9.993  19.820  0.00  0.00    +0.000 C 
ATOM      8  N   UNL     1       1.136  11.156  20.191  0.00  0.00    +0.000 NA
ATOM      9  C   UNL     1       0.385  12.345  20.625  0.00  0.00    +0.000 C 
ATOM     10  C   UNL     1      -1.133  12.176  20.784  0.00  0.00    +0.000 C 
ATOM     11  H   UNL     1       1.736  11.422  19.414  0.00  0.00    +0.000 HD
ENDROOT
BRANCH   1  13
ATOM     12  C   UNL     1      -5.703  11.338  17.784  0.00  0.00    +0.000 C 
ATOM     13  O   UNL     1      -4.464  11.806  17.264  0.00  0.00    +0.000 OA
ENDBRANCH   1  13
BRANCH   6  14
ATOM     14  O   UNL     1      -3.045   9.592  16.096  0.00  0.00    +0.000 OA
ATOM     15  C   UNL     1      -2.838  10.269  14.863  0.00  0.00    +0.000 C 
ENDBRANCH   6  14
BRANCH   7  16
ATOM     16  C   UNL     1       1.185   8.973  19.055  0.00  0.00    +0.000 C 
BRANCH  16  17
ATOM     17  C   UNL     1       2.081   8.096  19.943  0.00  0.00    +0.000 C 
BRANCH  17  18
ATOM     18  C   UNL     1       1.966   6.622  19.565  0.00  0.00    +0.000 A 
ATOM     19  C   UNL     1       1.569   5.676  20.530  0.00  0.00    +0.000 A 
ATOM     20  C   UNL     1       1.461   4.319  20.201  0.00  0.00    +0.000 A 
ATOM     21  C   UNL     1       1.740   3.899  18.904  0.00  0.00    +0.000 A 
ATOM     22 CL   UNL     1       1.604   2.232  18.496  0.00  0.00    +0.000 Cl
ATOM     23  C   UNL     1       2.120   4.818  17.936  0.00  0.00    +0.000 A 
ATOM     24  C   UNL     1       2.228   6.171  18.265  0.00  0.00    +0.000 A 
ENDBRANCH  17  18
BRANCH  17  25
ATOM     25  O   UNL     1       1.724   8.292  21.313  0.00  0.00    +0.000 OA
ATOM     26  H   UNL     1       2.193   7.621  21.836  0.00  0.00    +0.000 HD
ENDBRANCH  17  25
ENDBRANCH  16  17
ENDBRANCH   7  16
TORSDOF 6
ENDMDL
MODEL 8
REMARK VINA RESULT:      -6.6      2.469      6.200
REMARK  Name = 
REMARK  8 active torsions:
REMARK  status: ('A' for Active; 'I' for Inactive)
REMARK    1  A    between atoms: C_1  and  O_2
REMARK    2  A    between atoms: O_2  and  C_3
REMARK    3  A    between atoms: C_8  and  O_9
REMARK    4  A    between atoms: O_9  and  C_10
REMARK    5  A    between atoms: C_11  and  C_12
REMARK    6  A    between atoms: C_12  and  C_13
REMARK    7  A    between atoms: C_13  and  O_14
REMARK    8  A    between atoms: C_13  and  C_15
REMARK                            x       y       z     vdW  Elec       q    Type
REMARK                         _______ _______ _______ _____ _____    ______ ____
ROOT
ATOM      1  C   UNL     1       6.338   4.817  15.857  0.00  0.00    +0.000 A 
ATOM      2  C   UNL     1       5.319   3.864  15.978  0.00  0.00    +0.000 A 
ATOM      3  C   UNL     1       4.343   3.984  16.971  0.00  0.00    +0.000 A 
ATOM      4  C   UNL     1       4.372   5.062  17.868  0.00  0.00    +0.000 A 
ATOM      5  C   UNL     1       5.398   6.011  17.740  0.00  0.00    +0.000 A 
ATOM      6  C   UNL     1       6.376   5.912  16.735  0.00  0.00    +0.000 A 
ATOM      7  C   UNL     1       3.299   5.094  18.956  0.00  0.00    +0.000 C 
ATOM      8  N   UNL     1       1.960   4.806  18.410  0.00  0.00    +0.000 NA
ATOM      9  C   UNL     1       1.915   3.754  17.383  0.00  0.00    +0.000 C 
ATOM     10  C   UNL     1       3.222   2.991  17.126  0.00  0.00    +0.000 C 
ATOM     11  H   UNL     1       1.552   5.653  18.020  0.00  0.00    +0.000 HD
ENDROOT
BRANCH   1  13
ATOM     12  C   UNL     1       6.601   4.027  13.626  0.00  0.00    +0.000 C 
ATOM     13  O   UNL     1       7.182   4.582  14.800  0.00  0.00    +0.000 OA
ENDBRANCH   1  13
BRANCH   6  14
ATOM     14  O   UNL     1       7.350   6.856  16.555  0.00  0.00    +0.000 OA
ATOM     15  C   UNL     1       7.452   7.921  17.491  0.00  0.00    +0.000 C 
ENDBRANCH   6  14
BRANCH   7  16
ATOM     16  C   UNL     1       3.255   6.432  19.730  0.00  0.00    +0.000 C 
BRANCH  16  17
ATOM     17  C   UNL     1       1.845   6.929  20.082  0.00  0.00    +0.000 C 
BRANCH  17  18
ATOM     18  C   UNL     1       1.634   8.371  19.628  0.00  0.00    +0.000 A 
ATOM     19  C   UNL     1       1.026   9.300  20.494  0.00  0.00    +0.000 A 
ATOM     20  C   UNL     1       0.823  10.626  20.094  0.00  0.00    +0.000 A 
ATOM     21  C   UNL     1       1.233  11.035  18.828  0.00  0.00    +0.000 A 
ATOM     22 CL   UNL     1       0.987  12.666  18.334  0.00  0.00    +0.000 Cl
ATOM     23  C   UNL     1       1.845  10.138  17.965  0.00  0.00    +0.000 A 
ATOM     24  C   UNL     1       2.047   8.815  18.366  0.00  0.00    +0.000 A 
ENDBRANCH  17  18
BRANCH  17  25
ATOM     25  O   UNL     1       1.642   6.812  21.491  0.00  0.00    +0.000 OA
ATOM     26  H   UNL     1       1.273   7.655  21.805  0.00  0.00    +0.000 HD
ENDBRANCH  17  25
ENDBRANCH  16  17
ENDBRANCH   7  16
TORSDOF 6
ENDMDL
MODEL 9
REMARK VINA RESULT:      -6.6      2.799      6.521
REMARK  Name = 
REMARK  8 active torsions:
REMARK  status: ('A' for Active; 'I' for Inactive)
REMARK    1  A    between atoms: C_1  and  O_2
REMARK    2  A    between atoms: O_2  and  C_3
REMARK    3  A    between atoms: C_8  and  O_9
REMARK    4  A    between atoms: O_9  and  C_10
REMARK    5  A    between atoms: C_11  and  C_12
REMARK    6  A    between atoms: C_12  and  C_13
REMARK    7  A    between atoms: C_13  and  O_14
REMARK    8  A    between atoms: C_13  and  C_15
REMARK                            x       y       z     vdW  Elec       q    Type
REMARK                         _______ _______ _______ _____ _____    ______ ____
ROOT
ATOM      1  C   UNL     1       6.516   5.424  16.158  0.00  0.00    +0.000 A 
ATOM      2  C   UNL     1       5.709   4.287  16.305  0.00  0.00    +0.000 A 
ATOM      3  C   UNL     1       4.602   4.304  17.157  0.00  0.00    +0.000 A 
ATOM      4  C   UNL     1       4.282   5.460  17.884  0.00  0.00    +0.000 A 
ATOM      5  C   UNL     1       5.096   6.593  17.731  0.00  0.00    +0.000 A 
ATOM      6  C   UNL     1       6.203   6.596  16.864  0.00  0.00    +0.000 A 
ATOM      7  C   UNL     1       3.084   5.380  18.831  0.00  0.00    +0.000 C 
ATOM      8  N   UNL     1       1.924   4.736  18.190  0.00  0.00    +0.000 NA
ATOM      9  C   UNL     1       2.242   3.585  17.330  0.00  0.00    +0.000 C 
ATOM     10  C   UNL     1       3.701   3.110  17.333  0.00  0.00    +0.000 C 
ATOM     11  H   UNL     1       1.407   5.417  17.637  0.00  0.00    +0.000 HD
ENDROOT
BRANCH   1  13
ATOM     12  C   UNL     1       7.162   4.767  13.962  0.00  0.00    +0.000 C 
ATOM     13  O   UNL     1       7.528   5.258  15.246  0.00  0.00    +0.000 OA
ENDBRANCH   1  13
BRANCH   6  14
ATOM     14  O   UNL     1       6.975   7.706  16.655  0.00  0.00    +0.000 OA
ATOM     15  C   UNL     1       7.808   8.168  17.710  0.00  0.00    +0.000 C 
ENDBRANCH   6  14
BRANCH   7  16
ATOM     16  C   UNL     1       2.657   6.757  19.390  0.00  0.00    +0.000 C 
BRANCH  16  17
ATOM     17  C   UNL     1       1.521   6.710  20.423  0.00  0.00    +0.000 C 
BRANCH  17  18
ATOM     18  C   UNL     1       1.055   8.114  20.800  0.00  0.00    +0.000 A 
ATOM     19  C   UNL     1       1.293   9.194  19.928  0.00  0.00    +0.000 A 
ATOM     20  C   UNL     1       0.874  10.488  20.260  0.00  0.00    +0.000 A 
ATOM     21  C   UNL     1       0.207  10.711  21.460  0.00  0.00    +0.000 A 
ATOM     22 CL   UNL     1      -0.313  12.301  21.868  0.00  0.00    +0.000 Cl
ATOM     23  C   UNL     1      -0.049   9.658  22.326  0.00  0.00    +0.000 A 
ATOM     24  C   UNL     1       0.369   8.367  21.995  0.00  0.00    +0.000 A 
ENDBRANCH  17  18
BRANCH  17  25
ATOM     25  O   UNL     1       1.966   6.001  21.581  0.00  0.00    +0.000 OA
ATOM     26  H   UNL     1       1.213   5.940  22.193  0.00  0.00    +0.000 HD
ENDBRANCH  17  25
ENDBRANCH  16  17
ENDBRANCH   7  16
TORSDOF 6
ENDMDL
