MODEL 1
REMARK VINA RESULT:      -8.1      0.000      0.000
REMARK  Name = 
REMARK  14 active torsions:
REMARK  status: ('A' for Active; 'I' for Inactive)
REMARK    1  A    between atoms: C_1  and  O_2
REMARK    2  A    between atoms: O_2  and  C_3
REMARK    3  A    between atoms: C_5  and  C_6
REMARK    4  A    between atoms: C_12  and  C_13
REMARK    5  A    between atoms: C_15  and  O_16
REMARK    6  A    between atoms: O_16  and  C_17
REMARK    7  A    between atoms: C_18  and  O_19
REMARK    8  A    between atoms: O_19  and  C_20
REMARK    9  A    between atoms: C_21  and  O_22
REMARK   10  A    between atoms: O_22  and  C_23
REMARK   11  A    between atoms: C_28  and  O_29
REMARK   12  A    between atoms: O_29  and  C_30
REMARK   13  A    between atoms: C_31  and  O_32
REMARK   14  A    between atoms: O_32  and  C_33
REMARK                            x       y       z     vdW  Elec       q    Type
REMARK                         _______ _______ _______ _____ _____    ______ ____
ROOT
ATOM      1  C   UNL     1       2.195   6.290  19.283  0.00  0.00    +0.000 A 
ATOM      2  N   UNL     1       1.556   5.215  19.856  0.00  0.00    +0.000 NA
ATOM      3  C   UNL     1       2.145   4.168  19.326  0.00  0.00    +0.000 A 
ATOM      4  N   UNL     1       1.911   2.840  19.546  0.00  0.00    +0.000 NA
ATOM      5  C   UNL     1       2.665   2.015  18.888  0.00  0.00    +0.000 A 
ATOM      6  C   UNL     1       3.750   2.374  17.931  0.00  0.00    +0.000 A 
ATOM      7  C   UNL     1       3.937   3.693  17.748  0.00  0.00    +0.000 A 
ATOM      8  N   UNL     1       3.136   4.606  18.443  0.00  0.00    +0.000 N 
ATOM      9  N   UNL     1       3.150   5.957  18.404  0.00  0.00    +0.000 NA
ENDROOT
BRANCH   1  12
ATOM     10  C   UNL     1       1.446   9.968  19.069  0.00  0.00    +0.000 A 
ATOM     11  C   UNL     1       1.909   8.682  18.745  0.00  0.00    +0.000 A 
ATOM     12  C   UNL     1       1.922   7.660  19.693  0.00  0.00    +0.000 A 
ATOM     13  C   UNL     1       1.587   7.975  21.009  0.00  0.00    +0.000 A 
ATOM     14  C   UNL     1       1.217   9.277  21.382  0.00  0.00    +0.000 A 
ATOM     15  C   UNL     1       1.141  10.299  20.408  0.00  0.00    +0.000 A 
BRANCH  10  17
ATOM     16  C   UNL     1       2.380  11.831  17.948  0.00  0.00    +0.000 C 
ATOM     17  O   UNL     1       1.299  10.901  18.072  0.00  0.00    +0.000 OA
ENDBRANCH  10  17
BRANCH  14  18
ATOM     18  O   UNL     1       0.935   9.345  22.725  0.00  0.00    +0.000 OA
ATOM     19  C   UNL     1      -0.413   9.386  23.162  0.00  0.00    +0.000 C 
ENDBRANCH  14  18
BRANCH  15  20
ATOM     20  O   UNL     1       0.762  11.530  20.868  0.00  0.00    +0.000 OA
ATOM     21  C   UNL     1      -0.559  12.009  20.700  0.00  0.00    +0.000 C 
ENDBRANCH  15  20
ENDBRANCH   1  12
BRANCH   7  22
ATOM     22  C   UNL     1       4.960   4.153  16.801  0.00  0.00    +0.000 A 
ATOM     23  C   UNL     1       5.842   5.153  17.206  0.00  0.00    +0.000 A 
ATOM     24  C   UNL     1       6.839   5.608  16.340  0.00  0.00    +0.000 A 
ATOM     25  C   UNL     1       6.935   5.078  15.033  0.00  0.00    +0.000 A 
ATOM     26  C   UNL     1       6.033   4.074  14.617  0.00  0.00    +0.000 A 
ATOM     27  C   UNL     1       5.063   3.609  15.518  0.00  0.00    +0.000 A 
BRANCH  24  28
ATOM     28  O   UNL     1       7.739   6.585  16.700  0.00  0.00    +0.000 OA
ATOM     29  C   UNL     1       7.696   7.000  18.063  0.00  0.00    +0.000 C 
ENDBRANCH  24  28
BRANCH  25  30
ATOM     30  O   UNL     1       7.894   5.665  14.238  0.00  0.00    +0.000 OA
ATOM     31  C   UNL     1       7.982   5.222  12.889  0.00  0.00    +0.000 C 
ENDBRANCH  25  30
BRANCH  26  32
ATOM     32  O   UNL     1       6.122   3.622  13.327  0.00  0.00    +0.000 OA
ATOM     33  C   UNL     1       4.918   3.395  12.605  0.00  0.00    +0.000 C 
ENDBRANCH  26  32
ENDBRANCH   7  22
TORSDOF 8
ENDMDL
MODEL 2
REMARK VINA RESULT:      -8.0      0.907      2.334
REMARK  Name = 
REMARK  14 active torsions:
REMARK  status: ('A' for Active; 'I' for Inactive)
REMARK    1  A    between atoms: C_1  and  O_2
REMARK    2  A    between atoms: O_2  and  C_3
REMARK    3  A    between atoms: C_5  and  C_6
REMARK    4  A    between atoms: C_12  and  C_13
REMARK    5  A    between atoms: C_15  and  O_16
REMARK    6  A    between atoms: O_16  and  C_17
REMARK    7  A    between atoms: C_18  and  O_19
REMARK    8  A    between atoms: O_19  and  C_20
REMARK    9  A    between atoms: C_21  and  O_22
REMARK   10  A    between atoms: O_22  and  C_23
REMARK   11  A    between atoms: C_28  and  O_29
REMARK   12  A    between atoms: O_29  and  C_30
REMARK   13  A    between atoms: C_31  and  O_32
REMARK   14  A    between atoms: O_32  and  C_33
REMARK                            x       y       z     vdW  Elec       q    Type
REMARK                         _______ _______ _______ _____ _____    ______ ____
ROOT
ATOM      1  C   UNL     1       2.108   6.656  19.976  0.00  0.00    +0.000 A 
ATOM      2  N   UNL     1       1.814   5.637  20.852  0.00  0.00    +0.000 NA
ATOM      3  C   UNL     1       2.546   4.630  20.433  0.00  0.00    +0.000 A 
ATOM      4  N   UNL     1       2.651   3.366  20.943  0.00  0.00    +0.000 NA
ATOM      5  C   UNL     1       3.473   2.574  20.328  0.00  0.00    +0.000 A 
ATOM      6  C   UNL     1       4.305   2.908  19.138  0.00  0.00    +0.000 A 
ATOM      7  C   UNL     1       4.162   4.162  18.674  0.00  0.00    +0.000 A 
ATOM      8  N   UNL     1       3.280   5.038  19.315  0.00  0.00    +0.000 N 
ATOM      9  N   UNL     1       2.982   6.322  19.017  0.00  0.00    +0.000 NA
ENDROOT
BRANCH   1  12
ATOM     10  C   UNL     1       0.819   9.757  21.667  0.00  0.00    +0.000 A 
ATOM     11  C   UNL     1       1.125   8.411  21.407  0.00  0.00    +0.000 A 
ATOM     12  C   UNL     1       1.592   8.005  20.158  0.00  0.00    +0.000 A 
ATOM     13  C   UNL     1       1.626   8.945  19.129  0.00  0.00    +0.000 A 
ATOM     14  C   UNL     1       1.230  10.276  19.335  0.00  0.00    +0.000 A 
ATOM     15  C   UNL     1       0.819  10.703  20.617  0.00  0.00    +0.000 A 
BRANCH  10  17
ATOM     16  C   UNL     1      -0.881  10.188  23.255  0.00  0.00    +0.000 C 
ATOM     17  O   UNL     1       0.517  10.142  22.950  0.00  0.00    +0.000 OA
ENDBRANCH  10  17
BRANCH  14  18
ATOM     18  O   UNL     1       1.348  11.010  18.179  0.00  0.00    +0.000 OA
ATOM     19  C   UNL     1       2.453  11.884  18.007  0.00  0.00    +0.000 C 
ENDBRANCH  14  18
BRANCH  15  20
ATOM     20  O   UNL     1       0.463  12.019  20.720  0.00  0.00    +0.000 OA
ATOM     21  C   UNL     1      -0.826  12.470  20.347  0.00  0.00    +0.000 C 
ENDBRANCH  15  20
ENDBRANCH   1  12
BRANCH   7  22
ATOM     22  C   UNL     1       4.913   4.583  17.485  0.00  0.00    +0.000 A 
ATOM     23  C   UNL     1       5.996   5.445  17.650  0.00  0.00    +0.000 A 
ATOM     24  C   UNL     1       6.745   5.857  16.547  0.00  0.00    +0.000 A 
ATOM     25  C   UNL     1       6.385   5.428  15.249  0.00  0.00    +0.000 A 
ATOM     26  C   UNL     1       5.280   4.565  15.078  0.00  0.00    +0.000 A 
ATOM     27  C   UNL     1       4.565   4.137  16.207  0.00  0.00    +0.000 A 
BRANCH  24  28
ATOM     28  O   UNL     1       7.829   6.698  16.663  0.00  0.00    +0.000 OA
ATOM     29  C   UNL     1       7.683   7.777  17.583  0.00  0.00    +0.000 C 
ENDBRANCH  24  28
BRANCH  25  30
ATOM     30  O   UNL     1       7.137   5.969  14.229  0.00  0.00    +0.000 OA
ATOM     31  C   UNL     1       8.094   5.122  13.606  0.00  0.00    +0.000 C 
ENDBRANCH  25  30
BRANCH  26  32
ATOM     32  O   UNL     1       4.928   4.213  13.802  0.00  0.00    +0.000 OA
ATOM     33  C   UNL     1       5.676   3.195  13.150  0.00  0.00    +0.000 C 
ENDBRANCH  26  32
ENDBRANCH   7  22
TORSDOF 8
ENDMDL
MODEL 3
REMARK VINA RESULT:      -7.6      0.928      3.211
REMARK  Name = 
REMARK  14 active torsions:
REMARK  status: ('A' for Active; 'I' for Inactive)
REMARK    1  A    between atoms: C_1  and  O_2
REMARK    2  A    between atoms: O_2  and  C_3
REMARK    3  A    between atoms: C_5  and  C_6
REMARK    4  A    between atoms: C_12  and  C_13
REMARK    5  A    between atoms: C_15  and  O_16
REMARK    6  A    between atoms: O_16  and  C_17
REMARK    7  A    between atoms: C_18  and  O_19
REMARK    8  A    between atoms: O_19  and  C_20
REMARK    9  A    between atoms: C_21  and  O_22
REMARK   10  A    between atoms: O_22  and  C_23
REMARK   11  A    between atoms: C_28  and  O_29
REMARK   12  A    between atoms: O_29  and  C_30
REMARK   13  A    between atoms: C_31  and  O_32
REMARK   14  A    between atoms: O_32  and  C_33
REMARK                            x       y       z     vdW  Elec       q    Type
REMARK                         _______ _______ _______ _____ _____    ______ ____
ROOT
ATOM      1  C   UNL     1       2.079   6.711  19.957  0.00  0.00    +0.000 A 
ATOM      2  N   UNL     1       1.770   5.665  20.796  0.00  0.00    +0.000 NA
ATOM      3  C   UNL     1       2.513   4.673  20.362  0.00  0.00    +0.000 A 
ATOM      4  N   UNL     1       2.611   3.395  20.836  0.00  0.00    +0.000 NA
ATOM      5  C   UNL     1       3.448   2.623  20.215  0.00  0.00    +0.000 A 
ATOM      6  C   UNL     1       4.303   2.994  19.052  0.00  0.00    +0.000 A 
ATOM      7  C   UNL     1       4.166   4.262  18.623  0.00  0.00    +0.000 A 
ATOM      8  N   UNL     1       3.268   5.115  19.272  0.00  0.00    +0.000 N 
ATOM      9  N   UNL     1       2.973   6.407  19.006  0.00  0.00    +0.000 NA
ENDROOT
BRANCH   1  12
ATOM     10  C   UNL     1       0.776   9.768  21.716  0.00  0.00    +0.000 A 
ATOM     11  C   UNL     1       1.089   8.429  21.427  0.00  0.00    +0.000 A 
ATOM     12  C   UNL     1       1.555   8.052  20.169  0.00  0.00    +0.000 A 
ATOM     13  C   UNL     1       1.581   9.014  19.159  0.00  0.00    +0.000 A 
ATOM     14  C   UNL     1       1.178  10.338  19.395  0.00  0.00    +0.000 A 
ATOM     15  C   UNL     1       0.768  10.735  20.687  0.00  0.00    +0.000 A 
BRANCH  10  17
ATOM     16  C   UNL     1      -0.922  10.160  23.316  0.00  0.00    +0.000 C 
ATOM     17  O   UNL     1       0.475  10.124  23.008  0.00  0.00    +0.000 OA
ENDBRANCH  10  17
BRANCH  14  18
ATOM     18  O   UNL     1       1.289  11.097  18.254  0.00  0.00    +0.000 OA
ATOM     19  C   UNL     1       2.443  11.894  18.046  0.00  0.00    +0.000 C 
ENDBRANCH  14  18
BRANCH  15  20
ATOM     20  O   UNL     1       0.404  12.047  20.818  0.00  0.00    +0.000 OA
ATOM     21  C   UNL     1      -0.907  12.486  20.518  0.00  0.00    +0.000 C 
ENDBRANCH  15  20
ENDBRANCH   1  12
BRANCH   7  22
ATOM     22  C   UNL     1       4.941   4.720  17.463  0.00  0.00    +0.000 A 
ATOM     23  C   UNL     1       4.615   4.220  16.204  0.00  0.00    +0.000 A 
ATOM     24  C   UNL     1       5.318   4.641  15.074  0.00  0.00    +0.000 A 
ATOM     25  C   UNL     1       6.390   5.553  15.208  0.00  0.00    +0.000 A 
ATOM     26  C   UNL     1       6.730   6.050  16.486  0.00  0.00    +0.000 A 
ATOM     27  C   UNL     1       5.986   5.638  17.601  0.00  0.00    +0.000 A 
BRANCH  24  28
ATOM     28  O   UNL     1       5.025   4.184  13.809  0.00  0.00    +0.000 OA
ATOM     29  C   UNL     1       5.817   3.095  13.342  0.00  0.00    +0.000 C 
ENDBRANCH  24  28
BRANCH  25  30
ATOM     30  O   UNL     1       7.070   5.826  14.042  0.00  0.00    +0.000 OA
ATOM     31  C   UNL     1       8.303   5.150  13.833  0.00  0.00    +0.000 C 
ENDBRANCH  25  30
BRANCH  26  32
ATOM     32  O   UNL     1       7.808   6.890  16.585  0.00  0.00    +0.000 OA
ATOM     33  C   UNL     1       7.791   7.899  17.587  0.00  0.00    +0.000 C 
ENDBRANCH  26  32
ENDBRANCH   7  22
TORSDOF 8
ENDMDL
MODEL 4
REMARK VINA RESULT:      -7.6      0.672      2.383
REMARK  Name = 
REMARK  14 active torsions:
REMARK  status: ('A' for Active; 'I' for Inactive)
REMARK    1  A    between atoms: C_1  and  O_2
REMARK    2  A    between atoms: O_2  and  C_3
REMARK    3  A    between atoms: C_5  and  C_6
REMARK    4  A    between atoms: C_12  and  C_13
REMARK    5  A    between atoms: C_15  and  O_16
REMARK    6  A    between atoms: O_16  and  C_17
REMARK    7  A    between atoms: C_18  and  O_19
REMARK    8  A    between atoms: O_19  and  C_20
REMARK    9  A    between atoms: C_21  and  O_22
REMARK   10  A    between atoms: O_22  and  C_23
REMARK   11  A    between atoms: C_28  and  O_29
REMARK   12  A    between atoms: O_29  and  C_30
REMARK   13  A    between atoms: C_31  and  O_32
REMARK   14  A    between atoms: O_32  and  C_33
REMARK                            x       y       z     vdW  Elec       q    Type
REMARK                         _______ _______ _______ _____ _____    ______ ____
ROOT
ATOM      1  C   UNL     1       2.236   6.326  19.487  0.00  0.00    +0.000 A 
ATOM      2  N   UNL     1       1.693   5.243  20.139  0.00  0.00    +0.000 NA
ATOM      3  C   UNL     1       2.374   4.217  19.684  0.00  0.00    +0.000 A 
ATOM      4  N   UNL     1       2.258   2.893  20.001  0.00  0.00    +0.000 NA
ATOM      5  C   UNL     1       3.084   2.093  19.401  0.00  0.00    +0.000 A 
ATOM      6  C   UNL     1       4.136   2.475  18.417  0.00  0.00    +0.000 A 
ATOM      7  C   UNL     1       4.206   3.790  18.138  0.00  0.00    +0.000 A 
ATOM      8  N   UNL     1       3.325   4.676  18.767  0.00  0.00    +0.000 N 
ATOM      9  N   UNL     1       3.219   6.016  18.631  0.00  0.00    +0.000 NA
ENDROOT
BRANCH   1  12
ATOM     10  C   UNL     1       0.897   9.813  19.049  0.00  0.00    +0.000 A 
ATOM     11  C   UNL     1       1.479   8.564  18.771  0.00  0.00    +0.000 A 
ATOM     12  C   UNL     1       1.841   7.693  19.797  0.00  0.00    +0.000 A 
ATOM     13  C   UNL     1       1.733   8.140  21.113  0.00  0.00    +0.000 A 
ATOM     14  C   UNL     1       1.248   9.423  21.416  0.00  0.00    +0.000 A 
ATOM     15  C   UNL     1       0.820  10.282  20.379  0.00  0.00    +0.000 A 
BRANCH  10  17
ATOM     16  C   UNL     1      -0.924  10.252  17.605  0.00  0.00    +0.000 C 
ATOM     17  O   UNL     1       0.409  10.572  18.014  0.00  0.00    +0.000 OA
ENDBRANCH  10  17
BRANCH  14  18
ATOM     18  O   UNL     1       1.235   9.637  22.773  0.00  0.00    +0.000 OA
ATOM     19  C   UNL     1       0.042   9.423  23.510  0.00  0.00    +0.000 C 
ENDBRANCH  14  18
BRANCH  15  20
ATOM     20  O   UNL     1       0.354  11.505  20.775  0.00  0.00    +0.000 OA
ATOM     21  C   UNL     1      -1.029  11.753  20.942  0.00  0.00    +0.000 C 
ENDBRANCH  15  20
ENDBRANCH   1  12
BRANCH   7  22
ATOM     22  C   UNL     1       5.187   4.268  17.157  0.00  0.00    +0.000 A 
ATOM     23  C   UNL     1       5.308   3.588  15.947  0.00  0.00    +0.000 A 
ATOM     24  C   UNL     1       6.220   4.020  14.983  0.00  0.00    +0.000 A 
ATOM     25  C   UNL     1       7.051   5.132  15.244  0.00  0.00    +0.000 A 
ATOM     26  C   UNL     1       6.940   5.816  16.476  0.00  0.00    +0.000 A 
ATOM     27  C   UNL     1       5.991   5.383  17.414  0.00  0.00    +0.000 A 
BRANCH  24  28
ATOM     28  O   UNL     1       6.366   3.386  13.769  0.00  0.00    +0.000 OA
ATOM     29  C   UNL     1       5.248   3.465  12.887  0.00  0.00    +0.000 C 
ENDBRANCH  24  28
BRANCH  25  30
ATOM     30  O   UNL     1       7.974   5.412  14.261  0.00  0.00    +0.000 OA
ATOM     31  C   UNL     1       7.473   5.840  13.001  0.00  0.00    +0.000 C 
ENDBRANCH  25  30
BRANCH  26  32
ATOM     32  O   UNL     1       7.798   6.855  16.716  0.00  0.00    +0.000 OA
ATOM     33  C   UNL     1       7.701   7.540  17.959  0.00  0.00    +0.000 C 
ENDBRANCH  26  32
ENDBRANCH   7  22
TORSDOF 8
ENDMDL
MODEL 5
REMARK VINA RESULT:      -7.5      4.129      9.761
REMARK  Name = 
REMARK  14 active torsions:
REMARK  status: ('A' for Active; 'I' for Inactive)
REMARK    1  A    between atoms: C_1  and  O_2
REMARK    2  A    between atoms: O_2  and  C_3
REMARK    3  A    between atoms: C_5  and  C_6
REMARK    4  A    between atoms: C_12  and  C_13
REMARK    5  A    between atoms: C_15  and  O_16
REMARK    6  A    between atoms: O_16  and  C_17
REMARK    7  A    between atoms: C_18  and  O_19
REMARK    8  A    between atoms: O_19  and  C_20
REMARK    9  A    between atoms: C_21  and  O_22
REMARK   10  A    between atoms: O_22  and  C_23
REMARK   11  A    between atoms: C_28  and  O_29
REMARK   12  A    between atoms: O_29  and  C_30
REMARK   13  A    between atoms: C_31  and  O_32
REMARK   14  A    between atoms: O_32  and  C_33
REMARK                            x       y       z     vdW  Elec       q    Type
REMARK                         _______ _______ _______ _____ _____    ______ ____
ROOT
ATOM      1  C   UNL     1       1.751   9.901  18.411  0.00  0.00    +0.000 A 
ATOM      2  N   UNL     1       2.637  10.945  18.539  0.00  0.00    +0.000 NA
ATOM      3  C   UNL     1       1.875  12.013  18.583  0.00  0.00    +0.000 A 
ATOM      4  N   UNL     1       2.233  13.326  18.712  0.00  0.00    +0.000 NA
ATOM      5  C   UNL     1       1.256  14.179  18.742  0.00  0.00    +0.000 A 
ATOM      6  C   UNL     1      -0.199  13.867  18.653  0.00  0.00    +0.000 A 
ATOM      7  C   UNL     1      -0.496  12.561  18.523  0.00  0.00    +0.000 A 
ATOM      8  N   UNL     1       0.537  11.620  18.485  0.00  0.00    +0.000 N 
ATOM      9  N   UNL     1       0.465  10.276  18.356  0.00  0.00    +0.000 NA
ENDROOT
BRANCH   1  12
ATOM     10  C   UNL     1       3.626   6.751  17.574  0.00  0.00    +0.000 A 
ATOM     11  C   UNL     1       3.027   8.017  17.456  0.00  0.00    +0.000 A 
ATOM     12  C   UNL     1       2.182   8.512  18.447  0.00  0.00    +0.000 A 
ATOM     13  C   UNL     1       1.838   7.668  19.503  0.00  0.00    +0.000 A 
ATOM     14  C   UNL     1       2.343   6.361  19.594  0.00  0.00    +0.000 A 
ATOM     15  C   UNL     1       3.251   5.882  18.623  0.00  0.00    +0.000 A 
BRANCH  10  17
ATOM     16  C   UNL     1       5.884   6.899  16.884  0.00  0.00    +0.000 C 
ATOM     17  O   UNL     1       4.574   6.368  16.659  0.00  0.00    +0.000 OA
ENDBRANCH  10  17
BRANCH  14  18
ATOM     18  O   UNL     1       1.863   5.724  20.713  0.00  0.00    +0.000 OA
ATOM     19  C   UNL     1       1.155   4.502  20.582  0.00  0.00    +0.000 C 
ENDBRANCH  14  18
BRANCH  15  20
ATOM     20  O   UNL     1       3.694   4.601  18.805  0.00  0.00    +0.000 OA
ATOM     21  C   UNL     1       4.969   4.329  19.355  0.00  0.00    +0.000 C 
ENDBRANCH  15  20
ENDBRANCH   1  12
BRANCH   7  22
ATOM     22  C   UNL     1      -1.899  12.149  18.396  0.00  0.00    +0.000 A 
ATOM     23  C   UNL     1      -2.756  12.354  19.475  0.00  0.00    +0.000 A 
ATOM     24  C   UNL     1      -4.100  11.989  19.389  0.00  0.00    +0.000 A 
ATOM     25  C   UNL     1      -4.592  11.376  18.214  0.00  0.00    +0.000 A 
ATOM     26  C   UNL     1      -3.722  11.155  17.123  0.00  0.00    +0.000 A 
ATOM     27  C   UNL     1      -2.383  11.563  17.222  0.00  0.00    +0.000 A 
BRANCH  24  28
ATOM     28  O   UNL     1      -4.985  12.182  20.425  0.00  0.00    +0.000 OA
ATOM     29  C   UNL     1      -5.201  13.536  20.815  0.00  0.00    +0.000 C 
ENDBRANCH  24  28
BRANCH  25  30
ATOM     30  O   UNL     1      -5.908  10.976  18.275  0.00  0.00    +0.000 OA
ATOM     31  C   UNL     1      -6.889  11.890  17.802  0.00  0.00    +0.000 C 
ENDBRANCH  25  30
BRANCH  26  32
ATOM     32  O   UNL     1      -4.219  10.511  16.022  0.00  0.00    +0.000 OA
ATOM     33  C   UNL     1      -3.375  10.357  14.888  0.00  0.00    +0.000 C 
ENDBRANCH  26  32
ENDBRANCH   7  22
TORSDOF 8
ENDMDL
MODEL 6
REMARK VINA RESULT:      -7.4      0.875      8.025
REMARK  Name = 
REMARK  14 active torsions:
REMARK  status: ('A' for Active; 'I' for Inactive)
REMARK    1  A    between atoms: C_1  and  O_2
REMARK    2  A    between atoms: O_2  and  C_3
REMARK    3  A    between atoms: C_5  and  C_6
REMARK    4  A    between atoms: C_12  and  C_13
REMARK    5  A    between atoms: C_15  and  O_16
REMARK    6  A    between atoms: O_16  and  C_17
REMARK    7  A    between atoms: C_18  and  O_19
REMARK    8  A    between atoms: O_19  and  C_20
REMARK    9  A    between atoms: C_21  and  O_22
REMARK   10  A    between atoms: O_22  and  C_23
REMARK   11  A    between atoms: C_28  and  O_29
REMARK   12  A    between atoms: O_29  and  C_30
REMARK   13  A    between atoms: C_31  and  O_32
REMARK   14  A    between atoms: O_32  and  C_33
REMARK                            x       y       z     vdW  Elec       q    Type
REMARK                         _______ _______ _______ _____ _____    ______ ____
ROOT
ATOM      1  C   UNL     1       4.388   4.548  18.041  0.00  0.00    +0.000 A 
ATOM      2  N   UNL     1       3.952   3.304  18.434  0.00  0.00    +0.000 NA
ATOM      3  C   UNL     1       2.936   3.553  19.228  0.00  0.00    +0.000 A 
ATOM      4  N   UNL     1       2.124   2.679  19.894  0.00  0.00    +0.000 NA
ATOM      5  C   UNL     1       1.178   3.212  20.603  0.00  0.00    +0.000 A 
ATOM      6  C   UNL     1       0.894   4.667  20.755  0.00  0.00    +0.000 A 
ATOM      7  C   UNL     1       1.724   5.485  20.082  0.00  0.00    +0.000 A 
ATOM      8  N   UNL     1       2.756   4.937  19.312  0.00  0.00    +0.000 N 
ATOM      9  N   UNL     1       3.695   5.566  18.571  0.00  0.00    +0.000 NA
ENDROOT
BRANCH   1  12
ATOM     10  C   UNL     1       6.359   4.154  14.864  0.00  0.00    +0.000 A 
ATOM     11  C   UNL     1       5.494   3.883  15.937  0.00  0.00    +0.000 A 
ATOM     12  C   UNL     1       5.439   4.722  17.049  0.00  0.00    +0.000 A 
ATOM     13  C   UNL     1       6.357   5.768  17.133  0.00  0.00    +0.000 A 
ATOM     14  C   UNL     1       7.301   6.001  16.120  0.00  0.00    +0.000 A 
ATOM     15  C   UNL     1       7.314   5.191  14.963  0.00  0.00    +0.000 A 
BRANCH  10  17
ATOM     16  C   UNL     1       5.082   3.604  12.950  0.00  0.00    +0.000 C 
ATOM     17  O   UNL     1       6.270   3.398  13.721  0.00  0.00    +0.000 OA
ENDBRANCH  10  17
BRANCH  14  18
ATOM     18  O   UNL     1       8.095   7.080  16.426  0.00  0.00    +0.000 OA
ATOM     19  C   UNL     1       7.759   7.917  17.521  0.00  0.00    +0.000 C 
ENDBRANCH  14  18
BRANCH  15  20
ATOM     20  O   UNL     1       8.263   5.503  14.030  0.00  0.00    +0.000 OA
ATOM     21  C   UNL     1       7.950   5.579  12.651  0.00  0.00    +0.000 C 
ENDBRANCH  15  20
ENDBRANCH   1  12
BRANCH   7  22
ATOM     22  C   UNL     1       1.551   6.938  20.190  0.00  0.00    +0.000 A 
ATOM     23  C   UNL     1       1.368   7.497  21.453  0.00  0.00    +0.000 A 
ATOM     24  C   UNL     1       1.214   8.876  21.599  0.00  0.00    +0.000 A 
ATOM     25  C   UNL     1       1.207   9.711  20.458  0.00  0.00    +0.000 A 
ATOM     26  C   UNL     1       1.379   9.145  19.175  0.00  0.00    +0.000 A 
ATOM     27  C   UNL     1       1.567   7.760  19.059  0.00  0.00    +0.000 A 
BRANCH  24  28
ATOM     28  O   UNL     1       1.042   9.474  22.827  0.00  0.00    +0.000 OA
ATOM     29  C   UNL     1      -0.278   9.427  23.363  0.00  0.00    +0.000 C 
ENDBRANCH  24  28
BRANCH  25  30
ATOM     30  O   UNL     1       0.956  11.041  20.714  0.00  0.00    +0.000 OA
ATOM     31  C   UNL     1      -0.339  11.532  20.392  0.00  0.00    +0.000 C 
ENDBRANCH  25  30
BRANCH  26  32
ATOM     32  O   UNL     1       1.313   9.977  18.090  0.00  0.00    +0.000 OA
ATOM     33  C   UNL     1       2.410  10.846  17.835  0.00  0.00    +0.000 C 
ENDBRANCH  26  32
ENDBRANCH   7  22
TORSDOF 8
ENDMDL
MODEL 7
REMARK VINA RESULT:      -7.4      4.124      9.945
REMARK  Name = 
REMARK  14 active torsions:
REMARK  status: ('A' for Active; 'I' for Inactive)
REMARK    1  A    between atoms: C_1  and  O_2
REMARK    2  A    between atoms: O_2  and  C_3
REMARK    3  A    between atoms: C_5  and  C_6
REMARK    4  A    between atoms: C_12  and  C_13
REMARK    5  A    between atoms: C_15  and  O_16
REMARK    6  A    between atoms: O_16  and  C_17
REMARK    7  A    between atoms: C_18  and  O_19
REMARK    8  A    between atoms: O_19  and  C_20
REMARK    9  A    between atoms: C_21  and  O_22
REMARK   10  A    between atoms: O_22  and  C_23
REMARK   11  A    between atoms: C_28  and  O_29
REMARK   12  A    between atoms: O_29  and  C_30
REMARK   13  A    between atoms: C_31  and  O_32
REMARK   14  A    between atoms: O_32  and  C_33
REMARK                            x       y       z     vdW  Elec       q    Type
REMARK                         _______ _______ _______ _____ _____    ______ ____
ROOT
ATOM      1  C   UNL     1       1.715   9.921  18.404  0.00  0.00    +0.000 A 
ATOM      2  N   UNL     1       2.606  10.964  18.504  0.00  0.00    +0.000 NA
ATOM      3  C   UNL     1       1.847  12.034  18.559  0.00  0.00    +0.000 A 
ATOM      4  N   UNL     1       2.210  13.347  18.672  0.00  0.00    +0.000 NA
ATOM      5  C   UNL     1       1.236  14.202  18.720  0.00  0.00    +0.000 A 
ATOM      6  C   UNL     1      -0.221  13.892  18.670  0.00  0.00    +0.000 A 
ATOM      7  C   UNL     1      -0.524  12.586  18.556  0.00  0.00    +0.000 A 
ATOM      8  N   UNL     1       0.507  11.642  18.498  0.00  0.00    +0.000 N 
ATOM      9  N   UNL     1       0.429  10.298  18.379  0.00  0.00    +0.000 NA
ENDROOT
BRANCH   1  12
ATOM     10  C   UNL     1       3.587   6.771  17.564  0.00  0.00    +0.000 A 
ATOM     11  C   UNL     1       2.990   8.037  17.447  0.00  0.00    +0.000 A 
ATOM     12  C   UNL     1       2.144   8.531  18.438  0.00  0.00    +0.000 A 
ATOM     13  C   UNL     1       1.798   7.686  19.492  0.00  0.00    +0.000 A 
ATOM     14  C   UNL     1       2.302   6.378  19.581  0.00  0.00    +0.000 A 
ATOM     15  C   UNL     1       3.210   5.900  18.611  0.00  0.00    +0.000 A 
BRANCH  10  17
ATOM     16  C   UNL     1       5.864   6.846  16.924  0.00  0.00    +0.000 C 
ATOM     17  O   UNL     1       4.536   6.387  16.649  0.00  0.00    +0.000 OA
ENDBRANCH  10  17
BRANCH  14  18
ATOM     18  O   UNL     1       1.820   5.740  20.699  0.00  0.00    +0.000 OA
ATOM     19  C   UNL     1       1.129   4.508  20.566  0.00  0.00    +0.000 C 
ENDBRANCH  14  18
BRANCH  15  20
ATOM     20  O   UNL     1       3.652   4.618  18.790  0.00  0.00    +0.000 OA
ATOM     21  C   UNL     1       4.892   4.342  19.414  0.00  0.00    +0.000 C 
ENDBRANCH  15  20
ENDBRANCH   1  12
BRANCH   7  22
ATOM     22  C   UNL     1      -1.931  12.175  18.467  0.00  0.00    +0.000 A 
ATOM     23  C   UNL     1      -2.376  11.572  17.293  0.00  0.00    +0.000 A 
ATOM     24  C   UNL     1      -3.703  11.154  17.173  0.00  0.00    +0.000 A 
ATOM     25  C   UNL     1      -4.611  11.375  18.234  0.00  0.00    +0.000 A 
ATOM     26  C   UNL     1      -4.164  12.000  19.419  0.00  0.00    +0.000 A 
ATOM     27  C   UNL     1      -2.818  12.378  19.528  0.00  0.00    +0.000 A 
BRANCH  24  28
ATOM     28  O   UNL     1      -4.185  10.543  16.038  0.00  0.00    +0.000 OA
ATOM     29  C   UNL     1      -3.244  10.358  14.983  0.00  0.00    +0.000 C 
ENDBRANCH  24  28
BRANCH  25  30
ATOM     30  O   UNL     1      -5.912  11.007  17.970  0.00  0.00    +0.000 OA
ATOM     31  C   UNL     1      -6.499  10.034  18.826  0.00  0.00    +0.000 C 
ENDBRANCH  25  30
BRANCH  26  32
ATOM     32  O   UNL     1      -5.084  12.246  20.404  0.00  0.00    +0.000 OA
ATOM     33  C   UNL     1      -5.627  13.555  20.512  0.00  0.00    +0.000 C 
ENDBRANCH  26  32
ENDBRANCH   7  22
TORSDOF 8
ENDMDL
MODEL 8
REMARK VINA RESULT:      -7.4      3.716      9.102
REMARK  Name = 
REMARK  14 active torsions:
REMARK  status: ('A' for Active; 'I' for Inactive)
REMARK    1  A    between atoms: C_1  and  O_2
REMARK    2  A    between atoms: O_2  and  C_3
REMARK    3  A    between atoms: C_5  and  C_6
REMARK    4  A    between atoms: C_12  and  C_13
REMARK    5  A    between atoms: C_15  and  O_16
REMARK    6  A    between atoms: O_16  and  C_17
REMARK    7  A    between atoms: C_18  and  O_19
REMARK    8  A    between atoms: O_19  and  C_20
REMARK    9  A    between atoms: C_21  and  O_22
REMARK   10  A    between atoms: O_22  and  C_23
REMARK   11  A    between atoms: C_28  and  O_29
REMARK   12  A    between atoms: O_29  and  C_30
REMARK   13  A    between atoms: C_31  and  O_32
REMARK   14  A    between atoms: O_32  and  C_33
REMARK                            x       y       z     vdW  Elec       q    Type
REMARK                         _______ _______ _______ _____ _____    ______ ____
ROOT
ATOM      1  C   UNL     1       1.406   9.186  18.728  0.00  0.00    +0.000 A 
ATOM      2  N   UNL     1       0.097   9.158  18.308  0.00  0.00    +0.000 NA
ATOM      3  C   UNL     1      -0.264  10.420  18.286  0.00  0.00    +0.000 A 
ATOM      4  N   UNL     1      -1.464  10.972  17.935  0.00  0.00    +0.000 NA
ATOM      5  C   UNL     1      -1.532  12.265  17.994  0.00  0.00    +0.000 A 
ATOM      6  C   UNL     1      -0.440  13.195  18.399  0.00  0.00    +0.000 A 
ATOM      7  C   UNL     1       0.719  12.602  18.738  0.00  0.00    +0.000 A 
ATOM      8  N   UNL     1       0.820  11.208  18.686  0.00  0.00    +0.000 N 
ATOM      9  N   UNL     1       1.874  10.416  18.986  0.00  0.00    +0.000 NA
ENDROOT
BRANCH   1  12
ATOM     10  C   UNL     1       2.701   5.817  19.781  0.00  0.00    +0.000 A 
ATOM     11  C   UNL     1       2.077   7.076  19.817  0.00  0.00    +0.000 A 
ATOM     12  C   UNL     1       2.230   7.987  18.774  0.00  0.00    +0.000 A 
ATOM     13  C   UNL     1       3.122   7.675  17.749  0.00  0.00    +0.000 A 
ATOM     14  C   UNL     1       3.836   6.466  17.739  0.00  0.00    +0.000 A 
ATOM     15  C   UNL     1       3.632   5.513  18.763  0.00  0.00    +0.000 A 
BRANCH  10  17
ATOM     16  C   UNL     1       1.194   4.150  20.521  0.00  0.00    +0.000 C 
ATOM     17  O   UNL     1       2.399   4.889  20.747  0.00  0.00    +0.000 OA
ENDBRANCH  10  17
BRANCH  14  18
ATOM     18  O   UNL     1       4.651   6.384  16.636  0.00  0.00    +0.000 OA
ATOM     19  C   UNL     1       6.041   6.635  16.765  0.00  0.00    +0.000 C 
ENDBRANCH  14  18
BRANCH  15  20
ATOM     20  O   UNL     1       4.365   4.364  18.659  0.00  0.00    +0.000 OA
ATOM     21  C   UNL     1       3.882   3.238  17.951  0.00  0.00    +0.000 C 
ENDBRANCH  15  20
ENDBRANCH   1  12
BRANCH   7  22
ATOM     22  C   UNL     1       1.850  13.426  19.182  0.00  0.00    +0.000 A 
ATOM     23  C   UNL     1       1.926  13.786  20.525  0.00  0.00    +0.000 A 
ATOM     24  C   UNL     1       2.993  14.557  20.990  0.00  0.00    +0.000 A 
ATOM     25  C   UNL     1       3.985  15.007  20.089  0.00  0.00    +0.000 A 
ATOM     26  C   UNL     1       3.902  14.654  18.724  0.00  0.00    +0.000 A 
ATOM     27  C   UNL     1       2.839  13.849  18.289  0.00  0.00    +0.000 A 
BRANCH  24  28
ATOM     28  O   UNL     1       3.116  14.926  22.311  0.00  0.00    +0.000 OA
ATOM     29  C   UNL     1       2.240  15.961  22.752  0.00  0.00    +0.000 C 
ENDBRANCH  24  28
BRANCH  25  30
ATOM     30  O   UNL     1       4.937  15.835  20.640  0.00  0.00    +0.000 OA
ATOM     31  C   UNL     1       4.812  17.229  20.389  0.00  0.00    +0.000 C 
ENDBRANCH  25  30
BRANCH  26  32
ATOM     32  O   UNL     1       4.851  15.151  17.871  0.00  0.00    +0.000 OA
ATOM     33  C   UNL     1       6.100  14.478  17.780  0.00  0.00    +0.000 C 
ENDBRANCH  26  32
ENDBRANCH   7  22
TORSDOF 8
ENDMDL
MODEL 9
REMARK VINA RESULT:      -7.4      1.207      2.553
REMARK  Name = 
REMARK  14 active torsions:
REMARK  status: ('A' for Active; 'I' for Inactive)
REMARK    1  A    between atoms: C_1  and  O_2
REMARK    2  A    between atoms: O_2  and  C_3
REMARK    3  A    between atoms: C_5  and  C_6
REMARK    4  A    between atoms: C_12  and  C_13
REMARK    5  A    between atoms: C_15  and  O_16
REMARK    6  A    between atoms: O_16  and  C_17
REMARK    7  A    between atoms: C_18  and  O_19
REMARK    8  A    between atoms: O_19  and  C_20
REMARK    9  A    between atoms: C_21  and  O_22
REMARK   10  A    between atoms: O_22  and  C_23
REMARK   11  A    between atoms: C_28  and  O_29
REMARK   12  A    between atoms: O_29  and  C_30
REMARK   13  A    between atoms: C_31  and  O_32
REMARK   14  A    between atoms: O_32  and  C_33
REMARK                            x       y       z     vdW  Elec       q    Type
REMARK                         _______ _______ _______ _____ _____    ______ ____
ROOT
ATOM      1  C   UNL     1       1.842   6.879  20.161  0.00  0.00    +0.000 A 
ATOM      2  N   UNL     1       1.133   5.941  20.874  0.00  0.00    +0.000 NA
ATOM      3  C   UNL     1       1.734   4.805  20.603  0.00  0.00    +0.000 A 
ATOM      4  N   UNL     1       1.449   3.547  21.052  0.00  0.00    +0.000 NA
ATOM      5  C   UNL     1       2.229   2.602  20.627  0.00  0.00    +0.000 A 
ATOM      6  C   UNL     1       3.394   2.759  19.710  0.00  0.00    +0.000 A 
ATOM      7  C   UNL     1       3.630   4.016  19.295  0.00  0.00    +0.000 A 
ATOM      8  N   UNL     1       2.802   5.054  19.735  0.00  0.00    +0.000 N 
ATOM      9  N   UNL     1       2.854   6.372  19.441  0.00  0.00    +0.000 NA
ENDROOT
BRANCH   1  12
ATOM     10  C   UNL     1       1.295  10.471  19.195  0.00  0.00    +0.000 A 
ATOM     11  C   UNL     1       1.742   9.139  19.174  0.00  0.00    +0.000 A 
ATOM     12  C   UNL     1       1.575   8.304  20.278  0.00  0.00    +0.000 A 
ATOM     13  C   UNL     1       1.070   8.858  21.454  0.00  0.00    +0.000 A 
ATOM     14  C   UNL     1       0.708  10.212  21.533  0.00  0.00    +0.000 A 
ATOM     15  C   UNL     1       0.817  11.043  20.395  0.00  0.00    +0.000 A 
BRANCH  10  17
ATOM     16  C   UNL     1       2.523  11.983  17.852  0.00  0.00    +0.000 C 
ATOM     17  O   UNL     1       1.332  11.210  18.039  0.00  0.00    +0.000 OA
ENDBRANCH  10  17
BRANCH  14  18
ATOM     18  O   UNL     1       0.241  10.526  22.787  0.00  0.00    +0.000 OA
ATOM     19  C   UNL     1      -0.470   9.556  23.538  0.00  0.00    +0.000 C 
ENDBRANCH  14  18
BRANCH  15  20
ATOM     20  O   UNL     1       0.431  12.343  20.569  0.00  0.00    +0.000 OA
ATOM     21  C   UNL     1       1.349  13.341  20.975  0.00  0.00    +0.000 C 
ENDBRANCH  15  20
ENDBRANCH   1  12
BRANCH   7  22
ATOM     22  C   UNL     1       4.735   4.274  18.364  0.00  0.00    +0.000 A 
ATOM     23  C   UNL     1       4.742   3.615  17.137  0.00  0.00    +0.000 A 
ATOM     24  C   UNL     1       5.768   3.844  16.218  0.00  0.00    +0.000 A 
ATOM     25  C   UNL     1       6.826   4.722  16.545  0.00  0.00    +0.000 A 
ATOM     26  C   UNL     1       6.828   5.382  17.794  0.00  0.00    +0.000 A 
ATOM     27  C   UNL     1       5.767   5.161  18.685  0.00  0.00    +0.000 A 
BRANCH  24  28
ATOM     28  O   UNL     1       5.810   3.224  14.990  0.00  0.00    +0.000 OA
ATOM     29  C   UNL     1       5.091   3.869  13.942  0.00  0.00    +0.000 C 
ENDBRANCH  24  28
BRANCH  25  30
ATOM     30  O   UNL     1       7.828   4.800  15.603  0.00  0.00    +0.000 OA
ATOM     31  C   UNL     1       7.638   5.708  14.525  0.00  0.00    +0.000 C 
ENDBRANCH  25  30
BRANCH  26  32
ATOM     32  O   UNL     1       7.895   6.183  18.098  0.00  0.00    +0.000 OA
ATOM     33  C   UNL     1       7.795   7.576  17.829  0.00  0.00    +0.000 C 
ENDBRANCH  26  32
ENDBRANCH   7  22
TORSDOF 8
ENDMDL
