MODEL 1
REMARK VINA RESULT:      -5.5      0.000      0.000
REMARK  Name = 
REMARK  10 active torsions:
REMARK  status: ('A' for Active; 'I' for Inactive)
REMARK    1  A    between atoms: C_1  and  C_2
REMARK    2  A    between atoms: C_2  and  C_3
REMARK    3  A    between atoms: C_3  and  C_4
REMARK    4  A    between atoms: C_4  and  C_5
REMARK    5  A    between atoms: C_5  and  C_6
REMARK    6  A    between atoms: C_6  and  C_7
REMARK    7  A    between atoms: C_7  and  C_8
REMARK    8  A    between atoms: C_7  and  N_11
REMARK    9  A    between atoms: C_8  and  C_9
REMARK   10  A    between atoms: C_8  and  O_10
REMARK                            x       y       z     vdW  Elec       q    Type
REMARK                         _______ _______ _______ _____ _____    ______ ____
ROOT
ATOM      1  C   UNL     1       4.461   5.044  18.800  0.00  0.00    +0.000 C 
ENDROOT
BRANCH   1   2
ATOM      2  N   UNL     1       5.827   5.579  18.738  0.00  0.00    +0.000 N 
ATOM      3  N   UNL     1       6.228   6.400  17.743  0.00  0.00    +0.000 NA
ATOM      4  C   UNL     1       7.508   6.597  18.056  0.00  0.00    +0.000 A 
ATOM      5  C   UNL     1       7.836   5.861  19.199  0.00  0.00    +0.000 A 
ATOM      6  N   UNL     1       6.768   5.179  19.621  0.00  0.00    +0.000 NA
ENDBRANCH   1   2
BRANCH   1   7
ATOM      7  C   UNL     1       4.367   3.687  18.059  0.00  0.00    +0.000 C 
ATOM      8  C   UNL     1       3.146   3.526  17.161  0.00  0.00    +0.000 C 
BRANCH   7   9
ATOM      9  O   UNL     1       5.535   3.416  17.271  0.00  0.00    +0.000 OA
ATOM     10  H   UNL     1       5.399   3.806  16.385  0.00  0.00    +0.000 HD
ENDBRANCH   7   9
ENDBRANCH   1   7
BRANCH   1  11
ATOM     11  C   UNL     1       3.453   6.116  18.321  0.00  0.00    +0.000 C 
BRANCH  11  12
ATOM     12  C   UNL     1       2.346   6.418  19.324  0.00  0.00    +0.000 C 
BRANCH  12  13
ATOM     13  C   UNL     1       2.352   5.427  20.491  0.00  0.00    +0.000 C 
BRANCH  13  14
ATOM     14  C   UNL     1       1.079   4.584  20.459  0.00  0.00    +0.000 C 
BRANCH  14  16
ATOM     15  C   UNL     1       2.428   2.710  21.432  0.00  0.00    +0.000 C 
ATOM     16  C   UNL     1       1.377   3.090  20.401  0.00  0.00    +0.000 C 
ENDBRANCH  14  16
ENDBRANCH  13  14
ENDBRANCH  12  13
ENDBRANCH  11  12
ENDBRANCH   1  11
TORSDOF 8
ENDMDL
MODEL 2
REMARK VINA RESULT:      -5.5      0.240      1.013
REMARK  Name = 
REMARK  10 active torsions:
REMARK  status: ('A' for Active; 'I' for Inactive)
REMARK    1  A    between atoms: C_1  and  C_2
REMARK    2  A    between atoms: C_2  and  C_3
REMARK    3  A    between atoms: C_3  and  C_4
REMARK    4  A    between atoms: C_4  and  C_5
REMARK    5  A    between atoms: C_5  and  C_6
REMARK    6  A    between atoms: C_6  and  C_7
REMARK    7  A    between atoms: C_7  and  C_8
REMARK    8  A    between atoms: C_7  and  N_11
REMARK    9  A    between atoms: C_8  and  C_9
REMARK   10  A    between atoms: C_8  and  O_10
REMARK                            x       y       z     vdW  Elec       q    Type
REMARK                         _______ _______ _______ _____ _____    ______ ____
ROOT
ATOM      1  C   UNL     1       4.483   4.969  18.763  0.00  0.00    +0.000 C 
ENDROOT
BRANCH   1   2
ATOM      2  N   UNL     1       5.865   5.464  18.717  0.00  0.00    +0.000 N 
ATOM      3  N   UNL     1       6.781   5.116  19.648  0.00  0.00    +0.000 NA
ATOM      4  C   UNL     1       7.848   5.806  19.247  0.00  0.00    +0.000 A 
ATOM      5  C   UNL     1       7.525   6.567  18.119  0.00  0.00    +0.000 A 
ATOM      6  N   UNL     1       6.243   6.376  17.794  0.00  0.00    +0.000 NA
ENDBRANCH   1   2
BRANCH   1   7
ATOM      7  C   UNL     1       4.347   3.645  17.970  0.00  0.00    +0.000 C 
ATOM      8  C   UNL     1       3.071   3.516  17.146  0.00  0.00    +0.000 C 
BRANCH   7   9
ATOM      9  O   UNL     1       5.462   3.417  17.097  0.00  0.00    +0.000 OA
ATOM     10  H   UNL     1       5.266   3.841  16.239  0.00  0.00    +0.000 HD
ENDBRANCH   7   9
ENDBRANCH   1   7
BRANCH   1  11
ATOM     11  C   UNL     1       3.507   6.089  18.329  0.00  0.00    +0.000 C 
BRANCH  11  12
ATOM     12  C   UNL     1       2.439   6.415  19.366  0.00  0.00    +0.000 C 
BRANCH  12  13
ATOM     13  C   UNL     1       2.373   5.354  20.467  0.00  0.00    +0.000 C 
BRANCH  13  14
ATOM     14  C   UNL     1       1.010   4.666  20.441  0.00  0.00    +0.000 C 
BRANCH  14  16
ATOM     15  C   UNL     1       1.654   2.583  21.674  0.00  0.00    +0.000 C 
ATOM     16  C   UNL     1       1.129   3.148  20.364  0.00  0.00    +0.000 C 
ENDBRANCH  14  16
ENDBRANCH  13  14
ENDBRANCH  12  13
ENDBRANCH  11  12
ENDBRANCH   1  11
TORSDOF 8
ENDMDL
MODEL 3
REMARK VINA RESULT:      -5.4      1.714      2.025
REMARK  Name = 
REMARK  10 active torsions:
REMARK  status: ('A' for Active; 'I' for Inactive)
REMARK    1  A    between atoms: C_1  and  C_2
REMARK    2  A    between atoms: C_2  and  C_3
REMARK    3  A    between atoms: C_3  and  C_4
REMARK    4  A    between atoms: C_4  and  C_5
REMARK    5  A    between atoms: C_5  and  C_6
REMARK    6  A    between atoms: C_6  and  C_7
REMARK    7  A    between atoms: C_7  and  C_8
REMARK    8  A    between atoms: C_7  and  N_11
REMARK    9  A    between atoms: C_8  and  C_9
REMARK   10  A    between atoms: C_8  and  O_10
REMARK                            x       y       z     vdW  Elec       q    Type
REMARK                         _______ _______ _______ _____ _____    ______ ____
ROOT
ATOM      1  C   UNL     1       4.259   4.082  18.596  0.00  0.00    +0.000 C 
ENDROOT
BRANCH   1   2
ATOM      2  N   UNL     1       5.542   4.230  17.897  0.00  0.00    +0.000 N 
ATOM      3  N   UNL     1       6.690   4.496  18.559  0.00  0.00    +0.000 NA
ATOM      4  C   UNL     1       7.564   4.584  17.558  0.00  0.00    +0.000 A 
ATOM      5  C   UNL     1       6.907   4.406  16.336  0.00  0.00    +0.000 A 
ATOM      6  N   UNL     1       5.602   4.210  16.548  0.00  0.00    +0.000 NA
ENDBRANCH   1   2
BRANCH   1   7
ATOM      7  C   UNL     1       4.089   2.638  19.131  0.00  0.00    +0.000 C 
ATOM      8  C   UNL     1       3.607   1.622  18.103  0.00  0.00    +0.000 C 
BRANCH   7   9
ATOM      9  O   UNL     1       5.293   2.132  19.723  0.00  0.00    +0.000 OA
ATOM     10  H   UNL     1       6.032   2.316  19.110  0.00  0.00    +0.000 HD
ENDBRANCH   7   9
ENDBRANCH   1   7
BRANCH   1  11
ATOM     11  C   UNL     1       3.106   4.579  17.691  0.00  0.00    +0.000 C 
BRANCH  11  12
ATOM     12  C   UNL     1       2.438   5.856  18.185  0.00  0.00    +0.000 C 
BRANCH  12  13
ATOM     13  C   UNL     1       2.694   6.091  19.676  0.00  0.00    +0.000 C 
BRANCH  13  14
ATOM     14  C   UNL     1       1.553   5.493  20.496  0.00  0.00    +0.000 C 
BRANCH  14  16
ATOM     15  C   UNL     1       1.157   3.072  21.007  0.00  0.00    +0.000 C 
ATOM     16  C   UNL     1       2.002   4.296  21.326  0.00  0.00    +0.000 C 
ENDBRANCH  14  16
ENDBRANCH  13  14
ENDBRANCH  12  13
ENDBRANCH  11  12
ENDBRANCH   1  11
TORSDOF 8
ENDMDL
MODEL 4
REMARK VINA RESULT:      -5.2      2.114      2.755
REMARK  Name = 
REMARK  10 active torsions:
REMARK  status: ('A' for Active; 'I' for Inactive)
REMARK    1  A    between atoms: C_1  and  C_2
REMARK    2  A    between atoms: C_2  and  C_3
REMARK    3  A    between atoms: C_3  and  C_4
REMARK    4  A    between atoms: C_4  and  C_5
REMARK    5  A    between atoms: C_5  and  C_6
REMARK    6  A    between atoms: C_6  and  C_7
REMARK    7  A    between atoms: C_7  and  C_8
REMARK    8  A    between atoms: C_7  and  N_11
REMARK    9  A    between atoms: C_8  and  C_9
REMARK   10  A    between atoms: C_8  and  O_10
REMARK                            x       y       z     vdW  Elec       q    Type
REMARK                         _______ _______ _______ _____ _____    ______ ____
ROOT
ATOM      1  C   UNL     1       6.122   4.307  16.489  0.00  0.00    +0.000 C 
ENDROOT
BRANCH   1   2
ATOM      2  N   UNL     1       6.834   5.337  17.257  0.00  0.00    +0.000 N 
ATOM      3  N   UNL     1       7.508   5.045  18.392  0.00  0.00    +0.000 NA
ATOM      4  C   UNL     1       7.948   6.247  18.760  0.00  0.00    +0.000 A 
ATOM      5  C   UNL     1       7.494   7.216  17.859  0.00  0.00    +0.000 A 
ATOM      6  N   UNL     1       6.751   6.640  16.910  0.00  0.00    +0.000 NA
ENDBRANCH   1   2
BRANCH   1   7
ATOM      7  C   UNL     1       6.687   4.206  15.050  0.00  0.00    +0.000 C 
ATOM      8  C   UNL     1       5.637   4.203  13.945  0.00  0.00    +0.000 C 
BRANCH   7   9
ATOM      9  O   UNL     1       7.631   5.247  14.762  0.00  0.00    +0.000 OA
ATOM     10  H   UNL     1       7.286   6.080  15.139  0.00  0.00    +0.000 HD
ENDBRANCH   7   9
ENDBRANCH   1   7
BRANCH   1  11
ATOM     11  C   UNL     1       4.596   4.548  16.572  0.00  0.00    +0.000 C 
BRANCH  11  12
ATOM     12  C   UNL     1       3.898   3.735  17.656  0.00  0.00    +0.000 C 
BRANCH  12  13
ATOM     13  C   UNL     1       2.390   3.996  17.679  0.00  0.00    +0.000 C 
BRANCH  13  14
ATOM     14  C   UNL     1       1.702   2.962  18.567  0.00  0.00    +0.000 C 
BRANCH  14  16
ATOM     15  C   UNL     1       1.841   3.709  20.954  0.00  0.00    +0.000 C 
ATOM     16  C   UNL     1       0.949   3.604  19.727  0.00  0.00    +0.000 C 
ENDBRANCH  14  16
ENDBRANCH  13  14
ENDBRANCH  12  13
ENDBRANCH  11  12
ENDBRANCH   1  11
TORSDOF 8
ENDMDL
MODEL 5
REMARK VINA RESULT:      -5.2      2.073      2.861
REMARK  Name = 
REMARK  10 active torsions:
REMARK  status: ('A' for Active; 'I' for Inactive)
REMARK    1  A    between atoms: C_1  and  C_2
REMARK    2  A    between atoms: C_2  and  C_3
REMARK    3  A    between atoms: C_3  and  C_4
REMARK    4  A    between atoms: C_4  and  C_5
REMARK    5  A    between atoms: C_5  and  C_6
REMARK    6  A    between atoms: C_6  and  C_7
REMARK    7  A    between atoms: C_7  and  C_8
REMARK    8  A    between atoms: C_7  and  N_11
REMARK    9  A    between atoms: C_8  and  C_9
REMARK   10  A    between atoms: C_8  and  O_10
REMARK                            x       y       z     vdW  Elec       q    Type
REMARK                         _______ _______ _______ _____ _____    ______ ____
ROOT
ATOM      1  C   UNL     1       3.937   4.456  17.291  0.00  0.00    +0.000 C 
ENDROOT
BRANCH   1   2
ATOM      2  N   UNL     1       5.219   4.494  16.576  0.00  0.00    +0.000 N 
ATOM      3  N   UNL     1       5.305   4.265  15.247  0.00  0.00    +0.000 NA
ATOM      4  C   UNL     1       6.618   4.358  15.042  0.00  0.00    +0.000 A 
ATOM      5  C   UNL     1       7.272   4.601  16.253  0.00  0.00    +0.000 A 
ATOM      6  N   UNL     1       6.381   4.657  17.247  0.00  0.00    +0.000 NA
ENDBRANCH   1   2
BRANCH   1   7
ATOM      7  C   UNL     1       3.803   5.668  18.246  0.00  0.00    +0.000 C 
ATOM      8  C   UNL     1       2.411   6.284  18.315  0.00  0.00    +0.000 C 
BRANCH   7   9
ATOM      9  O   UNL     1       4.215   5.354  19.584  0.00  0.00    +0.000 OA
ATOM     10  H   UNL     1       3.559   4.738  19.965  0.00  0.00    +0.000 HD
ENDBRANCH   7   9
ENDBRANCH   1   7
BRANCH   1  11
ATOM     11  C   UNL     1       3.750   3.075  17.964  0.00  0.00    +0.000 C 
BRANCH  11  12
ATOM     12  C   UNL     1       2.382   2.448  17.723  0.00  0.00    +0.000 C 
BRANCH  12  13
ATOM     13  C   UNL     1       1.711   2.026  19.032  0.00  0.00    +0.000 C 
BRANCH  13  14
ATOM     14  C   UNL     1       0.764   3.126  19.505  0.00  0.00    +0.000 C 
BRANCH  14  16
ATOM     15  C   UNL     1       2.017   2.811  21.652  0.00  0.00    +0.000 C 
ATOM     16  C   UNL     1       1.249   3.797  20.785  0.00  0.00    +0.000 C 
ENDBRANCH  14  16
ENDBRANCH  13  14
ENDBRANCH  12  13
ENDBRANCH  11  12
ENDBRANCH   1  11
TORSDOF 8
ENDMDL
MODEL 6
REMARK VINA RESULT:      -5.2      1.898      3.056
REMARK  Name = 
REMARK  10 active torsions:
REMARK  status: ('A' for Active; 'I' for Inactive)
REMARK    1  A    between atoms: C_1  and  C_2
REMARK    2  A    between atoms: C_2  and  C_3
REMARK    3  A    between atoms: C_3  and  C_4
REMARK    4  A    between atoms: C_4  and  C_5
REMARK    5  A    between atoms: C_5  and  C_6
REMARK    6  A    between atoms: C_6  and  C_7
REMARK    7  A    between atoms: C_7  and  C_8
REMARK    8  A    between atoms: C_7  and  N_11
REMARK    9  A    between atoms: C_8  and  C_9
REMARK   10  A    between atoms: C_8  and  O_10
REMARK                            x       y       z     vdW  Elec       q    Type
REMARK                         _______ _______ _______ _____ _____    ______ ____
ROOT
ATOM      1  C   UNL     1       4.248   4.827  17.235  0.00  0.00    +0.000 C 
ENDROOT
BRANCH   1   2
ATOM      2  N   UNL     1       4.138   3.621  18.064  0.00  0.00    +0.000 N 
ATOM      3  N   UNL     1       4.889   3.445  19.174  0.00  0.00    +0.000 NA
ATOM      4  C   UNL     1       4.501   2.235  19.573  0.00  0.00    +0.000 A 
ATOM      5  C   UNL     1       3.564   1.716  18.674  0.00  0.00    +0.000 A 
ATOM      6  N   UNL     1       3.352   2.589  17.685  0.00  0.00    +0.000 NA
ENDBRANCH   1   2
BRANCH   1   7
ATOM      7  C   UNL     1       5.600   4.853  16.478  0.00  0.00    +0.000 C 
ATOM      8  C   UNL     1       6.629   5.831  17.031  0.00  0.00    +0.000 C 
BRANCH   7   9
ATOM      9  O   UNL     1       6.211   3.557  16.414  0.00  0.00    +0.000 OA
ATOM     10  H   UNL     1       5.500   2.887  16.406  0.00  0.00    +0.000 HD
ENDBRANCH   7   9
ENDBRANCH   1   7
BRANCH   1  11
ATOM     11  C   UNL     1       3.960   6.084  18.091  0.00  0.00    +0.000 C 
BRANCH  11  12
ATOM     12  C   UNL     1       2.496   6.243  18.483  0.00  0.00    +0.000 C 
BRANCH  12  13
ATOM     13  C   UNL     1       2.295   6.105  19.994  0.00  0.00    +0.000 C 
BRANCH  13  14
ATOM     14  C   UNL     1       1.491   4.843  20.295  0.00  0.00    +0.000 C 
BRANCH  14  16
ATOM     15  C   UNL     1       1.401   2.678  21.554  0.00  0.00    +0.000 C 
ATOM     16  C   UNL     1       2.108   4.018  21.419  0.00  0.00    +0.000 C 
ENDBRANCH  14  16
ENDBRANCH  13  14
ENDBRANCH  12  13
ENDBRANCH  11  12
ENDBRANCH   1  11
TORSDOF 8
ENDMDL
MODEL 7
REMARK VINA RESULT:      -5.2      1.701      1.984
REMARK  Name = 
REMARK  10 active torsions:
REMARK  status: ('A' for Active; 'I' for Inactive)
REMARK    1  A    between atoms: C_1  and  C_2
REMARK    2  A    between atoms: C_2  and  C_3
REMARK    3  A    between atoms: C_3  and  C_4
REMARK    4  A    between atoms: C_4  and  C_5
REMARK    5  A    between atoms: C_5  and  C_6
REMARK    6  A    between atoms: C_6  and  C_7
REMARK    7  A    between atoms: C_7  and  C_8
REMARK    8  A    between atoms: C_7  and  N_11
REMARK    9  A    between atoms: C_8  and  C_9
REMARK   10  A    between atoms: C_8  and  O_10
REMARK                            x       y       z     vdW  Elec       q    Type
REMARK                         _______ _______ _______ _____ _____    ______ ____
ROOT
ATOM      1  C   UNL     1       4.152   4.085  18.213  0.00  0.00    +0.000 C 
ENDROOT
BRANCH   1   2
ATOM      2  N   UNL     1       5.529   4.267  17.737  0.00  0.00    +0.000 N 
ATOM      3  N   UNL     1       6.553   4.512  18.585  0.00  0.00    +0.000 NA
ATOM      4  C   UNL     1       7.576   4.644  17.742  0.00  0.00    +0.000 A 
ATOM      5  C   UNL     1       7.126   4.512  16.425  0.00  0.00    +0.000 A 
ATOM      6  N   UNL     1       5.806   4.302  16.415  0.00  0.00    +0.000 NA
ENDBRANCH   1   2
BRANCH   1   7
ATOM      7  C   UNL     1       3.520   2.813  17.593  0.00  0.00    +0.000 C 
ATOM      8  C   UNL     1       3.476   1.601  18.515  0.00  0.00    +0.000 C 
BRANCH   7   9
ATOM      9  O   UNL     1       2.192   3.048  17.107  0.00  0.00    +0.000 OA
ATOM     10  H   UNL     1       1.727   2.190  17.069  0.00  0.00    +0.000 HD
ENDBRANCH   7   9
ENDBRANCH   1   7
BRANCH   1  11
ATOM     11  C   UNL     1       3.342   5.385  17.994  0.00  0.00    +0.000 C 
BRANCH  11  12
ATOM     12  C   UNL     1       3.327   6.315  19.200  0.00  0.00    +0.000 C 
BRANCH  12  13
ATOM     13  C   UNL     1       2.029   6.188  20.001  0.00  0.00    +0.000 C 
BRANCH  13  14
ATOM     14  C   UNL     1       2.118   4.988  20.941  0.00  0.00    +0.000 C 
BRANCH  14  16
ATOM     15  C   UNL     1       1.400   2.626  21.367  0.00  0.00    +0.000 C 
ATOM     16  C   UNL     1       1.111   3.900  20.587  0.00  0.00    +0.000 C 
ENDBRANCH  14  16
ENDBRANCH  13  14
ENDBRANCH  12  13
ENDBRANCH  11  12
ENDBRANCH   1  11
TORSDOF 8
ENDMDL
MODEL 8
REMARK VINA RESULT:      -5.1      2.512      3.376
REMARK  Name = 
REMARK  10 active torsions:
REMARK  status: ('A' for Active; 'I' for Inactive)
REMARK    1  A    between atoms: C_1  and  C_2
REMARK    2  A    between atoms: C_2  and  C_3
REMARK    3  A    between atoms: C_3  and  C_4
REMARK    4  A    between atoms: C_4  and  C_5
REMARK    5  A    between atoms: C_5  and  C_6
REMARK    6  A    between atoms: C_6  and  C_7
REMARK    7  A    between atoms: C_7  and  C_8
REMARK    8  A    between atoms: C_7  and  N_11
REMARK    9  A    between atoms: C_8  and  C_9
REMARK   10  A    between atoms: C_8  and  O_10
REMARK                            x       y       z     vdW  Elec       q    Type
REMARK                         _______ _______ _______ _____ _____    ______ ____
ROOT
ATOM      1  C   UNL     1       5.753   5.268  16.980  0.00  0.00    +0.000 C 
ENDROOT
BRANCH   1   2
ATOM      2  N   UNL     1       6.216   4.911  15.633  0.00  0.00    +0.000 N 
ATOM      3  N   UNL     1       7.348   5.427  15.106  0.00  0.00    +0.000 NA
ATOM      4  C   UNL     1       7.356   4.877  13.893  0.00  0.00    +0.000 A 
ATOM      5  C   UNL     1       6.216   4.085  13.723  0.00  0.00    +0.000 A 
ATOM      6  N   UNL     1       5.464   4.131  14.827  0.00  0.00    +0.000 NA
ENDBRANCH   1   2
BRANCH   1   7
ATOM      7  C   UNL     1       6.720   4.715  18.058  0.00  0.00    +0.000 C 
ATOM      8  C   UNL     1       7.439   5.776  18.883  0.00  0.00    +0.000 C 
BRANCH   7   9
ATOM      9  O   UNL     1       6.067   3.817  18.965  0.00  0.00    +0.000 OA
ATOM     10  H   UNL     1       5.749   4.336  19.729  0.00  0.00    +0.000 HD
ENDBRANCH   7   9
ENDBRANCH   1   7
BRANCH   1  11
ATOM     11  C   UNL     1       4.275   4.847  17.158  0.00  0.00    +0.000 C 
BRANCH  11  12
ATOM     12  C   UNL     1       3.415   5.890  17.863  0.00  0.00    +0.000 C 
BRANCH  12  13
ATOM     13  C   UNL     1       2.048   5.326  18.259  0.00  0.00    +0.000 C 
BRANCH  13  14
ATOM     14  C   UNL     1       1.926   3.883  17.776  0.00  0.00    +0.000 C 
BRANCH  14  16
ATOM     15  C   UNL     1       1.011   3.671  20.099  0.00  0.00    +0.000 C 
ATOM     16  C   UNL     1       1.100   3.023  18.726  0.00  0.00    +0.000 C 
ENDBRANCH  14  16
ENDBRANCH  13  14
ENDBRANCH  12  13
ENDBRANCH  11  12
ENDBRANCH   1  11
TORSDOF 8
ENDMDL
MODEL 9
REMARK VINA RESULT:      -5.1      2.172      2.566
REMARK  Name = 
REMARK  10 active torsions:
REMARK  status: ('A' for Active; 'I' for Inactive)
REMARK    1  A    between atoms: C_1  and  C_2
REMARK    2  A    between atoms: C_2  and  C_3
REMARK    3  A    between atoms: C_3  and  C_4
REMARK    4  A    between atoms: C_4  and  C_5
REMARK    5  A    between atoms: C_5  and  C_6
REMARK    6  A    between atoms: C_6  and  C_7
REMARK    7  A    between atoms: C_7  and  C_8
REMARK    8  A    between atoms: C_7  and  N_11
REMARK    9  A    between atoms: C_8  and  C_9
REMARK   10  A    between atoms: C_8  and  O_10
REMARK                            x       y       z     vdW  Elec       q    Type
REMARK                         _______ _______ _______ _____ _____    ______ ____
ROOT
ATOM      1  C   UNL     1       6.125   4.189  16.460  0.00  0.00    +0.000 C 
ENDROOT
BRANCH   1   2
ATOM      2  N   UNL     1       6.822   5.078  17.398  0.00  0.00    +0.000 N 
ATOM      3  N   UNL     1       6.787   6.423  17.269  0.00  0.00    +0.000 NA
ATOM      4  C   UNL     1       7.563   6.811  18.280  0.00  0.00    +0.000 A 
ATOM      5  C   UNL     1       8.063   5.691  18.952  0.00  0.00    +0.000 A 
ATOM      6  N   UNL     1       7.615   4.575  18.369  0.00  0.00    +0.000 NA
ENDBRANCH   1   2
BRANCH   1   7
ATOM      7  C   UNL     1       6.823   4.196  15.076  0.00  0.00    +0.000 C 
ATOM      8  C   UNL     1       5.889   4.029  13.883  0.00  0.00    +0.000 C 
BRANCH   7   9
ATOM      9  O   UNL     1       7.602   5.382  14.866  0.00  0.00    +0.000 OA
ATOM     10  H   UNL     1       8.531   5.113  14.727  0.00  0.00    +0.000 HD
ENDBRANCH   7   9
ENDBRANCH   1   7
BRANCH   1  11
ATOM     11  C   UNL     1       4.617   4.534  16.428  0.00  0.00    +0.000 C 
BRANCH  11  12
ATOM     12  C   UNL     1       3.747   3.584  17.241  0.00  0.00    +0.000 C 
BRANCH  12  13
ATOM     13  C   UNL     1       3.060   4.299  18.407  0.00  0.00    +0.000 C 
BRANCH  13  14
ATOM     14  C   UNL     1       1.554   4.056  18.347  0.00  0.00    +0.000 C 
BRANCH  14  16
ATOM     15  C   UNL     1       1.709   2.493  20.299  0.00  0.00    +0.000 C 
ATOM     16  C   UNL     1       0.973   3.684  19.706  0.00  0.00    +0.000 C 
ENDBRANCH  14  16
ENDBRANCH  13  14
ENDBRANCH  12  13
ENDBRANCH  11  12
ENDBRANCH   1  11
TORSDOF 8
ENDMDL
