MODEL 1
REMARK VINA RESULT:      -7.7      0.000      0.000
REMARK  Name = 
REMARK  2 active torsions:
REMARK  status: ('A' for Active; 'I' for Inactive)
REMARK    1  A    between atoms: C_1  and  N_2
REMARK    2  A    between atoms: C_5  and  C_6
REMARK                            x       y       z     vdW  Elec       q    Type
REMARK                         _______ _______ _______ _____ _____    ______ ____
ROOT
ATOM      1  C   UNL     1       3.887   4.094  19.090  0.00  0.00    +0.000 C 
ATOM      2  C   UNL     1       3.296   5.054  20.162  0.00  0.00    +0.000 C 
ATOM      3  C   UNL     1       1.979   4.499  20.729  0.00  0.00    +0.000 C 
ATOM      4  C   UNL     1       0.959   4.345  19.592  0.00  0.00    +0.000 C 
ATOM      5  C   UNL     1       1.503   3.379  18.529  0.00  0.00    +0.000 C 
ATOM      6  C   UNL     1       1.766   2.008  19.172  0.00  0.00    +0.000 C 
ATOM      7  C   UNL     1       2.786   2.151  20.312  0.00  0.00    +0.000 C 
ATOM      8  C   UNL     1       2.239   3.125  21.368  0.00  0.00    +0.000 C 
ATOM      9  C   UNL     1       4.105   2.703  19.746  0.00  0.00    +0.000 C 
ATOM     10  C   UNL     1       2.824   3.933  17.966  0.00  0.00    +0.000 C 
ENDROOT
BRANCH   1  15
ATOM     11  C   UNL     1       6.617   4.487  14.612  0.00  0.00    +0.000 C 
ATOM     12  N   UNL     1       7.412   4.676  15.805  0.00  0.00    +0.000 N 
ATOM     13  C   UNL     1       6.763   4.821  16.982  0.00  0.00    +0.000 A 
ATOM     14  N   UNL     1       5.580   4.330  17.268  0.00  0.00    +0.000 NA
ATOM     15  C   UNL     1       5.206   4.643  18.572  0.00  0.00    +0.000 A 
ATOM     16  C   UNL     1       6.124   5.434  19.238  0.00  0.00    +0.000 A 
ATOM     17  S   UNL     1       7.490   5.726  18.252  0.00  0.00    +0.000 S 
ATOM     18  H   UNL     1       8.231   5.257  15.681  0.00  0.00    +0.000 HD
ENDBRANCH   1  15
TORSDOF 1
ENDMDL
MODEL 2
REMARK VINA RESULT:      -7.7      0.398      1.650
REMARK  Name = 
REMARK  2 active torsions:
REMARK  status: ('A' for Active; 'I' for Inactive)
REMARK    1  A    between atoms: C_1  and  N_2
REMARK    2  A    between atoms: C_5  and  C_6
REMARK                            x       y       z     vdW  Elec       q    Type
REMARK                         _______ _______ _______ _____ _____    ______ ____
ROOT
ATOM      1  C   UNL     1       3.832   4.029  18.982  0.00  0.00    +0.000 C 
ATOM      2  C   UNL     1       2.741   4.338  17.917  0.00  0.00    +0.000 C 
ATOM      3  C   UNL     1       1.364   3.830  18.377  0.00  0.00    +0.000 C 
ATOM      4  C   UNL     1       1.426   2.311  18.590  0.00  0.00    +0.000 C 
ATOM      5  C   UNL     1       2.477   1.975  19.659  0.00  0.00    +0.000 C 
ATOM      6  C   UNL     1       2.099   2.663  20.980  0.00  0.00    +0.000 C 
ATOM      7  C   UNL     1       2.034   4.186  20.778  0.00  0.00    +0.000 C 
ATOM      8  C   UNL     1       0.987   4.513  19.702  0.00  0.00    +0.000 C 
ATOM      9  C   UNL     1       3.410   4.695  20.321  0.00  0.00    +0.000 C 
ATOM     10  C   UNL     1       3.853   2.489  19.199  0.00  0.00    +0.000 C 
ENDROOT
BRANCH   1  15
ATOM     11  C   UNL     1       6.678   4.582  14.594  0.00  0.00    +0.000 C 
ATOM     12  N   UNL     1       7.447   4.692  15.814  0.00  0.00    +0.000 N 
ATOM     13  C   UNL     1       6.773   4.794  16.981  0.00  0.00    +0.000 A 
ATOM     14  N   UNL     1       5.573   4.317  17.215  0.00  0.00    +0.000 NA
ATOM     15  C   UNL     1       5.174   4.573  18.524  0.00  0.00    +0.000 A 
ATOM     16  C   UNL     1       6.092   5.308  19.250  0.00  0.00    +0.000 A 
ATOM     17  S   UNL     1       7.489   5.617  18.312  0.00  0.00    +0.000 S 
ATOM     18  H   UNL     1       8.281   5.260  15.738  0.00  0.00    +0.000 HD
ENDBRANCH   1  15
TORSDOF 1
ENDMDL
MODEL 3
REMARK VINA RESULT:      -7.7      1.489      2.703
REMARK  Name = 
REMARK  2 active torsions:
REMARK  status: ('A' for Active; 'I' for Inactive)
REMARK    1  A    between atoms: C_1  and  N_2
REMARK    2  A    between atoms: C_5  and  C_6
REMARK                            x       y       z     vdW  Elec       q    Type
REMARK                         _______ _______ _______ _____ _____    ______ ____
ROOT
ATOM      1  C   UNL     1       3.815   4.020  18.249  0.00  0.00    +0.000 C 
ATOM      2  C   UNL     1       3.899   2.501  18.571  0.00  0.00    +0.000 C 
ATOM      3  C   UNL     1       2.733   2.064  19.473  0.00  0.00    +0.000 C 
ATOM      4  C   UNL     1       2.786   2.850  20.792  0.00  0.00    +0.000 C 
ATOM      5  C   UNL     1       2.676   4.356  20.508  0.00  0.00    +0.000 C 
ATOM      6  C   UNL     1       1.347   4.644  19.793  0.00  0.00    +0.000 C 
ATOM      7  C   UNL     1       1.283   3.863  18.471  0.00  0.00    +0.000 C 
ATOM      8  C   UNL     1       1.402   2.358  18.761  0.00  0.00    +0.000 C 
ATOM      9  C   UNL     1       2.447   4.299  17.567  0.00  0.00    +0.000 C 
ATOM     10  C   UNL     1       3.842   4.789  19.600  0.00  0.00    +0.000 C 
ENDROOT
BRANCH   1  15
ATOM     11  C   UNL     1       7.888   7.342  18.070  0.00  0.00    +0.000 C 
ATOM     12  N   UNL     1       7.494   6.822  16.779  0.00  0.00    +0.000 N 
ATOM     13  C   UNL     1       6.616   5.794  16.751  0.00  0.00    +0.000 A 
ATOM     14  N   UNL     1       5.712   5.537  17.666  0.00  0.00    +0.000 NA
ATOM     15  C   UNL     1       4.954   4.420  17.327  0.00  0.00    +0.000 A 
ATOM     16  C   UNL     1       5.357   3.812  16.152  0.00  0.00    +0.000 A 
ATOM     17  S   UNL     1       6.641   4.685  15.436  0.00  0.00    +0.000 S 
ATOM     18  H   UNL     1       8.238   6.782  16.093  0.00  0.00    +0.000 HD
ENDBRANCH   1  15
TORSDOF 1
ENDMDL
MODEL 4
REMARK VINA RESULT:      -7.7      1.544      1.959
REMARK  Name = 
REMARK  2 active torsions:
REMARK  status: ('A' for Active; 'I' for Inactive)
REMARK    1  A    between atoms: C_1  and  N_2
REMARK    2  A    between atoms: C_5  and  C_6
REMARK                            x       y       z     vdW  Elec       q    Type
REMARK                         _______ _______ _______ _____ _____    ______ ____
ROOT
ATOM      1  C   UNL     1       3.777   3.997  18.101  0.00  0.00    +0.000 C 
ATOM      2  C   UNL     1       3.959   4.625  19.512  0.00  0.00    +0.000 C 
ATOM      3  C   UNL     1       2.827   4.189  20.458  0.00  0.00    +0.000 C 
ATOM      4  C   UNL     1       1.479   4.650  19.885  0.00  0.00    +0.000 C 
ATOM      5  C   UNL     1       1.257   4.023  18.500  0.00  0.00    +0.000 C 
ATOM      6  C   UNL     1       1.264   2.491  18.627  0.00  0.00    +0.000 C 
ATOM      7  C   UNL     1       2.610   2.019  19.200  0.00  0.00    +0.000 C 
ATOM      8  C   UNL     1       2.829   2.657  20.581  0.00  0.00    +0.000 C 
ATOM      9  C   UNL     1       3.743   2.451  18.255  0.00  0.00    +0.000 C 
ATOM     10  C   UNL     1       2.395   4.456  17.558  0.00  0.00    +0.000 C 
ENDROOT
BRANCH   1  15
ATOM     11  C   UNL     1       7.833   7.343  18.000  0.00  0.00    +0.000 C 
ATOM     12  N   UNL     1       7.459   6.831  16.701  0.00  0.00    +0.000 N 
ATOM     13  C   UNL     1       6.588   5.799  16.653  0.00  0.00    +0.000 A 
ATOM     14  N   UNL     1       5.673   5.529  17.555  0.00  0.00    +0.000 NA
ATOM     15  C   UNL     1       4.927   4.410  17.197  0.00  0.00    +0.000 A 
ATOM     16  C   UNL     1       5.348   3.814  16.023  0.00  0.00    +0.000 A 
ATOM     17  S   UNL     1       6.636   4.700  15.330  0.00  0.00    +0.000 S 
ATOM     18  H   UNL     1       8.212   6.801  16.025  0.00  0.00    +0.000 HD
ENDBRANCH   1  15
TORSDOF 1
ENDMDL
MODEL 5
REMARK VINA RESULT:      -7.7      0.288      1.939
REMARK  Name = 
REMARK  2 active torsions:
REMARK  status: ('A' for Active; 'I' for Inactive)
REMARK    1  A    between atoms: C_1  and  N_2
REMARK    2  A    between atoms: C_5  and  C_6
REMARK                            x       y       z     vdW  Elec       q    Type
REMARK                         _______ _______ _______ _____ _____    ______ ____
ROOT
ATOM      1  C   UNL     1       3.845   4.068  19.017  0.00  0.00    +0.000 C 
ATOM      2  C   UNL     1       3.967   2.557  19.364  0.00  0.00    +0.000 C 
ATOM      3  C   UNL     1       2.615   1.986  19.822  0.00  0.00    +0.000 C 
ATOM      4  C   UNL     1       2.141   2.741  21.073  0.00  0.00    +0.000 C 
ATOM      5  C   UNL     1       1.983   4.235  20.754  0.00  0.00    +0.000 C 
ATOM      6  C   UNL     1       0.952   4.410  19.628  0.00  0.00    +0.000 C 
ATOM      7  C   UNL     1       1.416   3.659  18.370  0.00  0.00    +0.000 C 
ATOM      8  C   UNL     1       1.580   2.166  18.699  0.00  0.00    +0.000 C 
ATOM      9  C   UNL     1       2.767   4.229  17.909  0.00  0.00    +0.000 C 
ATOM     10  C   UNL     1       3.337   4.802  20.290  0.00  0.00    +0.000 C 
ENDROOT
BRANCH   1  15
ATOM     11  C   UNL     1       6.630   4.543  14.581  0.00  0.00    +0.000 C 
ATOM     12  N   UNL     1       7.417   4.668  15.788  0.00  0.00    +0.000 N 
ATOM     13  C   UNL     1       6.761   4.791  16.963  0.00  0.00    +0.000 A 
ATOM     14  N   UNL     1       5.562   4.322  17.221  0.00  0.00    +0.000 NA
ATOM     15  C   UNL     1       5.183   4.600  18.531  0.00  0.00    +0.000 A 
ATOM     16  C   UNL     1       6.114   5.342  19.233  0.00  0.00    +0.000 A 
ATOM     17  S   UNL     1       7.498   5.630  18.271  0.00  0.00    +0.000 S 
ATOM     18  H   UNL     1       8.253   5.232  15.692  0.00  0.00    +0.000 HD
ENDBRANCH   1  15
TORSDOF 1
ENDMDL
MODEL 6
REMARK VINA RESULT:      -7.7      1.541      2.400
REMARK  Name = 
REMARK  2 active torsions:
REMARK  status: ('A' for Active; 'I' for Inactive)
REMARK    1  A    between atoms: C_1  and  N_2
REMARK    2  A    between atoms: C_5  and  C_6
REMARK                            x       y       z     vdW  Elec       q    Type
REMARK                         _______ _______ _______ _____ _____    ______ ____
ROOT
ATOM      1  C   UNL     1       3.842   3.946  18.099  0.00  0.00    +0.000 C 
ATOM      2  C   UNL     1       2.488   4.423  17.500  0.00  0.00    +0.000 C 
ATOM      3  C   UNL     1       1.315   4.039  18.416  0.00  0.00    +0.000 C 
ATOM      4  C   UNL     1       1.271   2.512  18.574  0.00  0.00    +0.000 C 
ATOM      5  C   UNL     1       2.585   2.011  19.191  0.00  0.00    +0.000 C 
ATOM      6  C   UNL     1       2.783   2.663  20.568  0.00  0.00    +0.000 C 
ATOM      7  C   UNL     1       2.829   4.193  20.422  0.00  0.00    +0.000 C 
ATOM      8  C   UNL     1       1.514   4.686  19.797  0.00  0.00    +0.000 C 
ATOM      9  C   UNL     1       4.003   4.580  19.508  0.00  0.00    +0.000 C 
ATOM     10  C   UNL     1       3.758   2.403  18.274  0.00  0.00    +0.000 C 
ENDROOT
BRANCH   1  15
ATOM     11  C   UNL     1       7.827   7.375  17.976  0.00  0.00    +0.000 C 
ATOM     12  N   UNL     1       7.472   6.837  16.682  0.00  0.00    +0.000 N 
ATOM     13  C   UNL     1       6.623   5.786  16.643  0.00  0.00    +0.000 A 
ATOM     14  N   UNL     1       5.708   5.510  17.543  0.00  0.00    +0.000 NA
ATOM     15  C   UNL     1       4.988   4.370  17.196  0.00  0.00    +0.000 A 
ATOM     16  C   UNL     1       5.429   3.766  16.034  0.00  0.00    +0.000 A 
ATOM     17  S   UNL     1       6.703   4.670  15.336  0.00  0.00    +0.000 S 
ATOM     18  H   UNL     1       8.230   6.813  16.010  0.00  0.00    +0.000 HD
ENDBRANCH   1  15
TORSDOF 1
ENDMDL
MODEL 7
REMARK VINA RESULT:      -7.6      1.573      2.786
REMARK  Name = 
REMARK  2 active torsions:
REMARK  status: ('A' for Active; 'I' for Inactive)
REMARK    1  A    between atoms: C_1  and  N_2
REMARK    2  A    between atoms: C_5  and  C_6
REMARK                            x       y       z     vdW  Elec       q    Type
REMARK                         _______ _______ _______ _____ _____    ______ ____
ROOT
ATOM      1  C   UNL     1       3.976   4.014  18.101  0.00  0.00    +0.000 C 
ATOM      2  C   UNL     1       3.024   3.059  17.326  0.00  0.00    +0.000 C 
ATOM      3  C   UNL     1       1.832   2.640  18.204  0.00  0.00    +0.000 C 
ATOM      4  C   UNL     1       2.350   1.911  19.452  0.00  0.00    +0.000 C 
ATOM      5  C   UNL     1       3.274   2.839  20.255  0.00  0.00    +0.000 C 
ATOM      6  C   UNL     1       2.492   4.092  20.680  0.00  0.00    +0.000 C 
ATOM      7  C   UNL     1       1.969   4.831  19.438  0.00  0.00    +0.000 C 
ATOM      8  C   UNL     1       1.053   3.892  18.635  0.00  0.00    +0.000 C 
ATOM      9  C   UNL     1       3.158   5.252  18.560  0.00  0.00    +0.000 C 
ATOM     10  C   UNL     1       4.462   3.262  19.372  0.00  0.00    +0.000 C 
ENDROOT
BRANCH   1  15
ATOM     11  C   UNL     1       7.877   7.537  17.942  0.00  0.00    +0.000 C 
ATOM     12  N   UNL     1       7.553   6.959  16.658  0.00  0.00    +0.000 N 
ATOM     13  C   UNL     1       6.731   5.886  16.635  0.00  0.00    +0.000 A 
ATOM     14  N   UNL     1       5.811   5.610  17.529  0.00  0.00    +0.000 NA
ATOM     15  C   UNL     1       5.123   4.444  17.203  0.00  0.00    +0.000 A 
ATOM     16  C   UNL     1       5.595   3.823  16.061  0.00  0.00    +0.000 A 
ATOM     17  S   UNL     1       6.855   4.740  15.358  0.00  0.00    +0.000 S 
ATOM     18  H   UNL     1       8.320   6.937  15.997  0.00  0.00    +0.000 HD
ENDBRANCH   1  15
TORSDOF 1
ENDMDL
MODEL 8
REMARK VINA RESULT:      -7.5      0.997      1.776
REMARK  Name = 
REMARK  2 active torsions:
REMARK  status: ('A' for Active; 'I' for Inactive)
REMARK    1  A    between atoms: C_1  and  N_2
REMARK    2  A    between atoms: C_5  and  C_6
REMARK                            x       y       z     vdW  Elec       q    Type
REMARK                         _______ _______ _______ _____ _____    ______ ____
ROOT
ATOM      1  C   UNL     1       4.085   4.322  18.301  0.00  0.00    +0.000 C 
ATOM      2  C   UNL     1       4.543   3.385  19.455  0.00  0.00    +0.000 C 
ATOM      3  C   UNL     1       3.359   2.577  20.011  0.00  0.00    +0.000 C 
ATOM      4  C   UNL     1       2.295   3.541  20.554  0.00  0.00    +0.000 C 
ATOM      5  C   UNL     1       1.800   4.463  19.430  0.00  0.00    +0.000 C 
ATOM      6  C   UNL     1       1.194   3.613  18.302  0.00  0.00    +0.000 C 
ATOM      7  C   UNL     1       2.252   2.644  17.750  0.00  0.00    +0.000 C 
ATOM      8  C   UNL     1       2.747   1.730  18.883  0.00  0.00    +0.000 C 
ATOM      9  C   UNL     1       3.436   3.449  17.192  0.00  0.00    +0.000 C 
ATOM     10  C   UNL     1       2.989   5.267  18.871  0.00  0.00    +0.000 C 
ENDROOT
BRANCH   1  15
ATOM     11  C   UNL     1       6.906   4.724  13.881  0.00  0.00    +0.000 C 
ATOM     12  N   UNL     1       7.572   5.243  15.054  0.00  0.00    +0.000 N 
ATOM     13  C   UNL     1       6.844   5.393  16.183  0.00  0.00    +0.000 A 
ATOM     14  N   UNL     1       5.783   4.691  16.506  0.00  0.00    +0.000 NA
ATOM     15  C   UNL     1       5.277   5.081  17.743  0.00  0.00    +0.000 A 
ATOM     16  C   UNL     1       5.961   6.139  18.313  0.00  0.00    +0.000 A 
ATOM     17  S   UNL     1       7.283   6.597  17.330  0.00  0.00    +0.000 S 
ATOM     18  H   UNL     1       8.250   5.972  14.870  0.00  0.00    +0.000 HD
ENDBRANCH   1  15
TORSDOF 1
ENDMDL
MODEL 9
REMARK VINA RESULT:      -7.5      1.030      1.054
REMARK  Name = 
REMARK  2 active torsions:
REMARK  status: ('A' for Active; 'I' for Inactive)
REMARK    1  A    between atoms: C_1  and  N_2
REMARK    2  A    between atoms: C_5  and  C_6
REMARK                            x       y       z     vdW  Elec       q    Type
REMARK                         _______ _______ _______ _____ _____    ______ ____
ROOT
ATOM      1  C   UNL     1       3.657   3.785  18.538  0.00  0.00    +0.000 C 
ATOM      2  C   UNL     1       3.651   4.493  19.924  0.00  0.00    +0.000 C 
ATOM      3  C   UNL     1       2.371   4.157  20.708  0.00  0.00    +0.000 C 
ATOM      4  C   UNL     1       1.146   4.628  19.910  0.00  0.00    +0.000 C 
ATOM      5  C   UNL     1       1.108   3.925  18.545  0.00  0.00    +0.000 C 
ATOM      6  C   UNL     1       1.029   2.405  18.756  0.00  0.00    +0.000 C 
ATOM      7  C   UNL     1       2.250   1.921  19.554  0.00  0.00    +0.000 C 
ATOM      8  C   UNL     1       2.286   2.636  20.915  0.00  0.00    +0.000 C 
ATOM      9  C   UNL     1       3.531   2.255  18.771  0.00  0.00    +0.000 C 
ATOM     10  C   UNL     1       2.393   4.258  17.765  0.00  0.00    +0.000 C 
ENDROOT
BRANCH   1  15
ATOM     11  C   UNL     1       5.591   3.872  13.649  0.00  0.00    +0.000 C 
ATOM     12  N   UNL     1       6.602   3.851  14.682  0.00  0.00    +0.000 N 
ATOM     13  C   UNL     1       6.208   4.059  15.959  0.00  0.00    +0.000 A 
ATOM     14  N   UNL     1       5.021   3.786  16.446  0.00  0.00    +0.000 NA
ATOM     15  C   UNL     1       4.946   4.101  17.800  0.00  0.00    +0.000 A 
ATOM     16  C   UNL     1       6.101   4.673  18.301  0.00  0.00    +0.000 A 
ATOM     17  S   UNL     1       7.306   4.749  17.090  0.00  0.00    +0.000 S 
ATOM     18  H   UNL     1       7.484   4.273  14.421  0.00  0.00    +0.000 HD
ENDBRANCH   1  15
TORSDOF 1
ENDMDL
