MODEL 1
REMARK VINA RESULT:      -6.9      0.000      0.000
REMARK  Name = 
REMARK  10 active torsions:
REMARK  status: ('A' for Active; 'I' for Inactive)
REMARK    1  A    between atoms: C_1  and  C_2
REMARK    2  A    between atoms: C_2  and  N_3
REMARK    3  A    between atoms: C_7  and  N_8
REMARK    4  A    between atoms: C_9  and  C_11
REMARK    5  A    between atoms: C_14  and  C_15
REMARK    6  A    between atoms: C_17  and  C_18
REMARK    7  A    between atoms: C_18  and  O_19
REMARK    8  A    between atoms: C_20  and  O_21
REMARK    9  A    between atoms: C_22  and  O_23
REMARK   10  A    between atoms: C_24  and  O_25
REMARK                            x       y       z     vdW  Elec       q    Type
REMARK                         _______ _______ _______ _____ _____    ______ ____
ROOT
ATOM      1  C   UNL     1       2.467   7.400  18.948  0.00  0.00    +0.000 A 
ATOM      2  C   UNL     1       2.766   8.201  17.858  0.00  0.00    +0.000 A 
ATOM      3  S   UNL     1       1.854   9.641  17.912  0.00  0.00    +0.000 S 
ATOM      4  C   UNL     1       1.135   9.123  19.388  0.00  0.00    +0.000 A 
ATOM      5  N   UNL     1       1.559   7.953  19.851  0.00  0.00    +0.000 NA
ENDROOT
BRANCH   4   6
ATOM      6  C   UNL     1       0.085   9.995  20.037  0.00  0.00    +0.000 C 
ATOM      7  O   UNL     1      -0.648  10.596  18.958  0.00  0.00    +0.000 OA
ATOM      8  C   UNL     1      -1.695  11.470  19.412  0.00  0.00    +0.000 C 
ATOM      9  C   UNL     1      -1.053  12.649  20.162  0.00  0.00    +0.000 C 
ATOM     10  C   UNL     1      -0.281  12.099  21.373  0.00  0.00    +0.000 C 
ATOM     11  C   UNL     1       0.757  11.048  20.938  0.00  0.00    +0.000 C 
BRANCH   9  12
ATOM     12  O   UNL     1      -0.127  13.352  19.311  0.00  0.00    +0.000 OA
ATOM     13  H   UNL     1       0.667  13.553  19.843  0.00  0.00    +0.000 HD
ENDBRANCH   9  12
BRANCH  10  14
ATOM     14  O   UNL     1       0.371  13.163  22.070  0.00  0.00    +0.000 OA
ATOM     15  H   UNL     1       1.138  12.773  22.532  0.00  0.00    +0.000 HD
ENDBRANCH  10  14
BRANCH  11  16
ATOM     16  O   UNL     1       1.374  10.415  22.068  0.00  0.00    +0.000 OA
ATOM     17  H   UNL     1       1.099  10.869  22.883  0.00  0.00    +0.000 HD
ENDBRANCH  11  16
BRANCH   8  18
ATOM     18  C   UNL     1      -2.503  11.896  18.183  0.00  0.00    +0.000 C 
BRANCH  18  19
ATOM     19  O   UNL     1      -1.656  12.269  17.109  0.00  0.00    +0.000 OA
ATOM     20  H   UNL     1      -0.797  11.828  17.244  0.00  0.00    +0.000 HD
ENDBRANCH  18  19
ENDBRANCH   8  18
ENDBRANCH   4   6
BRANCH   1  22
ATOM     21  N   UNL     1       2.234   5.088  18.455  0.00  0.00    +0.000 N 
ATOM     22  C   UNL     1       3.038   6.073  19.121  0.00  0.00    +0.000 C 
ATOM     23  O   UNL     1       4.043   5.810  19.766  0.00  0.00    +0.000 OA
ATOM     24  H   UNL     1       1.381   5.415  18.008  0.00  0.00    +0.000 HD
BRANCH  21  29
ATOM     25  N   UNL     1       2.199   2.723  19.273  0.00  0.00    +0.000 N 
ATOM     26  N   UNL     1       2.727   1.525  18.933  0.00  0.00    +0.000 NA
ATOM     27  C   UNL     1       3.478   1.788  17.867  0.00  0.00    +0.000 A 
ATOM     28  C   UNL     1       3.436   3.146  17.515  0.00  0.00    +0.000 A 
ATOM     29  C   UNL     1       2.592   3.744  18.431  0.00  0.00    +0.000 A 
BRANCH  25  31
ATOM     30  C   UNL     1       2.090   3.234  21.704  0.00  0.00    +0.000 C 
ATOM     31  C   UNL     1       1.357   2.779  20.451  0.00  0.00    +0.000 C 
ENDBRANCH  25  31
ENDBRANCH  21  29
ENDBRANCH   1  22
TORSDOF 9
ENDMDL
MODEL 2
REMARK VINA RESULT:      -6.9      0.925      1.168
REMARK  Name = 
REMARK  10 active torsions:
REMARK  status: ('A' for Active; 'I' for Inactive)
REMARK    1  A    between atoms: C_1  and  C_2
REMARK    2  A    between atoms: C_2  and  N_3
REMARK    3  A    between atoms: C_7  and  N_8
REMARK    4  A    between atoms: C_9  and  C_11
REMARK    5  A    between atoms: C_14  and  C_15
REMARK    6  A    between atoms: C_17  and  C_18
REMARK    7  A    between atoms: C_18  and  O_19
REMARK    8  A    between atoms: C_20  and  O_21
REMARK    9  A    between atoms: C_22  and  O_23
REMARK   10  A    between atoms: C_24  and  O_25
REMARK                            x       y       z     vdW  Elec       q    Type
REMARK                         _______ _______ _______ _____ _____    ______ ____
ROOT
ATOM      1  C   UNL     1       2.480   7.391  18.909  0.00  0.00    +0.000 A 
ATOM      2  C   UNL     1       2.835   8.208  17.849  0.00  0.00    +0.000 A 
ATOM      3  S   UNL     1       1.912   9.643  17.872  0.00  0.00    +0.000 S 
ATOM      4  C   UNL     1       1.116   9.101  19.298  0.00  0.00    +0.000 A 
ATOM      5  N   UNL     1       1.519   7.926  19.768  0.00  0.00    +0.000 NA
ENDROOT
BRANCH   4   6
ATOM      6  C   UNL     1       0.025   9.958  19.898  0.00  0.00    +0.000 C 
ATOM      7  O   UNL     1       0.198  11.267  19.334  0.00  0.00    +0.000 OA
ATOM      8  C   UNL     1      -0.770  12.215  19.812  0.00  0.00    +0.000 C 
ATOM      9  C   UNL     1      -0.560  12.404  21.324  0.00  0.00    +0.000 C 
ATOM     10  C   UNL     1      -0.776  11.050  22.022  0.00  0.00    +0.000 C 
ATOM     11  C   UNL     1       0.148   9.968  21.433  0.00  0.00    +0.000 C 
BRANCH   9  12
ATOM     12  O   UNL     1       0.781  12.851  21.602  0.00  0.00    +0.000 OA
ATOM     13  H   UNL     1       1.136  12.290  22.318  0.00  0.00    +0.000 HD
ENDBRANCH   9  12
BRANCH  10  14
ATOM     14  O   UNL     1      -0.543  11.174  23.427  0.00  0.00    +0.000 OA
ATOM     15  H   UNL     1      -1.116  11.898  23.748  0.00  0.00    +0.000 HD
ENDBRANCH  10  14
BRANCH  11  16
ATOM     16  O   UNL     1      -0.150   8.670  21.966  0.00  0.00    +0.000 OA
ATOM     17  H   UNL     1      -0.456   8.760  22.885  0.00  0.00    +0.000 HD
ENDBRANCH  11  16
BRANCH   8  18
ATOM     18  C   UNL     1      -0.588  13.505  19.006  0.00  0.00    +0.000 C 
BRANCH  18  19
ATOM     19  O   UNL     1      -0.785  13.282  17.620  0.00  0.00    +0.000 OA
ATOM     20  H   UNL     1      -0.252  13.940  17.137  0.00  0.00    +0.000 HD
ENDBRANCH  18  19
ENDBRANCH   8  18
ENDBRANCH   4   6
BRANCH   1  22
ATOM     21  N   UNL     1       2.243   5.075  18.438  0.00  0.00    +0.000 N 
ATOM     22  C   UNL     1       3.048   6.065  19.096  0.00  0.00    +0.000 C 
ATOM     23  O   UNL     1       4.052   5.806  19.745  0.00  0.00    +0.000 OA
ATOM     24  H   UNL     1       1.392   5.399  17.986  0.00  0.00    +0.000 HD
BRANCH  21  29
ATOM     25  N   UNL     1       2.197   2.716  19.275  0.00  0.00    +0.000 N 
ATOM     26  N   UNL     1       2.726   1.515  18.949  0.00  0.00    +0.000 NA
ATOM     27  C   UNL     1       3.485   1.768  17.887  0.00  0.00    +0.000 A 
ATOM     28  C   UNL     1       3.449   3.122  17.524  0.00  0.00    +0.000 A 
ATOM     29  C   UNL     1       2.598   3.730  18.428  0.00  0.00    +0.000 A 
BRANCH  25  31
ATOM     30  C   UNL     1       2.082   3.192  21.713  0.00  0.00    +0.000 C 
ATOM     31  C   UNL     1       1.345   2.784  20.445  0.00  0.00    +0.000 C 
ENDBRANCH  25  31
ENDBRANCH  21  29
ENDBRANCH   1  22
TORSDOF 9
ENDMDL
MODEL 3
REMARK VINA RESULT:      -6.8      2.924      4.254
REMARK  Name = 
REMARK  10 active torsions:
REMARK  status: ('A' for Active; 'I' for Inactive)
REMARK    1  A    between atoms: C_1  and  C_2
REMARK    2  A    between atoms: C_2  and  N_3
REMARK    3  A    between atoms: C_7  and  N_8
REMARK    4  A    between atoms: C_9  and  C_11
REMARK    5  A    between atoms: C_14  and  C_15
REMARK    6  A    between atoms: C_17  and  C_18
REMARK    7  A    between atoms: C_18  and  O_19
REMARK    8  A    between atoms: C_20  and  O_21
REMARK    9  A    between atoms: C_22  and  O_23
REMARK   10  A    between atoms: C_24  and  O_25
REMARK                            x       y       z     vdW  Elec       q    Type
REMARK                         _______ _______ _______ _____ _____    ______ ____
ROOT
ATOM      1  C   UNL     1       2.638   7.457  18.590  0.00  0.00    +0.000 A 
ATOM      2  C   UNL     1       2.126   7.324  19.870  0.00  0.00    +0.000 A 
ATOM      3  S   UNL     1       1.189   8.690  20.279  0.00  0.00    +0.000 S 
ATOM      4  C   UNL     1       1.502   9.361  18.725  0.00  0.00    +0.000 A 
ATOM      5  N   UNL     1       2.241   8.612  17.915  0.00  0.00    +0.000 NA
ENDROOT
BRANCH   4   6
ATOM      6  C   UNL     1       0.951  10.729  18.394  0.00  0.00    +0.000 C 
ATOM      7  O   UNL     1       1.440  11.609  19.418  0.00  0.00    +0.000 OA
ATOM      8  C   UNL     1       0.997  12.965  19.249  0.00  0.00    +0.000 C 
ATOM      9  C   UNL     1      -0.534  12.998  19.395  0.00  0.00    +0.000 C 
ATOM     10  C   UNL     1      -1.151  12.115  18.298  0.00  0.00    +0.000 C 
ATOM     11  C   UNL     1      -0.588  10.683  18.357  0.00  0.00    +0.000 C 
BRANCH   9  12
ATOM     12  O   UNL     1      -0.936  12.480  20.678  0.00  0.00    +0.000 OA
ATOM     13  H   UNL     1      -1.833  12.107  20.577  0.00  0.00    +0.000 HD
ENDBRANCH   9  12
BRANCH  10  14
ATOM     14  O   UNL     1      -2.574  12.081  18.430  0.00  0.00    +0.000 OA
ATOM     15  H   UNL     1      -2.946  12.221  17.537  0.00  0.00    +0.000 HD
ENDBRANCH  10  14
BRANCH  11  16
ATOM     16  O   UNL     1      -1.036   9.891  17.248  0.00  0.00    +0.000 OA
ATOM     17  H   UNL     1      -0.421   9.150  17.110  0.00  0.00    +0.000 HD
ENDBRANCH  11  16
BRANCH   8  18
ATOM     18  C   UNL     1       1.727  13.821  20.288  0.00  0.00    +0.000 C 
BRANCH  18  19
ATOM     19  O   UNL     1       1.558  13.303  21.598  0.00  0.00    +0.000 OA
ATOM     20  H   UNL     1       0.814  13.779  22.009  0.00  0.00    +0.000 HD
ENDBRANCH  18  19
ENDBRANCH   8  18
ENDBRANCH   4   6
BRANCH   1  22
ATOM     21  N   UNL     1       4.453   7.112  17.097  0.00  0.00    +0.000 N 
ATOM     22  C   UNL     1       3.540   6.476  18.005  0.00  0.00    +0.000 C 
ATOM     23  O   UNL     1       3.519   5.272  18.220  0.00  0.00    +0.000 OA
ATOM     24  H   UNL     1       4.332   8.110  16.945  0.00  0.00    +0.000 HD
BRANCH  21  29
ATOM     25  N   UNL     1       6.778   6.241  16.784  0.00  0.00    +0.000 N 
ATOM     26  N   UNL     1       7.457   5.448  15.923  0.00  0.00    +0.000 NA
ATOM     27  C   UNL     1       6.551   5.104  15.012  0.00  0.00    +0.000 A 
ATOM     28  C   UNL     1       5.294   5.667  15.279  0.00  0.00    +0.000 A 
ATOM     29  C   UNL     1       5.451   6.397  16.442  0.00  0.00    +0.000 A 
BRANCH  25  31
ATOM     30  C   UNL     1       7.881   8.289  17.664  0.00  0.00    +0.000 C 
ATOM     31  C   UNL     1       7.516   6.829  17.884  0.00  0.00    +0.000 C 
ENDBRANCH  25  31
ENDBRANCH  21  29
ENDBRANCH   1  22
TORSDOF 9
ENDMDL
MODEL 4
REMARK VINA RESULT:      -6.7      3.311      8.856
REMARK  Name = 
REMARK  10 active torsions:
REMARK  status: ('A' for Active; 'I' for Inactive)
REMARK    1  A    between atoms: C_1  and  C_2
REMARK    2  A    between atoms: C_2  and  N_3
REMARK    3  A    between atoms: C_7  and  N_8
REMARK    4  A    between atoms: C_9  and  C_11
REMARK    5  A    between atoms: C_14  and  C_15
REMARK    6  A    between atoms: C_17  and  C_18
REMARK    7  A    between atoms: C_18  and  O_19
REMARK    8  A    between atoms: C_20  and  O_21
REMARK    9  A    between atoms: C_22  and  O_23
REMARK   10  A    between atoms: C_24  and  O_25
REMARK                            x       y       z     vdW  Elec       q    Type
REMARK                         _______ _______ _______ _____ _____    ______ ____
ROOT
ATOM      1  C   UNL     1       2.269   7.758  18.839  0.00  0.00    +0.000 A 
ATOM      2  C   UNL     1       1.722   7.054  19.898  0.00  0.00    +0.000 A 
ATOM      3  S   UNL     1       2.581   5.601  20.152  0.00  0.00    +0.000 S 
ATOM      4  C   UNL     1       3.638   6.008  18.856  0.00  0.00    +0.000 A 
ATOM      5  N   UNL     1       3.401   7.175  18.268  0.00  0.00    +0.000 NA
ENDROOT
BRANCH   4   6
ATOM      6  C   UNL     1       4.727   5.035  18.466  0.00  0.00    +0.000 C 
ATOM      7  O   UNL     1       5.961   5.638  18.881  0.00  0.00    +0.000 OA
ATOM      8  C   UNL     1       7.109   4.830  18.575  0.00  0.00    +0.000 C 
ATOM      9  C   UNL     1       7.223   4.705  17.046  0.00  0.00    +0.000 C 
ATOM     10  C   UNL     1       5.953   4.018  16.515  0.00  0.00    +0.000 C 
ATOM     11  C   UNL     1       4.687   4.780  16.948  0.00  0.00    +0.000 C 
BRANCH   9  12
ATOM     12  O   UNL     1       7.328   6.005  16.433  0.00  0.00    +0.000 OA
ATOM     13  H   UNL     1       7.857   6.569  17.029  0.00  0.00    +0.000 HD
ENDBRANCH   9  12
BRANCH  10  14
ATOM     14  O   UNL     1       5.999   3.926  15.089  0.00  0.00    +0.000 OA
ATOM     15  H   UNL     1       5.949   2.976  14.863  0.00  0.00    +0.000 HD
ENDBRANCH  10  14
BRANCH  11  16
ATOM     16  O   UNL     1       3.493   4.069  16.593  0.00  0.00    +0.000 OA
ATOM     17  H   UNL     1       3.267   3.443  17.302  0.00  0.00    +0.000 HD
ENDBRANCH  11  16
BRANCH   8  18
ATOM     18  C   UNL     1       8.327   5.496  19.223  0.00  0.00    +0.000 C 
BRANCH  18  19
ATOM     19  O   UNL     1       8.265   5.424  20.638  0.00  0.00    +0.000 OA
ATOM     20  H   UNL     1       9.121   5.080  20.953  0.00  0.00    +0.000 HD
ENDBRANCH  18  19
ENDBRANCH   8  18
ENDBRANCH   4   6
BRANCH   1  22
ATOM     21  N   UNL     1       0.649   9.451  19.222  0.00  0.00    +0.000 N 
ATOM     22  C   UNL     1       1.692   8.999  18.345  0.00  0.00    +0.000 C 
ATOM     23  O   UNL     1       2.014   9.574  17.315  0.00  0.00    +0.000 OA
ATOM     24  H   UNL     1       0.420   8.855  20.013  0.00  0.00    +0.000 HD
BRANCH  21  29
ATOM     25  N   UNL     1      -1.099  10.892  18.157  0.00  0.00    +0.000 N 
ATOM     26  N   UNL     1      -1.528  12.174  18.212  0.00  0.00    +0.000 NA
ATOM     27  C   UNL     1      -0.714  12.754  19.089  0.00  0.00    +0.000 A 
ATOM     28  C   UNL     1       0.235  11.857  19.602  0.00  0.00    +0.000 A 
ATOM     29  C   UNL     1      -0.032  10.644  18.996  0.00  0.00    +0.000 A 
BRANCH  25  31
ATOM     30  C   UNL     1      -2.632  10.713  16.207  0.00  0.00    +0.000 C 
ATOM     31  C   UNL     1      -1.766   9.997  17.233  0.00  0.00    +0.000 C 
ENDBRANCH  25  31
ENDBRANCH  21  29
ENDBRANCH   1  22
TORSDOF 9
ENDMDL
MODEL 5
REMARK VINA RESULT:      -6.6      2.939      4.228
REMARK  Name = 
REMARK  10 active torsions:
REMARK  status: ('A' for Active; 'I' for Inactive)
REMARK    1  A    between atoms: C_1  and  C_2
REMARK    2  A    between atoms: C_2  and  N_3
REMARK    3  A    between atoms: C_7  and  N_8
REMARK    4  A    between atoms: C_9  and  C_11
REMARK    5  A    between atoms: C_14  and  C_15
REMARK    6  A    between atoms: C_17  and  C_18
REMARK    7  A    between atoms: C_18  and  O_19
REMARK    8  A    between atoms: C_20  and  O_21
REMARK    9  A    between atoms: C_22  and  O_23
REMARK   10  A    between atoms: C_24  and  O_25
REMARK                            x       y       z     vdW  Elec       q    Type
REMARK                         _______ _______ _______ _____ _____    ______ ____
ROOT
ATOM      1  C   UNL     1       2.820   6.264  18.895  0.00  0.00    +0.000 A 
ATOM      2  C   UNL     1       2.087   5.725  19.939  0.00  0.00    +0.000 A 
ATOM      3  S   UNL     1       1.237   6.953  20.764  0.00  0.00    +0.000 S 
ATOM      4  C   UNL     1       1.876   8.120  19.672  0.00  0.00    +0.000 A 
ATOM      5  N   UNL     1       2.662   7.639  18.715  0.00  0.00    +0.000 NA
ENDROOT
BRANCH   4   6
ATOM      6  C   UNL     1       1.530   9.577  19.873  0.00  0.00    +0.000 C 
ATOM      7  O   UNL     1       0.636   9.618  20.994  0.00  0.00    +0.000 OA
ATOM      8  C   UNL     1       0.203  10.950  21.317  0.00  0.00    +0.000 C 
ATOM      9  C   UNL     1      -0.616  11.495  20.135  0.00  0.00    +0.000 C 
ATOM     10  C   UNL     1       0.285  11.535  18.890  0.00  0.00    +0.000 C 
ATOM     11  C   UNL     1       0.885  10.147  18.596  0.00  0.00    +0.000 C 
BRANCH   9  12
ATOM     12  O   UNL     1      -1.742  10.641  19.857  0.00  0.00    +0.000 OA
ATOM     13  H   UNL     1      -2.309  11.103  19.210  0.00  0.00    +0.000 HD
ENDBRANCH   9  12
BRANCH  10  14
ATOM     14  O   UNL     1      -0.455  11.992  17.756  0.00  0.00    +0.000 OA
ATOM     15  H   UNL     1       0.184  12.104  17.025  0.00  0.00    +0.000 HD
ENDBRANCH  10  14
BRANCH  11  16
ATOM     16  O   UNL     1       1.847  10.201  17.533  0.00  0.00    +0.000 OA
ATOM     17  H   UNL     1       2.678   9.788  17.827  0.00  0.00    +0.000 HD
ENDBRANCH  11  16
BRANCH   8  18
ATOM     18  C   UNL     1      -0.591  10.872  22.625  0.00  0.00    +0.000 C 
BRANCH  18  19
ATOM     19  O   UNL     1       0.083  10.087  23.595  0.00  0.00    +0.000 OA
ATOM     20  H   UNL     1      -0.503   9.346  23.832  0.00  0.00    +0.000 HD
ENDBRANCH  18  19
ENDBRANCH   8  18
ENDBRANCH   4   6
BRANCH   1  22
ATOM     21  N   UNL     1       4.564   6.303  17.284  0.00  0.00    +0.000 N 
ATOM     22  C   UNL     1       3.704   5.460  18.066  0.00  0.00    +0.000 C 
ATOM     23  O   UNL     1       3.709   4.239  18.006  0.00  0.00    +0.000 OA
ATOM     24  H   UNL     1       4.424   7.307  17.365  0.00  0.00    +0.000 HD
BRANCH  21  29
ATOM     25  N   UNL     1       6.865   5.505  16.705  0.00  0.00    +0.000 N 
ATOM     26  N   UNL     1       7.515   4.966  15.649  0.00  0.00    +0.000 NA
ATOM     27  C   UNL     1       6.592   4.904  14.693  0.00  0.00    +0.000 A 
ATOM     28  C   UNL     1       5.352   5.397  15.125  0.00  0.00    +0.000 A 
ATOM     29  C   UNL     1       5.538   5.776  16.441  0.00  0.00    +0.000 A 
BRANCH  25  31
ATOM     30  C   UNL     1       7.918   7.226  18.159  0.00  0.00    +0.000 C 
ATOM     31  C   UNL     1       7.628   5.752  17.912  0.00  0.00    +0.000 C 
ENDBRANCH  25  31
ENDBRANCH  21  29
ENDBRANCH   1  22
TORSDOF 9
ENDMDL
MODEL 6
REMARK VINA RESULT:      -6.6      2.767      8.737
REMARK  Name = 
REMARK  10 active torsions:
REMARK  status: ('A' for Active; 'I' for Inactive)
REMARK    1  A    between atoms: C_1  and  C_2
REMARK    2  A    between atoms: C_2  and  N_3
REMARK    3  A    between atoms: C_7  and  N_8
REMARK    4  A    between atoms: C_9  and  C_11
REMARK    5  A    between atoms: C_14  and  C_15
REMARK    6  A    between atoms: C_17  and  C_18
REMARK    7  A    between atoms: C_18  and  O_19
REMARK    8  A    between atoms: C_20  and  O_21
REMARK    9  A    between atoms: C_22  and  O_23
REMARK   10  A    between atoms: C_24  and  O_25
REMARK                            x       y       z     vdW  Elec       q    Type
REMARK                         _______ _______ _______ _____ _____    ______ ____
ROOT
ATOM      1  C   UNL     1       1.619   8.387  19.383  0.00  0.00    +0.000 A 
ATOM      2  C   UNL     1       1.605   7.657  20.560  0.00  0.00    +0.000 A 
ATOM      3  S   UNL     1       2.253   6.100  20.299  0.00  0.00    +0.000 S 
ATOM      4  C   UNL     1       2.532   6.500  18.648  0.00  0.00    +0.000 A 
ATOM      5  N   UNL     1       2.193   7.733  18.292  0.00  0.00    +0.000 NA
ENDROOT
BRANCH   4   6
ATOM      6  C   UNL     1       3.108   5.448  17.728  0.00  0.00    +0.000 C 
ATOM      7  O   UNL     1       2.975   4.200  18.424  0.00  0.00    +0.000 OA
ATOM      8  C   UNL     1       3.487   3.085  17.677  0.00  0.00    +0.000 C 
ATOM      9  C   UNL     1       5.002   3.277  17.493  0.00  0.00    +0.000 C 
ATOM     10  C   UNL     1       5.239   4.577  16.706  0.00  0.00    +0.000 C 
ATOM     11  C   UNL     1       4.578   5.778  17.406  0.00  0.00    +0.000 C 
BRANCH   9  12
ATOM     12  O   UNL     1       5.662   3.389  18.769  0.00  0.00    +0.000 OA
ATOM     13  H   UNL     1       6.470   2.843  18.731  0.00  0.00    +0.000 HD
ENDBRANCH   9  12
BRANCH  10  14
ATOM     14  O   UNL     1       6.641   4.816  16.555  0.00  0.00    +0.000 OA
ATOM     15  H   UNL     1       6.808   4.934  15.599  0.00  0.00    +0.000 HD
ENDBRANCH  10  14
BRANCH  11  16
ATOM     16  O   UNL     1       4.658   6.967  16.607  0.00  0.00    +0.000 OA
ATOM     17  H   UNL     1       5.429   7.492  16.885  0.00  0.00    +0.000 HD
ENDBRANCH  11  16
BRANCH   8  18
ATOM     18  C   UNL     1       3.123   1.810  18.444  0.00  0.00    +0.000 C 
BRANCH  18  19
ATOM     19  O   UNL     1       4.179   0.865  18.409  0.00  0.00    +0.000 OA
ATOM     20  H   UNL     1       4.409   0.645  19.331  0.00  0.00    +0.000 HD
ENDBRANCH  18  19
ENDBRANCH   8  18
ENDBRANCH   4   6
BRANCH   1  22
ATOM     21  N   UNL     1      -0.180   9.802  20.018  0.00  0.00    +0.000 N 
ATOM     22  C   UNL     1       1.053   9.724  19.288  0.00  0.00    +0.000 C 
ATOM     23  O   UNL     1       1.531  10.656  18.655  0.00  0.00    +0.000 OA
ATOM     24  H   UNL     1      -0.515   8.944  20.449  0.00  0.00    +0.000 HD
BRANCH  21  29
ATOM     25  N   UNL     1      -1.706  11.604  19.188  0.00  0.00    +0.000 N 
ATOM     26  N   UNL     1      -2.271  12.745  19.646  0.00  0.00    +0.000 NA
ATOM     27  C   UNL     1      -1.805  12.866  20.886  0.00  0.00    +0.000 A 
ATOM     28  C   UNL     1      -0.946  11.813  21.232  0.00  0.00    +0.000 A 
ATOM     29  C   UNL     1      -0.897  10.990  20.123  0.00  0.00    +0.000 A 
BRANCH  25  31
ATOM     30  C   UNL     1      -2.827   9.954  17.704  0.00  0.00    +0.000 C 
ATOM     31  C   UNL     1      -1.984  11.215  17.820  0.00  0.00    +0.000 C 
ENDBRANCH  25  31
ENDBRANCH  21  29
ENDBRANCH   1  22
TORSDOF 9
ENDMDL
MODEL 7
REMARK VINA RESULT:      -6.5      3.142      8.475
REMARK  Name = 
REMARK  10 active torsions:
REMARK  status: ('A' for Active; 'I' for Inactive)
REMARK    1  A    between atoms: C_1  and  C_2
REMARK    2  A    between atoms: C_2  and  N_3
REMARK    3  A    between atoms: C_7  and  N_8
REMARK    4  A    between atoms: C_9  and  C_11
REMARK    5  A    between atoms: C_14  and  C_15
REMARK    6  A    between atoms: C_17  and  C_18
REMARK    7  A    between atoms: C_18  and  O_19
REMARK    8  A    between atoms: C_20  and  O_21
REMARK    9  A    between atoms: C_22  and  O_23
REMARK   10  A    between atoms: C_24  and  O_25
REMARK                            x       y       z     vdW  Elec       q    Type
REMARK                         _______ _______ _______ _____ _____    ______ ____
ROOT
ATOM      1  C   UNL     1       1.895   7.190  20.223  0.00  0.00    +0.000 A 
ATOM      2  C   UNL     1       1.310   6.102  20.848  0.00  0.00    +0.000 A 
ATOM      3  S   UNL     1       2.173   4.675  20.486  0.00  0.00    +0.000 S 
ATOM      4  C   UNL     1       3.282   5.593  19.542  0.00  0.00    +0.000 A 
ATOM      5  N   UNL     1       3.057   6.901  19.506  0.00  0.00    +0.000 NA
ENDROOT
BRANCH   4   6
ATOM      6  C   UNL     1       4.397   4.875  18.818  0.00  0.00    +0.000 C 
ATOM      7  O   UNL     1       5.600   5.585  19.146  0.00  0.00    +0.000 OA
ATOM      8  C   UNL     1       6.768   5.024  18.525  0.00  0.00    +0.000 C 
ATOM      9  C   UNL     1       6.625   5.168  17.000  0.00  0.00    +0.000 C 
ATOM     10  C   UNL     1       5.378   4.389  16.549  0.00  0.00    +0.000 C 
ATOM     11  C   UNL     1       4.123   4.867  17.303  0.00  0.00    +0.000 C 
BRANCH   9  12
ATOM     12  O   UNL     1       6.458   6.550  16.630  0.00  0.00    +0.000 OA
ATOM     13  H   UNL     1       6.428   6.592  15.655  0.00  0.00    +0.000 HD
ENDBRANCH   9  12
BRANCH  10  14
ATOM     14  O   UNL     1       5.183   4.538  15.141  0.00  0.00    +0.000 OA
ATOM     15  H   UNL     1       6.057   4.427  14.719  0.00  0.00    +0.000 HD
ENDBRANCH  10  14
BRANCH  11  16
ATOM     16  O   UNL     1       2.983   4.048  17.006  0.00  0.00    +0.000 OA
ATOM     17  H   UNL     1       2.569   4.356  16.181  0.00  0.00    +0.000 HD
ENDBRANCH  11  16
BRANCH   8  18
ATOM     18  C   UNL     1       7.989   5.754  19.093  0.00  0.00    +0.000 C 
BRANCH  18  19
ATOM     19  O   UNL     1       8.138   5.511  20.482  0.00  0.00    +0.000 OA
ATOM     20  H   UNL     1       7.850   4.596  20.653  0.00  0.00    +0.000 HD
ENDBRANCH  18  19
ENDBRANCH   8  18
ENDBRANCH   4   6
BRANCH   1  22
ATOM     21  N   UNL     1       1.409   9.174  19.010  0.00  0.00    +0.000 N 
ATOM     22  C   UNL     1       1.325   8.527  20.289  0.00  0.00    +0.000 C 
ATOM     23  O   UNL     1       0.864   9.055  21.292  0.00  0.00    +0.000 OA
ATOM     24  H   UNL     1       1.876   8.663  18.265  0.00  0.00    +0.000 HD
BRANCH  21  29
ATOM     25  N   UNL     1      -0.394  10.818  18.453  0.00  0.00    +0.000 N 
ATOM     26  N   UNL     1      -0.550  12.158  18.357  0.00  0.00    +0.000 NA
ATOM     27  C   UNL     1       0.655  12.648  18.631  0.00  0.00    +0.000 A 
ATOM     28  C   UNL     1       1.586  11.636  18.906  0.00  0.00    +0.000 A 
ATOM     29  C   UNL     1       0.889  10.447  18.798  0.00  0.00    +0.000 A 
BRANCH  25  31
ATOM     30  C   UNL     1      -2.251  10.358  16.864  0.00  0.00    +0.000 C 
ATOM     31  C   UNL     1      -1.541   9.982  18.156  0.00  0.00    +0.000 C 
ENDBRANCH  25  31
ENDBRANCH  21  29
ENDBRANCH   1  22
TORSDOF 9
ENDMDL
MODEL 8
REMARK VINA RESULT:      -6.5      2.852      8.636
REMARK  Name = 
REMARK  10 active torsions:
REMARK  status: ('A' for Active; 'I' for Inactive)
REMARK    1  A    between atoms: C_1  and  C_2
REMARK    2  A    between atoms: C_2  and  N_3
REMARK    3  A    between atoms: C_7  and  N_8
REMARK    4  A    between atoms: C_9  and  C_11
REMARK    5  A    between atoms: C_14  and  C_15
REMARK    6  A    between atoms: C_17  and  C_18
REMARK    7  A    between atoms: C_18  and  O_19
REMARK    8  A    between atoms: C_20  and  O_21
REMARK    9  A    between atoms: C_22  and  O_23
REMARK   10  A    between atoms: C_24  and  O_25
REMARK                            x       y       z     vdW  Elec       q    Type
REMARK                         _______ _______ _______ _____ _____    ______ ____
ROOT
ATOM      1  C   UNL     1       1.549   8.222  20.125  0.00  0.00    +0.000 A 
ATOM      2  C   UNL     1       1.303   7.295  21.124  0.00  0.00    +0.000 A 
ATOM      3  S   UNL     1       1.798   5.740  20.625  0.00  0.00    +0.000 S 
ATOM      4  C   UNL     1       2.328   6.397  19.125  0.00  0.00    +0.000 A 
ATOM      5  N   UNL     1       2.180   7.709  18.990  0.00  0.00    +0.000 NA
ENDROOT
BRANCH   4   6
ATOM      6  C   UNL     1       2.894   5.466  18.077  0.00  0.00    +0.000 C 
ATOM      7  O   UNL     1       2.796   4.145  18.631  0.00  0.00    +0.000 OA
ATOM      8  C   UNL     1       3.303   3.130  17.749  0.00  0.00    +0.000 C 
ATOM      9  C   UNL     1       4.810   3.367  17.550  0.00  0.00    +0.000 C 
ATOM     10  C   UNL     1       5.008   4.751  16.909  0.00  0.00    +0.000 C 
ATOM     11  C   UNL     1       4.349   5.854  17.758  0.00  0.00    +0.000 C 
BRANCH   9  12
ATOM     12  O   UNL     1       5.502   3.345  18.813  0.00  0.00    +0.000 OA
ATOM     13  H   UNL     1       5.479   4.251  19.177  0.00  0.00    +0.000 HD
ENDBRANCH   9  12
BRANCH  10  14
ATOM     14  O   UNL     1       6.401   5.029  16.751  0.00  0.00    +0.000 OA
ATOM     15  H   UNL     1       6.610   4.905  15.804  0.00  0.00    +0.000 HD
ENDBRANCH  10  14
BRANCH  11  16
ATOM     16  O   UNL     1       4.392   7.127  17.096  0.00  0.00    +0.000 OA
ATOM     17  H   UNL     1       4.811   7.781  17.681  0.00  0.00    +0.000 HD
ENDBRANCH  11  16
BRANCH   8  18
ATOM     18  C   UNL     1       2.978   1.771  18.377  0.00  0.00    +0.000 C 
BRANCH  18  19
ATOM     19  O   UNL     1       4.023   0.836  18.160  0.00  0.00    +0.000 OA
ATOM     20  H   UNL     1       4.012   0.205  18.902  0.00  0.00    +0.000 HD
ENDBRANCH  18  19
ENDBRANCH   8  18
ENDBRANCH   4   6
BRANCH   1  22
ATOM     21  N   UNL     1       1.141  10.246  18.951  0.00  0.00    +0.000 N 
ATOM     22  C   UNL     1       1.156   9.617  20.242  0.00  0.00    +0.000 C 
ATOM     23  O   UNL     1       0.901  10.200  21.287  0.00  0.00    +0.000 OA
ATOM     24  H   UNL     1       1.438   9.680  18.160  0.00  0.00    +0.000 HD
BRANCH  21  29
ATOM     25  N   UNL     1      -0.518  12.097  18.659  0.00  0.00    +0.000 N 
ATOM     26  N   UNL     1      -0.523  13.444  18.541  0.00  0.00    +0.000 NA
ATOM     27  C   UNL     1       0.763  13.781  18.580  0.00  0.00    +0.000 A 
ATOM     28  C   UNL     1       1.597  12.663  18.724  0.00  0.00    +0.000 A 
ATOM     29  C   UNL     1       0.752  11.571  18.785  0.00  0.00    +0.000 A 
BRANCH  25  31
ATOM     30  C   UNL     1      -2.184  10.967  17.199  0.00  0.00    +0.000 C 
ATOM     31  C   UNL     1      -1.793  11.410  18.601  0.00  0.00    +0.000 C 
ENDBRANCH  25  31
ENDBRANCH  21  29
ENDBRANCH   1  22
TORSDOF 9
ENDMDL
MODEL 9
REMARK VINA RESULT:      -6.5      2.939      7.971
REMARK  Name = 
REMARK  10 active torsions:
REMARK  status: ('A' for Active; 'I' for Inactive)
REMARK    1  A    between atoms: C_1  and  C_2
REMARK    2  A    between atoms: C_2  and  N_3
REMARK    3  A    between atoms: C_7  and  N_8
REMARK    4  A    between atoms: C_9  and  C_11
REMARK    5  A    between atoms: C_14  and  C_15
REMARK    6  A    between atoms: C_17  and  C_18
REMARK    7  A    between atoms: C_18  and  O_19
REMARK    8  A    between atoms: C_20  and  O_21
REMARK    9  A    between atoms: C_22  and  O_23
REMARK   10  A    between atoms: C_24  and  O_25
REMARK                            x       y       z     vdW  Elec       q    Type
REMARK                         _______ _______ _______ _____ _____    ______ ____
ROOT
ATOM      1  C   UNL     1       3.124   7.612  17.732  0.00  0.00    +0.000 A 
ATOM      2  C   UNL     1       4.332   7.666  17.057  0.00  0.00    +0.000 A 
ATOM      3  S   UNL     1       5.022   6.109  16.951  0.00  0.00    +0.000 S 
ATOM      4  C   UNL     1       3.665   5.458  17.787  0.00  0.00    +0.000 A 
ATOM      5  N   UNL     1       2.720   6.332  18.114  0.00  0.00    +0.000 NA
ENDROOT
BRANCH   4   6
ATOM      6  C   UNL     1       3.642   3.981  18.106  0.00  0.00    +0.000 C 
ATOM      7  O   UNL     1       2.275   3.667  18.414  0.00  0.00    +0.000 OA
ATOM      8  C   UNL     1       2.081   2.283  18.748  0.00  0.00    +0.000 C 
ATOM      9  C   UNL     1       2.859   1.981  20.040  0.00  0.00    +0.000 C 
ATOM     10  C   UNL     1       4.353   2.244  19.786  0.00  0.00    +0.000 C 
ATOM     11  C   UNL     1       4.585   3.682  19.286  0.00  0.00    +0.000 C 
BRANCH   9  12
ATOM     12  O   UNL     1       2.421   2.836  21.113  0.00  0.00    +0.000 OA
ATOM     13  H   UNL     1       2.454   3.756  20.788  0.00  0.00    +0.000 HD
ENDBRANCH   9  12
BRANCH  10  14
ATOM     14  O   UNL     1       5.106   2.019  20.980  0.00  0.00    +0.000 OA
ATOM     15  H   UNL     1       5.928   1.560  20.717  0.00  0.00    +0.000 HD
ENDBRANCH  10  14
BRANCH  11  16
ATOM     16  O   UNL     1       5.950   3.893  18.898  0.00  0.00    +0.000 OA
ATOM     17  H   UNL     1       6.207   3.224  18.240  0.00  0.00    +0.000 HD
ENDBRANCH  11  16
BRANCH   8  18
ATOM     18  C   UNL     1       0.573   2.047  18.876  0.00  0.00    +0.000 C 
BRANCH  18  19
ATOM     19  O   UNL     1      -0.008   2.916  19.834  0.00  0.00    +0.000 OA
ATOM     20  H   UNL     1      -0.408   2.362  20.530  0.00  0.00    +0.000 HD
ENDBRANCH  18  19
ENDBRANCH   8  18
ENDBRANCH   4   6
BRANCH   1  22
ATOM     21  N   UNL     1       1.410   8.536  19.092  0.00  0.00    +0.000 N 
ATOM     22  C   UNL     1       2.349   8.804  18.040  0.00  0.00    +0.000 C 
ATOM     23  O   UNL     1       2.447   9.884  17.473  0.00  0.00    +0.000 OA
ATOM     24  H   UNL     1       1.370   7.581  19.442  0.00  0.00    +0.000 HD
BRANCH  21  29
ATOM     25  N   UNL     1       0.406   9.928  20.914  0.00  0.00    +0.000 N 
ATOM     26  N   UNL     1      -0.469  10.951  21.043  0.00  0.00    +0.000 NA
ATOM     27  C   UNL     1      -0.870  11.198  19.799  0.00  0.00    +0.000 A 
ATOM     28  C   UNL     1      -0.258  10.345  18.869  0.00  0.00    +0.000 A 
ATOM     29  C   UNL     1       0.580   9.528  19.605  0.00  0.00    +0.000 A 
BRANCH  25  31
ATOM     30  C   UNL     1       0.067   9.449  23.331  0.00  0.00    +0.000 C 
ATOM     31  C   UNL     1       0.991   9.385  22.123  0.00  0.00    +0.000 C 
ENDBRANCH  25  31
ENDBRANCH  21  29
ENDBRANCH   1  22
TORSDOF 9
ENDMDL
