MODEL 1
REMARK VINA RESULT:      -7.4      0.000      0.000
REMARK  Name = 
REMARK  5 active torsions:
REMARK  status: ('A' for Active; 'I' for Inactive)
REMARK    1  A    between atoms: C_2  and  C_3
REMARK    2  A    between atoms: C_5  and  C_6
REMARK    3  A    between atoms: C_13  and  C_14
REMARK    4  A    between atoms: C_23  and  O_24
REMARK    5  A    between atoms: O_24  and  C_25
REMARK                            x       y       z     vdW  Elec       q    Type
REMARK                         _______ _______ _______ _____ _____    ______ ____
ROOT
ATOM      1  C   UNL     1       2.116   9.961  18.311  0.00  0.00    +0.000 A 
ATOM      2  C   UNL     1       3.074   9.099  17.768  0.00  0.00    +0.000 A 
ATOM      3  C   UNL     1       3.095   7.714  18.066  0.00  0.00    +0.000 A 
ATOM      4  C   UNL     1       2.109   7.261  18.973  0.00  0.00    +0.000 A 
ATOM      5  N   UNL     1       1.110   8.082  19.404  0.00  0.00    +0.000 NA
ATOM      6  C   UNL     1       1.135   9.400  19.104  0.00  0.00    +0.000 A 
ENDROOT
BRANCH   4   7
ATOM      7  C   UNL     1       2.010   5.912  19.599  0.00  0.00    +0.000 A 
ATOM      8  C   UNL     1       2.456   5.752  20.934  0.00  0.00    +0.000 A 
ATOM      9  C   UNL     1       2.407   4.517  21.593  0.00  0.00    +0.000 A 
ATOM     10  C   UNL     1       1.867   3.416  20.945  0.00  0.00    +0.000 A 
ATOM     11 CL   UNL     1       1.778   1.900  21.751  0.00  0.00    +0.000 Cl
ATOM     12  C   UNL     1       1.441   3.523  19.628  0.00  0.00    +0.000 A 
ATOM     13  C   UNL     1       1.574   4.741  18.944  0.00  0.00    +0.000 A 
ATOM     14 CL   UNL     1       1.297   4.661  17.233  0.00  0.00    +0.000 Cl
ENDBRANCH   4   7
BRANCH   3  15
ATOM     15  C   UNL     1       4.140   6.851  17.454  0.00  0.00    +0.000 A 
ATOM     16  C   UNL     1       4.804   5.868  18.218  0.00  0.00    +0.000 A 
ATOM     17  C   UNL     1       5.693   4.962  17.629  0.00  0.00    +0.000 A 
ATOM     18  C   UNL     1       5.923   5.011  16.261  0.00  0.00    +0.000 A 
ATOM     19 CL   UNL     1       6.952   3.848  15.523  0.00  0.00    +0.000 Cl
ATOM     20  C   UNL     1       5.315   5.991  15.486  0.00  0.00    +0.000 A 
ATOM     21  C   UNL     1       4.459   6.922  16.084  0.00  0.00    +0.000 A 
ENDBRANCH   3  15
BRANCH   1  23
ATOM     22  N   UNL     1       2.277  12.517  17.938  0.00  0.00    +0.000 NA
ATOM     23  C   UNL     1       2.192  11.374  18.082  0.00  0.00    +0.000 C 
ENDBRANCH   1  23
BRANCH   6  24
ATOM     24  O   UNL     1       0.127  10.220  19.606  0.00  0.00    +0.000 OA
BRANCH  24  25
ATOM     25  C   UNL     1      -0.964  10.462  18.798  0.00  0.00    +0.000 A 
ATOM     26  C   UNL     1      -1.140   9.830  17.559  0.00  0.00    +0.000 A 
ATOM     27  C   UNL     1      -2.237  10.141  16.758  0.00  0.00    +0.000 A 
ATOM     28  C   UNL     1      -3.186  11.041  17.225  0.00  0.00    +0.000 A 
ATOM     29  F   UNL     1      -4.238  11.342  16.452  0.00  0.00    +0.000 F 
ATOM     30  C   UNL     1      -3.048  11.620  18.482  0.00  0.00    +0.000 A 
ATOM     31  F   UNL     1      -3.984  12.467  18.935  0.00  0.00    +0.000 F 
ATOM     32  C   UNL     1      -1.942  11.336  19.279  0.00  0.00    +0.000 A 
ENDBRANCH  24  25
ENDBRANCH   6  24
TORSDOF 5
ENDMDL
MODEL 2
REMARK VINA RESULT:      -7.4      0.529      1.203
REMARK  Name = 
REMARK  5 active torsions:
REMARK  status: ('A' for Active; 'I' for Inactive)
REMARK    1  A    between atoms: C_2  and  C_3
REMARK    2  A    between atoms: C_5  and  C_6
REMARK    3  A    between atoms: C_13  and  C_14
REMARK    4  A    between atoms: C_23  and  O_24
REMARK    5  A    between atoms: O_24  and  C_25
REMARK                            x       y       z     vdW  Elec       q    Type
REMARK                         _______ _______ _______ _____ _____    ______ ____
ROOT
ATOM      1  C   UNL     1       2.158   9.901  18.340  0.00  0.00    +0.000 A 
ATOM      2  C   UNL     1       3.082   9.022  17.766  0.00  0.00    +0.000 A 
ATOM      3  C   UNL     1       3.086   7.636  18.062  0.00  0.00    +0.000 A 
ATOM      4  C   UNL     1       2.120   7.201  19.000  0.00  0.00    +0.000 A 
ATOM      5  N   UNL     1       1.152   8.039  19.462  0.00  0.00    +0.000 NA
ATOM      6  C   UNL     1       1.192   9.358  19.163  0.00  0.00    +0.000 A 
ENDROOT
BRANCH   4   7
ATOM      7  C   UNL     1       2.016   5.853  19.627  0.00  0.00    +0.000 A 
ATOM      8  C   UNL     1       2.483   5.687  20.954  0.00  0.00    +0.000 A 
ATOM      9  C   UNL     1       2.430   4.453  21.614  0.00  0.00    +0.000 A 
ATOM     10  C   UNL     1       1.866   3.359  20.975  0.00  0.00    +0.000 A 
ATOM     11 CL   UNL     1       1.773   1.843  21.782  0.00  0.00    +0.000 Cl
ATOM     12  C   UNL     1       1.419   3.471  19.665  0.00  0.00    +0.000 A 
ATOM     13  C   UNL     1       1.555   4.687  18.979  0.00  0.00    +0.000 A 
ATOM     14 CL   UNL     1       1.248   4.611  17.273  0.00  0.00    +0.000 Cl
ENDBRANCH   4   7
BRANCH   3  15
ATOM     15  C   UNL     1       4.094   6.755  17.416  0.00  0.00    +0.000 A 
ATOM     16  C   UNL     1       4.649   5.660  18.113  0.00  0.00    +0.000 A 
ATOM     17  C   UNL     1       5.498   4.746  17.480  0.00  0.00    +0.000 A 
ATOM     18  C   UNL     1       5.796   4.899  16.133  0.00  0.00    +0.000 A 
ATOM     19 CL   UNL     1       6.774   3.731  15.333  0.00  0.00    +0.000 Cl
ATOM     20  C   UNL     1       5.297   5.987  15.427  0.00  0.00    +0.000 A 
ATOM     21  C   UNL     1       4.483   6.923  16.073  0.00  0.00    +0.000 A 
ENDBRANCH   3  15
BRANCH   1  23
ATOM     22  N   UNL     1       2.302  12.457  17.962  0.00  0.00    +0.000 NA
ATOM     23  C   UNL     1       2.253  11.312  18.109  0.00  0.00    +0.000 C 
ENDBRANCH   1  23
BRANCH   6  24
ATOM     24  O   UNL     1       0.216  10.195  19.697  0.00  0.00    +0.000 OA
BRANCH  24  25
ATOM     25  C   UNL     1      -0.855  10.526  18.894  0.00  0.00    +0.000 A 
ATOM     26  C   UNL     1      -1.719  11.591  19.188  0.00  0.00    +0.000 A 
ATOM     27  C   UNL     1      -2.814  11.857  18.369  0.00  0.00    +0.000 A 
ATOM     28  C   UNL     1      -3.009  11.094  17.226  0.00  0.00    +0.000 A 
ATOM     29  F   UNL     1      -4.065  11.350  16.442  0.00  0.00    +0.000 F 
ATOM     30  C   UNL     1      -2.117  10.079  16.896  0.00  0.00    +0.000 A 
ATOM     31  F   UNL     1      -2.300   9.366  15.775  0.00  0.00    +0.000 F 
ATOM     32  C   UNL     1      -1.035   9.787  17.722  0.00  0.00    +0.000 A 
ENDBRANCH  24  25
ENDBRANCH   6  24
TORSDOF 5
ENDMDL
MODEL 3
REMARK VINA RESULT:      -7.3      5.196      7.866
REMARK  Name = 
REMARK  5 active torsions:
REMARK  status: ('A' for Active; 'I' for Inactive)
REMARK    1  A    between atoms: C_2  and  C_3
REMARK    2  A    between atoms: C_5  and  C_6
REMARK    3  A    between atoms: C_13  and  C_14
REMARK    4  A    between atoms: C_23  and  O_24
REMARK    5  A    between atoms: O_24  and  C_25
REMARK                            x       y       z     vdW  Elec       q    Type
REMARK                         _______ _______ _______ _____ _____    ______ ____
ROOT
ATOM      1  C   UNL     1       1.640  14.671  20.984  0.00  0.00    +0.000 A 
ATOM      2  C   UNL     1       1.674  13.274  21.035  0.00  0.00    +0.000 A 
ATOM      3  C   UNL     1       0.638  12.475  20.490  0.00  0.00    +0.000 A 
ATOM      4  C   UNL     1      -0.450  13.177  19.920  0.00  0.00    +0.000 A 
ATOM      5  N   UNL     1      -0.420  14.530  19.769  0.00  0.00    +0.000 NA
ATOM      6  C   UNL     1       0.583  15.255  20.315  0.00  0.00    +0.000 A 
ENDROOT
BRANCH   4   7
ATOM      7  C   UNL     1      -1.743  12.606  19.447  0.00  0.00    +0.000 A 
ATOM      8  C   UNL     1      -1.783  11.988  18.173  0.00  0.00    +0.000 A 
ATOM      9  C   UNL     1      -2.958  11.435  17.650  0.00  0.00    +0.000 A 
ATOM     10  C   UNL     1      -4.118  11.448  18.410  0.00  0.00    +0.000 A 
ATOM     11 CL   UNL     1      -5.562  10.750  17.790  0.00  0.00    +0.000 Cl
ATOM     12  C   UNL     1      -4.129  12.065  19.654  0.00  0.00    +0.000 A 
ATOM     13  C   UNL     1      -2.972  12.694  20.135  0.00  0.00    +0.000 A 
ATOM     14 CL   UNL     1      -3.200  13.684  21.542  0.00  0.00    +0.000 Cl
ENDBRANCH   4   7
BRANCH   3  15
ATOM     15  C   UNL     1       0.737  10.994  20.575  0.00  0.00    +0.000 A 
ATOM     16  C   UNL     1       0.948  10.216  19.417  0.00  0.00    +0.000 A 
ATOM     17  C   UNL     1       1.173   8.838  19.493  0.00  0.00    +0.000 A 
ATOM     18  C   UNL     1       1.207   8.211  20.732  0.00  0.00    +0.000 A 
ATOM     19 CL   UNL     1       1.565   6.532  20.834  0.00  0.00    +0.000 Cl
ATOM     20  C   UNL     1       0.965   8.941  21.890  0.00  0.00    +0.000 A 
ATOM     21  C   UNL     1       0.698  10.312  21.807  0.00  0.00    +0.000 A 
ENDBRANCH   3  15
BRANCH   1  23
ATOM     22  N   UNL     1       3.462  16.101  22.136  0.00  0.00    +0.000 NA
ATOM     23  C   UNL     1       2.644  15.450  21.645  0.00  0.00    +0.000 C 
ENDBRANCH   1  23
BRANCH   6  24
ATOM     24  O   UNL     1       0.553  16.642  20.187  0.00  0.00    +0.000 OA
BRANCH  24  25
ATOM     25  C   UNL     1       0.628  17.170  18.915  0.00  0.00    +0.000 A 
ATOM     26  C   UNL     1      -0.395  17.953  18.362  0.00  0.00    +0.000 A 
ATOM     27  C   UNL     1      -0.292  18.427  17.056  0.00  0.00    +0.000 A 
ATOM     28  C   UNL     1       0.860  18.166  16.327  0.00  0.00    +0.000 A 
ATOM     29  F   UNL     1       0.955  18.619  15.069  0.00  0.00    +0.000 F 
ATOM     30  C   UNL     1       1.905  17.445  16.896  0.00  0.00    +0.000 A 
ATOM     31  F   UNL     1       3.025  17.221  16.193  0.00  0.00    +0.000 F 
ATOM     32  C   UNL     1       1.801  16.944  18.191  0.00  0.00    +0.000 A 
ENDBRANCH  24  25
ENDBRANCH   6  24
TORSDOF 5
ENDMDL
MODEL 4
REMARK VINA RESULT:      -7.3      6.520      9.035
REMARK  Name = 
REMARK  5 active torsions:
REMARK  status: ('A' for Active; 'I' for Inactive)
REMARK    1  A    between atoms: C_2  and  C_3
REMARK    2  A    between atoms: C_5  and  C_6
REMARK    3  A    between atoms: C_13  and  C_14
REMARK    4  A    between atoms: C_23  and  O_24
REMARK    5  A    between atoms: O_24  and  C_25
REMARK                            x       y       z     vdW  Elec       q    Type
REMARK                         _______ _______ _______ _____ _____    ______ ____
ROOT
ATOM      1  C   UNL     1      -5.125  12.667  21.510  0.00  0.00    +0.000 A 
ATOM      2  C   UNL     1      -4.937  12.106  20.242  0.00  0.00    +0.000 A 
ATOM      3  C   UNL     1      -3.653  11.984  19.656  0.00  0.00    +0.000 A 
ATOM      4  C   UNL     1      -2.575  12.495  20.415  0.00  0.00    +0.000 A 
ATOM      5  N   UNL     1      -2.751  12.930  21.694  0.00  0.00    +0.000 NA
ATOM      6  C   UNL     1      -3.996  13.041  22.211  0.00  0.00    +0.000 A 
ENDROOT
BRANCH   4   7
ATOM      7  C   UNL     1      -1.162  12.665  19.974  0.00  0.00    +0.000 A 
ATOM      8  C   UNL     1      -0.837  13.777  19.159  0.00  0.00    +0.000 A 
ATOM      9  C   UNL     1       0.464  14.005  18.694  0.00  0.00    +0.000 A 
ATOM     10  C   UNL     1       1.486  13.147  19.070  0.00  0.00    +0.000 A 
ATOM     11 CL   UNL     1       3.093  13.430  18.526  0.00  0.00    +0.000 Cl
ATOM     12  C   UNL     1       1.208  12.031  19.848  0.00  0.00    +0.000 A 
ATOM     13  C   UNL     1      -0.112  11.759  20.238  0.00  0.00    +0.000 A 
ATOM     14 CL   UNL     1      -0.369  10.191  20.934  0.00  0.00    +0.000 Cl
ENDBRANCH   4   7
BRANCH   3  15
ATOM     15  C   UNL     1      -3.523  11.376  18.305  0.00  0.00    +0.000 A 
ATOM     16  C   UNL     1      -4.393  11.746  17.259  0.00  0.00    +0.000 A 
ATOM     17  C   UNL     1      -4.204  11.283  15.952  0.00  0.00    +0.000 A 
ATOM     18  C   UNL     1      -3.130  10.454  15.663  0.00  0.00    +0.000 A 
ATOM     19 CL   UNL     1      -2.848   9.950  14.043  0.00  0.00    +0.000 Cl
ATOM     20  C   UNL     1      -2.275  10.039  16.677  0.00  0.00    +0.000 A 
ATOM     21  C   UNL     1      -2.492  10.469  17.991  0.00  0.00    +0.000 A 
ENDBRANCH   3  15
BRANCH   1  23
ATOM     22  N   UNL     1      -7.525  13.020  22.411  0.00  0.00    +0.000 NA
ATOM     23  C   UNL     1      -6.445  12.881  22.026  0.00  0.00    +0.000 C 
ENDBRANCH   1  23
BRANCH   6  24
ATOM     24  O   UNL     1      -4.142  13.540  23.503  0.00  0.00    +0.000 OA
BRANCH  24  25
ATOM     25  C   UNL     1      -3.633  14.795  23.767  0.00  0.00    +0.000 A 
ATOM     26  C   UNL     1      -3.843  15.888  22.915  0.00  0.00    +0.000 A 
ATOM     27  C   UNL     1      -3.270  17.126  23.203  0.00  0.00    +0.000 A 
ATOM     28  C   UNL     1      -2.538  17.281  24.372  0.00  0.00    +0.000 A 
ATOM     29  F   UNL     1      -1.985  18.471  24.644  0.00  0.00    +0.000 F 
ATOM     30  C   UNL     1      -2.384  16.214  25.252  0.00  0.00    +0.000 A 
ATOM     31  F   UNL     1      -1.697  16.382  26.392  0.00  0.00    +0.000 F 
ATOM     32  C   UNL     1      -2.929  14.967  24.961  0.00  0.00    +0.000 A 
ENDBRANCH  24  25
ENDBRANCH   6  24
TORSDOF 5
ENDMDL
MODEL 5
REMARK VINA RESULT:      -7.2      6.538      9.023
REMARK  Name = 
REMARK  5 active torsions:
REMARK  status: ('A' for Active; 'I' for Inactive)
REMARK    1  A    between atoms: C_2  and  C_3
REMARK    2  A    between atoms: C_5  and  C_6
REMARK    3  A    between atoms: C_13  and  C_14
REMARK    4  A    between atoms: C_23  and  O_24
REMARK    5  A    between atoms: O_24  and  C_25
REMARK                            x       y       z     vdW  Elec       q    Type
REMARK                         _______ _______ _______ _____ _____    ______ ____
ROOT
ATOM      1  C   UNL     1      -5.435  12.496  21.247  0.00  0.00    +0.000 A 
ATOM      2  C   UNL     1      -5.112  12.078  19.952  0.00  0.00    +0.000 A 
ATOM      3  C   UNL     1      -3.775  12.038  19.486  0.00  0.00    +0.000 A 
ATOM      4  C   UNL     1      -2.788  12.478  20.399  0.00  0.00    +0.000 A 
ATOM      5  N   UNL     1      -3.098  12.769  21.693  0.00  0.00    +0.000 NA
ATOM      6  C   UNL     1      -4.389  12.807  22.093  0.00  0.00    +0.000 A 
ENDROOT
BRANCH   4   7
ATOM      7  C   UNL     1      -1.343  12.714  20.121  0.00  0.00    +0.000 A 
ATOM      8  C   UNL     1      -0.971  13.897  19.435  0.00  0.00    +0.000 A 
ATOM      9  C   UNL     1       0.363  14.191  19.127  0.00  0.00    +0.000 A 
ATOM     10  C   UNL     1       1.367  13.326  19.537  0.00  0.00    +0.000 A 
ATOM     11 CL   UNL     1       3.011  13.688  19.186  0.00  0.00    +0.000 Cl
ATOM     12  C   UNL     1       1.045  12.144  20.190  0.00  0.00    +0.000 A 
ATOM     13  C   UNL     1      -0.298  11.812  20.419  0.00  0.00    +0.000 A 
ATOM     14 CL   UNL     1      -0.577  10.187  20.956  0.00  0.00    +0.000 Cl
ENDBRANCH   4   7
BRANCH   3  15
ATOM     15  C   UNL     1      -3.498  11.582  18.098  0.00  0.00    +0.000 A 
ATOM     16  C   UNL     1      -2.345  10.824  17.803  0.00  0.00    +0.000 A 
ATOM     17  C   UNL     1      -2.136  10.277  16.533  0.00  0.00    +0.000 A 
ATOM     18  C   UNL     1      -3.084  10.463  15.536  0.00  0.00    +0.000 A 
ATOM     19 CL   UNL     1      -2.868   9.723  13.998  0.00  0.00    +0.000 Cl
ATOM     20  C   UNL     1      -4.212  11.236  15.782  0.00  0.00    +0.000 A 
ATOM     21  C   UNL     1      -4.398  11.818  17.041  0.00  0.00    +0.000 A 
ENDBRANCH   3  15
BRANCH   1  23
ATOM     22  N   UNL     1      -7.916  12.768  21.931  0.00  0.00    +0.000 NA
ATOM     23  C   UNL     1      -6.804  12.634  21.649  0.00  0.00    +0.000 C 
ENDBRANCH   1  23
BRANCH   6  24
ATOM     24  O   UNL     1      -4.672  13.161  23.410  0.00  0.00    +0.000 OA
BRANCH  24  25
ATOM     25  C   UNL     1      -4.174  14.360  23.873  0.00  0.00    +0.000 A 
ATOM     26  C   UNL     1      -3.190  14.434  24.869  0.00  0.00    +0.000 A 
ATOM     27  C   UNL     1      -2.751  15.671  25.335  0.00  0.00    +0.000 A 
ATOM     28  C   UNL     1      -3.255  16.832  24.763  0.00  0.00    +0.000 A 
ATOM     29  F   UNL     1      -2.834  18.020  25.216  0.00  0.00    +0.000 F 
ATOM     30  C   UNL     1      -4.183  16.761  23.729  0.00  0.00    +0.000 A 
ATOM     31  F   UNL     1      -4.644  17.887  23.165  0.00  0.00    +0.000 F 
ATOM     32  C   UNL     1      -4.648  15.530  23.274  0.00  0.00    +0.000 A 
ENDBRANCH  24  25
ENDBRANCH   6  24
TORSDOF 5
ENDMDL
MODEL 6
REMARK VINA RESULT:      -7.1      3.996      6.605
REMARK  Name = 
REMARK  5 active torsions:
REMARK  status: ('A' for Active; 'I' for Inactive)
REMARK    1  A    between atoms: C_2  and  C_3
REMARK    2  A    between atoms: C_5  and  C_6
REMARK    3  A    between atoms: C_13  and  C_14
REMARK    4  A    between atoms: C_23  and  O_24
REMARK    5  A    between atoms: O_24  and  C_25
REMARK                            x       y       z     vdW  Elec       q    Type
REMARK                         _______ _______ _______ _____ _____    ______ ____
ROOT
ATOM      1  C   UNL     1      -2.056  14.006  20.870  0.00  0.00    +0.000 A 
ATOM      2  C   UNL     1      -0.713  14.283  20.596  0.00  0.00    +0.000 A 
ATOM      3  C   UNL     1       0.183  13.285  20.138  0.00  0.00    +0.000 A 
ATOM      4  C   UNL     1      -0.355  11.984  20.007  0.00  0.00    +0.000 A 
ATOM      5  N   UNL     1      -1.688  11.748  20.162  0.00  0.00    +0.000 NA
ATOM      6  C   UNL     1      -2.505  12.727  20.612  0.00  0.00    +0.000 A 
ENDROOT
BRANCH   4   7
ATOM      7  C   UNL     1       0.390  10.724  19.728  0.00  0.00    +0.000 A 
ATOM      8  C   UNL     1       0.754  10.436  18.389  0.00  0.00    +0.000 A 
ATOM      9  C   UNL     1       1.446   9.270  18.040  0.00  0.00    +0.000 A 
ATOM     10  C   UNL     1       1.833   8.380  19.031  0.00  0.00    +0.000 A 
ATOM     11 CL   UNL     1       2.707   6.958  18.618  0.00  0.00    +0.000 Cl
ATOM     12  C   UNL     1       1.477   8.612  20.353  0.00  0.00    +0.000 A 
ATOM     13  C   UNL     1       0.707   9.736  20.686  0.00  0.00    +0.000 A 
ATOM     14 CL   UNL     1       0.073   9.746  22.300  0.00  0.00    +0.000 Cl
ENDBRANCH   4   7
BRANCH   3  15
ATOM     15  C   UNL     1       1.599  13.646  19.862  0.00  0.00    +0.000 A 
ATOM     16  C   UNL     1       2.050  13.841  18.540  0.00  0.00    +0.000 A 
ATOM     17  C   UNL     1       3.341  14.306  18.270  0.00  0.00    +0.000 A 
ATOM     18  C   UNL     1       4.202  14.603  19.317  0.00  0.00    +0.000 A 
ATOM     19 CL   UNL     1       5.760  15.253  18.990  0.00  0.00    +0.000 Cl
ATOM     20  C   UNL     1       3.802  14.386  20.631  0.00  0.00    +0.000 A 
ATOM     21  C   UNL     1       2.525  13.880  20.897  0.00  0.00    +0.000 A 
ENDBRANCH   3  15
BRANCH   1  23
ATOM     22  N   UNL     1      -3.629  15.790  21.889  0.00  0.00    +0.000 NA
ATOM     23  C   UNL     1      -2.906  15.009  21.441  0.00  0.00    +0.000 C 
ENDBRANCH   1  23
BRANCH   6  24
ATOM     24  O   UNL     1      -3.853  12.435  20.809  0.00  0.00    +0.000 OA
BRANCH  24  25
ATOM     25  C   UNL     1      -4.704  12.571  19.732  0.00  0.00    +0.000 A 
ATOM     26  C   UNL     1      -5.772  13.480  19.726  0.00  0.00    +0.000 A 
ATOM     27  C   UNL     1      -6.631  13.549  18.631  0.00  0.00    +0.000 A 
ATOM     28  C   UNL     1      -6.385  12.751  17.522  0.00  0.00    +0.000 A 
ATOM     29  F   UNL     1      -7.215  12.816  16.472  0.00  0.00    +0.000 F 
ATOM     30  C   UNL     1      -5.287  11.896  17.500  0.00  0.00    +0.000 A 
ATOM     31  F   UNL     1      -5.043  11.149  16.413  0.00  0.00    +0.000 F 
ATOM     32  C   UNL     1      -4.438  11.800  18.599  0.00  0.00    +0.000 A 
ENDBRANCH  24  25
ENDBRANCH   6  24
TORSDOF 5
ENDMDL
MODEL 7
REMARK VINA RESULT:      -7.1      5.099      8.346
REMARK  Name = 
REMARK  5 active torsions:
REMARK  status: ('A' for Active; 'I' for Inactive)
REMARK    1  A    between atoms: C_2  and  C_3
REMARK    2  A    between atoms: C_5  and  C_6
REMARK    3  A    between atoms: C_13  and  C_14
REMARK    4  A    between atoms: C_23  and  O_24
REMARK    5  A    between atoms: O_24  and  C_25
REMARK                            x       y       z     vdW  Elec       q    Type
REMARK                         _______ _______ _______ _____ _____    ______ ____
ROOT
ATOM      1  C   UNL     1       0.875  15.294  19.726  0.00  0.00    +0.000 A 
ATOM      2  C   UNL     1      -0.304  14.619  19.392  0.00  0.00    +0.000 A 
ATOM      3  C   UNL     1      -0.468  13.231  19.623  0.00  0.00    +0.000 A 
ATOM      4  C   UNL     1       0.646  12.561  20.181  0.00  0.00    +0.000 A 
ATOM      5  N   UNL     1       1.742  13.245  20.612  0.00  0.00    +0.000 NA
ATOM      6  C   UNL     1       1.862  14.568  20.361  0.00  0.00    +0.000 A 
ENDROOT
BRANCH   4   7
ATOM      7  C   UNL     1       0.819  11.091  20.357  0.00  0.00    +0.000 A 
ATOM      8  C   UNL     1       1.361  10.341  19.284  0.00  0.00    +0.000 A 
ATOM      9  C   UNL     1       1.548   8.956  19.364  0.00  0.00    +0.000 A 
ATOM     10  C   UNL     1       1.236   8.289  20.539  0.00  0.00    +0.000 A 
ATOM     11 CL   UNL     1       1.484   6.592  20.659  0.00  0.00    +0.000 Cl
ATOM     12  C   UNL     1       0.680   8.982  21.606  0.00  0.00    +0.000 A 
ATOM     13  C   UNL     1       0.413  10.354  21.490  0.00  0.00    +0.000 A 
ATOM     14 CL   UNL     1      -0.556  11.029  22.761  0.00  0.00    +0.000 Cl
ENDBRANCH   4   7
BRANCH   3  15
ATOM     15  C   UNL     1      -1.748  12.575  19.246  0.00  0.00    +0.000 A 
ATOM     16  C   UNL     1      -2.907  12.747  20.031  0.00  0.00    +0.000 A 
ATOM     17  C   UNL     1      -4.147  12.246  19.624  0.00  0.00    +0.000 A 
ATOM     18  C   UNL     1      -4.257  11.575  18.413  0.00  0.00    +0.000 A 
ATOM     19 CL   UNL     1      -5.795  11.029  17.871  0.00  0.00    +0.000 Cl
ATOM     20  C   UNL     1      -3.128  11.355  17.633  0.00  0.00    +0.000 A 
ATOM     21  C   UNL     1      -1.880  11.820  18.064  0.00  0.00    +0.000 A 
ENDBRANCH   3  15
BRANCH   1  23
ATOM     22  N   UNL     1       1.156  17.794  19.120  0.00  0.00    +0.000 NA
ATOM     23  C   UNL     1       1.052  16.672  19.375  0.00  0.00    +0.000 C 
ENDBRANCH   1  23
BRANCH   6  24
ATOM     24  O   UNL     1       3.022  15.224  20.769  0.00  0.00    +0.000 OA
BRANCH  24  25
ATOM     25  C   UNL     1       4.112  15.185  19.925  0.00  0.00    +0.000 A 
ATOM     26  C   UNL     1       4.048  14.637  18.636  0.00  0.00    +0.000 A 
ATOM     27  C   UNL     1       5.188  14.580  17.837  0.00  0.00    +0.000 A 
ATOM     28  C   UNL     1       6.376  15.123  18.308  0.00  0.00    +0.000 A 
ATOM     29  F   UNL     1       7.472  15.064  17.540  0.00  0.00    +0.000 F 
ATOM     30  C   UNL     1       6.426  15.726  19.561  0.00  0.00    +0.000 A 
ATOM     31  F   UNL     1       7.571  16.272  19.995  0.00  0.00    +0.000 F 
ATOM     32  C   UNL     1       5.299  15.765  20.377  0.00  0.00    +0.000 A 
ENDBRANCH  24  25
ENDBRANCH   6  24
TORSDOF 5
ENDMDL
MODEL 8
REMARK VINA RESULT:      -7.1      5.866      8.585
REMARK  Name = 
REMARK  5 active torsions:
REMARK  status: ('A' for Active; 'I' for Inactive)
REMARK    1  A    between atoms: C_2  and  C_3
REMARK    2  A    between atoms: C_5  and  C_6
REMARK    3  A    between atoms: C_13  and  C_14
REMARK    4  A    between atoms: C_23  and  O_24
REMARK    5  A    between atoms: O_24  and  C_25
REMARK                            x       y       z     vdW  Elec       q    Type
REMARK                         _______ _______ _______ _____ _____    ______ ____
ROOT
ATOM      1  C   UNL     1      -2.119  12.617  22.851  0.00  0.00    +0.000 A 
ATOM      2  C   UNL     1      -1.392  11.524  22.367  0.00  0.00    +0.000 A 
ATOM      3  C   UNL     1      -0.204  11.685  21.612  0.00  0.00    +0.000 A 
ATOM      4  C   UNL     1       0.185  13.019  21.347  0.00  0.00    +0.000 A 
ATOM      5  N   UNL     1      -0.461  14.073  21.919  0.00  0.00    +0.000 NA
ATOM      6  C   UNL     1      -1.598  13.875  22.624  0.00  0.00    +0.000 A 
ENDROOT
BRANCH   4   7
ATOM      7  C   UNL     1       1.271  13.478  20.435  0.00  0.00    +0.000 A 
ATOM      8  C   UNL     1       2.502  13.889  21.003  0.00  0.00    +0.000 A 
ATOM      9  C   UNL     1       3.570  14.342  20.219  0.00  0.00    +0.000 A 
ATOM     10  C   UNL     1       3.448  14.353  18.838  0.00  0.00    +0.000 A 
ATOM     11 CL   UNL     1       4.761  14.884  17.862  0.00  0.00    +0.000 Cl
ATOM     12  C   UNL     1       2.251  13.982  18.240  0.00  0.00    +0.000 A 
ATOM     13  C   UNL     1       1.156  13.613  19.035  0.00  0.00    +0.000 A 
ATOM     14 CL   UNL     1      -0.354  13.473  18.192  0.00  0.00    +0.000 Cl
ENDBRANCH   4   7
BRANCH   3  15
ATOM     15  C   UNL     1       0.523  10.481  21.129  0.00  0.00    +0.000 A 
ATOM     16  C   UNL     1       0.925   9.471  22.029  0.00  0.00    +0.000 A 
ATOM     17  C   UNL     1       1.492   8.275  21.578  0.00  0.00    +0.000 A 
ATOM     18  C   UNL     1       1.654   8.057  20.217  0.00  0.00    +0.000 A 
ATOM     19 CL   UNL     1       2.276   6.555  19.656  0.00  0.00    +0.000 Cl
ATOM     20  C   UNL     1       1.305   9.047  19.306  0.00  0.00    +0.000 A 
ATOM     21  C   UNL     1       0.777  10.260  19.762  0.00  0.00    +0.000 A 
ENDBRANCH   3  15
BRANCH   1  23
ATOM     22  N   UNL     1      -4.367  12.235  24.074  0.00  0.00    +0.000 NA
ATOM     23  C   UNL     1      -3.375  12.423  23.512  0.00  0.00    +0.000 C 
ENDBRANCH   1  23
BRANCH   6  24
ATOM     24  O   UNL     1      -2.261  14.982  23.150  0.00  0.00    +0.000 OA
BRANCH  24  25
ATOM     25  C   UNL     1      -1.644  15.673  24.171  0.00  0.00    +0.000 A 
ATOM     26  C   UNL     1      -1.700  15.254  25.508  0.00  0.00    +0.000 A 
ATOM     27  C   UNL     1      -1.098  16.011  26.510  0.00  0.00    +0.000 A 
ATOM     28  C   UNL     1      -0.392  17.156  26.166  0.00  0.00    +0.000 A 
ATOM     29  F   UNL     1       0.184  17.885  27.132  0.00  0.00    +0.000 F 
ATOM     30  C   UNL     1      -0.278  17.539  24.833  0.00  0.00    +0.000 A 
ATOM     31  F   UNL     1       0.429  18.631  24.509  0.00  0.00    +0.000 F 
ATOM     32  C   UNL     1      -0.899  16.803  23.826  0.00  0.00    +0.000 A 
ENDBRANCH  24  25
ENDBRANCH   6  24
TORSDOF 5
ENDMDL
MODEL 9
REMARK VINA RESULT:      -7.1      4.024      6.538
REMARK  Name = 
REMARK  5 active torsions:
REMARK  status: ('A' for Active; 'I' for Inactive)
REMARK    1  A    between atoms: C_2  and  C_3
REMARK    2  A    between atoms: C_5  and  C_6
REMARK    3  A    between atoms: C_13  and  C_14
REMARK    4  A    between atoms: C_23  and  O_24
REMARK    5  A    between atoms: O_24  and  C_25
REMARK                            x       y       z     vdW  Elec       q    Type
REMARK                         _______ _______ _______ _____ _____    ______ ____
ROOT
ATOM      1  C   UNL     1      -2.147  13.879  20.723  0.00  0.00    +0.000 A 
ATOM      2  C   UNL     1      -0.805  14.180  20.470  0.00  0.00    +0.000 A 
ATOM      3  C   UNL     1       0.119  13.196  20.041  0.00  0.00    +0.000 A 
ATOM      4  C   UNL     1      -0.389  11.882  19.916  0.00  0.00    +0.000 A 
ATOM      5  N   UNL     1      -1.719  11.621  20.049  0.00  0.00    +0.000 NA
ATOM      6  C   UNL     1      -2.565  12.587  20.471  0.00  0.00    +0.000 A 
ENDROOT
BRANCH   4   7
ATOM      7  C   UNL     1       0.387  10.635  19.665  0.00  0.00    +0.000 A 
ATOM      8  C   UNL     1       0.754  10.323  18.333  0.00  0.00    +0.000 A 
ATOM      9  C   UNL     1       1.475   9.167  18.011  0.00  0.00    +0.000 A 
ATOM     10  C   UNL     1       1.888   8.312  19.023  0.00  0.00    +0.000 A 
ATOM     11 CL   UNL     1       2.796   6.902  18.642  0.00  0.00    +0.000 Cl
ATOM     12  C   UNL     1       1.529   8.568  20.339  0.00  0.00    +0.000 A 
ATOM     13  C   UNL     1       0.732   9.680  20.647  0.00  0.00    +0.000 A 
ATOM     14 CL   UNL     1       0.102   9.715  22.262  0.00  0.00    +0.000 Cl
ENDBRANCH   4   7
BRANCH   3  15
ATOM     15  C   UNL     1       1.533  13.584  19.787  0.00  0.00    +0.000 A 
ATOM     16  C   UNL     1       2.004  13.775  18.471  0.00  0.00    +0.000 A 
ATOM     17  C   UNL     1       3.290  14.264  18.220  0.00  0.00    +0.000 A 
ATOM     18  C   UNL     1       4.125  14.588  19.280  0.00  0.00    +0.000 A 
ATOM     19 CL   UNL     1       5.676  15.266  18.974  0.00  0.00    +0.000 Cl
ATOM     20  C   UNL     1       3.706  14.376  20.588  0.00  0.00    +0.000 A 
ATOM     21  C   UNL     1       2.435  13.846  20.836  0.00  0.00    +0.000 A 
ENDBRANCH   3  15
BRANCH   1  23
ATOM     22  N   UNL     1      -3.735  15.694  21.661  0.00  0.00    +0.000 NA
ATOM     23  C   UNL     1      -3.029  14.870  21.265  0.00  0.00    +0.000 C 
ENDBRANCH   1  23
BRANCH   6  24
ATOM     24  O   UNL     1      -3.910  12.270  20.647  0.00  0.00    +0.000 OA
BRANCH  24  25
ATOM     25  C   UNL     1      -4.750  12.415  19.564  0.00  0.00    +0.000 A 
ATOM     26  C   UNL     1      -4.511  11.784  18.334  0.00  0.00    +0.000 A 
ATOM     27  C   UNL     1      -5.366  11.998  17.255  0.00  0.00    +0.000 A 
ATOM     28  C   UNL     1      -6.490  12.794  17.425  0.00  0.00    +0.000 A 
ATOM     29  F   UNL     1      -7.309  13.001  16.385  0.00  0.00    +0.000 F 
ATOM     30  C   UNL     1      -6.766  13.368  18.663  0.00  0.00    +0.000 A 
ATOM     31  F   UNL     1      -7.869  14.113  18.824  0.00  0.00    +0.000 F 
ATOM     32  C   UNL     1      -5.903  13.183  19.740  0.00  0.00    +0.000 A 
ENDBRANCH  24  25
ENDBRANCH   6  24
TORSDOF 5
ENDMDL
