MODEL 1
REMARK VINA RESULT:      -8.0      0.000      0.000
REMARK  Name = 
REMARK  7 active torsions:
REMARK  status: ('A' for Active; 'I' for Inactive)
REMARK    1  A    between atoms: C_1  and  C_2
REMARK    2  A    between atoms: C_2  and  N_3
REMARK    3  A    between atoms: C_11  and  C_12
REMARK    4  A    between atoms: C_12  and  O_14
REMARK    5  A    between atoms: O_14  and  C_15
REMARK    6  A    between atoms: C_15  and  C_16
REMARK    7  A    between atoms: C_15  and  C_17
REMARK                            x       y       z     vdW  Elec       q    Type
REMARK                         _______ _______ _______ _____ _____    ______ ____
ROOT
ATOM      1  N   UNL     1       2.357   3.701  19.854  0.00  0.00    +0.000 N 
ATOM      2  C   UNL     1       1.824   4.863  20.352  0.00  0.00    +0.000 A 
ATOM      3  N   UNL     1       2.074   6.046  19.895  0.00  0.00    +0.000 NA
ATOM      4  C   UNL     1       2.942   6.159  18.798  0.00  0.00    +0.000 A 
ATOM      5  C   UNL     1       3.184   7.418  18.251  0.00  0.00    +0.000 A 
ATOM      6  C   UNL     1       4.035   7.581  17.143  0.00  0.00    +0.000 A 
ATOM      7  C   UNL     1       4.657   6.454  16.560  0.00  0.00    +0.000 A 
ATOM      8  N   UNL     1       5.517   6.457  15.464  0.00  0.00    +0.000 NA
ATOM      9  C   UNL     1       5.904   5.222  15.200  0.00  0.00    +0.000 A 
ATOM     10  S   UNL     1       5.247   4.015  16.206  0.00  0.00    +0.000 S 
ATOM     11  C   UNL     1       4.402   5.195  17.116  0.00  0.00    +0.000 A 
ATOM     12  C   UNL     1       3.561   5.042  18.234  0.00  0.00    +0.000 A 
ATOM     13  C   UNL     1       3.294   3.727  18.834  0.00  0.00    +0.000 A 
ATOM     14  O   UNL     1       3.869   2.714  18.444  0.00  0.00    +0.000 OA
ENDROOT
BRANCH   9  15
ATOM     15  C   UNL     1       6.778   4.786  14.128  0.00  0.00    +0.000 C 
ATOM     16  N   UNL     1       7.817   5.443  13.718  0.00  0.00    +0.000 NA
ATOM     17  H   UNL     1       7.911   6.302  14.274  0.00  0.00    +0.000 HD
BRANCH  15  18
ATOM     18  O   UNL     1       6.440   3.583  13.598  0.00  0.00    +0.000 OA
BRANCH  18  19
ATOM     19  C   UNL     1       6.217   3.573  12.173  0.00  0.00    +0.000 C 
ATOM     20  C   UNL     1       7.016   2.426  11.553  0.00  0.00    +0.000 C 
ATOM     21  C   UNL     1       4.727   3.376  11.930  0.00  0.00    +0.000 C 
ENDBRANCH  18  19
ENDBRANCH  15  18
ENDBRANCH   9  15
BRANCH   1  23
ATOM     22  C   UNL     1       1.452   2.523  21.833  0.00  0.00    +0.000 C 
ATOM     23  C   UNL     1       2.012   2.404  20.423  0.00  0.00    +0.000 C 
ENDBRANCH   1  23
TORSDOF 4
ENDMDL
MODEL 2
REMARK VINA RESULT:      -7.0      1.924      3.114
REMARK  Name = 
REMARK  7 active torsions:
REMARK  status: ('A' for Active; 'I' for Inactive)
REMARK    1  A    between atoms: C_1  and  C_2
REMARK    2  A    between atoms: C_2  and  N_3
REMARK    3  A    between atoms: C_11  and  C_12
REMARK    4  A    between atoms: C_12  and  O_14
REMARK    5  A    between atoms: O_14  and  C_15
REMARK    6  A    between atoms: C_15  and  C_16
REMARK    7  A    between atoms: C_15  and  C_17
REMARK                            x       y       z     vdW  Elec       q    Type
REMARK                         _______ _______ _______ _____ _____    ______ ____
ROOT
ATOM      1  N   UNL     1       2.007   7.341  19.815  0.00  0.00    +0.000 N 
ATOM      2  C   UNL     1       1.554   6.414  20.719  0.00  0.00    +0.000 A 
ATOM      3  N   UNL     1       1.845   5.156  20.698  0.00  0.00    +0.000 NA
ATOM      4  C   UNL     1       2.703   4.696  19.686  0.00  0.00    +0.000 A 
ATOM      5  C   UNL     1       3.078   3.353  19.673  0.00  0.00    +0.000 A 
ATOM      6  C   UNL     1       3.945   2.848  18.688  0.00  0.00    +0.000 A 
ATOM      7  C   UNL     1       4.458   3.708  17.691  0.00  0.00    +0.000 A 
ATOM      8  N   UNL     1       5.324   3.355  16.658  0.00  0.00    +0.000 NA
ATOM      9  C   UNL     1       5.590   4.418  15.920  0.00  0.00    +0.000 A 
ATOM     10  S   UNL     1       4.860   5.869  16.431  0.00  0.00    +0.000 S 
ATOM     11  C   UNL     1       4.077   5.054  17.718  0.00  0.00    +0.000 A 
ATOM     12  C   UNL     1       3.197   5.549  18.698  0.00  0.00    +0.000 A 
ATOM     13  C   UNL     1       2.780   6.959  18.731  0.00  0.00    +0.000 A 
ATOM     14  O   UNL     1       3.107   7.746  17.847  0.00  0.00    +0.000 OA
ENDROOT
BRANCH   9  15
ATOM     15  C   UNL     1       6.464   4.488  14.765  0.00  0.00    +0.000 C 
ATOM     16  N   UNL     1       7.354   5.412  14.575  0.00  0.00    +0.000 NA
ATOM     17  H   UNL     1       7.332   6.065  15.368  0.00  0.00    +0.000 HD
BRANCH  15  18
ATOM     18  O   UNL     1       6.305   3.461  13.892  0.00  0.00    +0.000 OA
BRANCH  18  19
ATOM     19  C   UNL     1       6.148   3.840  12.509  0.00  0.00    +0.000 C 
ATOM     20  C   UNL     1       7.223   3.140  11.677  0.00  0.00    +0.000 C 
ATOM     21  C   UNL     1       4.760   3.410  12.057  0.00  0.00    +0.000 C 
ENDBRANCH  18  19
ENDBRANCH  15  18
ENDBRANCH   9  15
BRANCH   1  23
ATOM     22  C   UNL     1       0.987   9.075  21.256  0.00  0.00    +0.000 C 
ATOM     23  C   UNL     1       1.636   8.747  19.919  0.00  0.00    +0.000 C 
ENDBRANCH   1  23
TORSDOF 4
ENDMDL
MODEL 3
REMARK VINA RESULT:      -6.8      1.658      1.980
REMARK  Name = 
REMARK  7 active torsions:
REMARK  status: ('A' for Active; 'I' for Inactive)
REMARK    1  A    between atoms: C_1  and  C_2
REMARK    2  A    between atoms: C_2  and  N_3
REMARK    3  A    between atoms: C_11  and  C_12
REMARK    4  A    between atoms: C_12  and  O_14
REMARK    5  A    between atoms: O_14  and  C_15
REMARK    6  A    between atoms: C_15  and  C_16
REMARK    7  A    between atoms: C_15  and  C_17
REMARK                            x       y       z     vdW  Elec       q    Type
REMARK                         _______ _______ _______ _____ _____    ______ ____
ROOT
ATOM      1  N   UNL     1       2.800   4.224  18.852  0.00  0.00    +0.000 N 
ATOM      2  C   UNL     1       3.363   4.957  19.866  0.00  0.00    +0.000 A 
ATOM      3  N   UNL     1       4.510   5.547  19.804  0.00  0.00    +0.000 NA
ATOM      4  C   UNL     1       5.237   5.450  18.607  0.00  0.00    +0.000 A 
ATOM      5  C   UNL     1       6.452   6.124  18.494  0.00  0.00    +0.000 A 
ATOM      6  C   UNL     1       7.210   6.068  17.311  0.00  0.00    +0.000 A 
ATOM      7  C   UNL     1       6.738   5.325  16.205  0.00  0.00    +0.000 A 
ATOM      8  N   UNL     1       7.372   5.179  14.973  0.00  0.00    +0.000 NA
ATOM      9  C   UNL     1       6.639   4.415  14.184  0.00  0.00    +0.000 A 
ATOM     10  S   UNL     1       5.169   3.869  14.849  0.00  0.00    +0.000 S 
ATOM     11  C   UNL     1       5.515   4.657  16.331  0.00  0.00    +0.000 A 
ATOM     12  C   UNL     1       4.769   4.705  17.523  0.00  0.00    +0.000 A 
ATOM     13  C   UNL     1       3.488   3.999  17.671  0.00  0.00    +0.000 A 
ATOM     14  O   UNL     1       3.058   3.257  16.791  0.00  0.00    +0.000 OA
ENDROOT
BRANCH   9  15
ATOM     15  C   UNL     1       6.926   4.038  12.814  0.00  0.00    +0.000 C 
ATOM     16  N   UNL     1       7.458   4.826  11.933  0.00  0.00    +0.000 NA
ATOM     17  H   UNL     1       7.637   5.740  12.368  0.00  0.00    +0.000 HD
BRANCH  15  18
ATOM     18  O   UNL     1       6.624   2.746  12.525  0.00  0.00    +0.000 OA
BRANCH  18  19
ATOM     19  C   UNL     1       5.988   2.527  11.249  0.00  0.00    +0.000 C 
ATOM     20  C   UNL     1       6.066   1.040  10.904  0.00  0.00    +0.000 C 
ATOM     21  C   UNL     1       4.537   2.971  11.364  0.00  0.00    +0.000 C 
ENDBRANCH  18  19
ENDBRANCH  15  18
ENDBRANCH   9  15
BRANCH   1  23
ATOM     22  C   UNL     1       0.985   3.661  20.436  0.00  0.00    +0.000 C 
ATOM     23  C   UNL     1       1.492   3.599  19.002  0.00  0.00    +0.000 C 
ENDBRANCH   1  23
TORSDOF 4
ENDMDL
MODEL 4
REMARK VINA RESULT:      -6.7      2.458      3.884
REMARK  Name = 
REMARK  7 active torsions:
REMARK  status: ('A' for Active; 'I' for Inactive)
REMARK    1  A    between atoms: C_1  and  C_2
REMARK    2  A    between atoms: C_2  and  N_3
REMARK    3  A    between atoms: C_11  and  C_12
REMARK    4  A    between atoms: C_12  and  O_14
REMARK    5  A    between atoms: O_14  and  C_15
REMARK    6  A    between atoms: C_15  and  C_16
REMARK    7  A    between atoms: C_15  and  C_17
REMARK                            x       y       z     vdW  Elec       q    Type
REMARK                         _______ _______ _______ _____ _____    ______ ____
ROOT
ATOM      1  N   UNL     1       1.499   8.868  19.288  0.00  0.00    +0.000 N 
ATOM      2  C   UNL     1       0.992   8.249  20.402  0.00  0.00    +0.000 A 
ATOM      3  N   UNL     1       1.311   7.061  20.797  0.00  0.00    +0.000 NA
ATOM      4  C   UNL     1       2.259   6.349  20.045  0.00  0.00    +0.000 A 
ATOM      5  C   UNL     1       2.662   5.087  20.482  0.00  0.00    +0.000 A 
ATOM      6  C   UNL     1       3.619   4.342  19.771  0.00  0.00    +0.000 A 
ATOM      7  C   UNL     1       4.195   4.872  18.594  0.00  0.00    +0.000 A 
ATOM      8  N   UNL     1       5.151   4.256  17.789  0.00  0.00    +0.000 NA
ATOM      9  C   UNL     1       5.455   5.047  16.776  0.00  0.00    +0.000 A 
ATOM     10  S   UNL     1       4.654   6.550  16.752  0.00  0.00    +0.000 S 
ATOM     11  C   UNL     1       3.784   6.140  18.170  0.00  0.00    +0.000 A 
ATOM     12  C   UNL     1       2.815   6.875  18.879  0.00  0.00    +0.000 A 
ATOM     13  C   UNL     1       2.368   8.204  18.437  0.00  0.00    +0.000 A 
ATOM     14  O   UNL     1       2.750   8.691  17.377  0.00  0.00    +0.000 OA
ENDROOT
BRANCH   9  15
ATOM     15  C   UNL     1       6.420   4.794  15.724  0.00  0.00    +0.000 C 
ATOM     16  N   UNL     1       7.677   4.548  15.928  0.00  0.00    +0.000 NA
ATOM     17  H   UNL     1       7.860   4.560  16.939  0.00  0.00    +0.000 HD
BRANCH  15  18
ATOM     18  O   UNL     1       5.886   4.795  14.476  0.00  0.00    +0.000 OA
BRANCH  18  19
ATOM     19  C   UNL     1       6.640   4.077  13.478  0.00  0.00    +0.000 C 
ATOM     20  C   UNL     1       5.667   3.365  12.539  0.00  0.00    +0.000 C 
ATOM     21  C   UNL     1       7.483   5.083  12.708  0.00  0.00    +0.000 C 
ENDBRANCH  18  19
ENDBRANCH  15  18
ENDBRANCH   9  15
BRANCH   1  23
ATOM     22  C   UNL     1      -0.406  10.322  18.673  0.00  0.00    +0.000 C 
ATOM     23  C   UNL     1       1.092  10.219  18.919  0.00  0.00    +0.000 C 
ENDBRANCH   1  23
TORSDOF 4
ENDMDL
MODEL 5
REMARK VINA RESULT:      -6.7      3.902      7.282
REMARK  Name = 
REMARK  7 active torsions:
REMARK  status: ('A' for Active; 'I' for Inactive)
REMARK    1  A    between atoms: C_1  and  C_2
REMARK    2  A    between atoms: C_2  and  N_3
REMARK    3  A    between atoms: C_11  and  C_12
REMARK    4  A    between atoms: C_12  and  O_14
REMARK    5  A    between atoms: O_14  and  C_15
REMARK    6  A    between atoms: C_15  and  C_16
REMARK    7  A    between atoms: C_15  and  C_17
REMARK                            x       y       z     vdW  Elec       q    Type
REMARK                         _______ _______ _______ _____ _____    ______ ____
ROOT
ATOM      1  N   UNL     1       4.734   4.398  17.173  0.00  0.00    +0.000 N 
ATOM      2  C   UNL     1       4.586   3.419  18.123  0.00  0.00    +0.000 A 
ATOM      3  N   UNL     1       3.901   3.542  19.211  0.00  0.00    +0.000 NA
ATOM      4  C   UNL     1       3.240   4.759  19.439  0.00  0.00    +0.000 A 
ATOM      5  C   UNL     1       2.447   4.897  20.578  0.00  0.00    +0.000 A 
ATOM      6  C   UNL     1       1.754   6.092  20.843  0.00  0.00    +0.000 A 
ATOM      7  C   UNL     1       1.849   7.177  19.943  0.00  0.00    +0.000 A 
ATOM      8  N   UNL     1       1.223   8.415  20.069  0.00  0.00    +0.000 NA
ATOM      9  C   UNL     1       1.541   9.180  19.040  0.00  0.00    +0.000 A 
ATOM     10  S   UNL     1       2.558   8.463  17.878  0.00  0.00    +0.000 S 
ATOM     11  C   UNL     1       2.645   7.023  18.802  0.00  0.00    +0.000 A 
ATOM     12  C   UNL     1       3.347   5.830  18.551  0.00  0.00    +0.000 A 
ATOM     13  C   UNL     1       4.194   5.660  17.362  0.00  0.00    +0.000 A 
ATOM     14  O   UNL     1       4.402   6.586  16.583  0.00  0.00    +0.000 OA
ENDROOT
BRANCH   9  15
ATOM     15  C   UNL     1       1.082  10.530  18.776  0.00  0.00    +0.000 C 
ATOM     16  N   UNL     1       1.734  11.399  18.068  0.00  0.00    +0.000 NA
ATOM     17  H   UNL     1       2.607  10.972  17.735  0.00  0.00    +0.000 HD
BRANCH  15  18
ATOM     18  O   UNL     1      -0.135  10.811  19.306  0.00  0.00    +0.000 OA
BRANCH  18  19
ATOM     19  C   UNL     1      -1.100  11.366  18.388  0.00  0.00    +0.000 C 
ATOM     20  C   UNL     1      -1.820  10.222  17.674  0.00  0.00    +0.000 C 
ATOM     21  C   UNL     1      -2.089  12.200  19.189  0.00  0.00    +0.000 C 
ENDBRANCH  18  19
ENDBRANCH  15  18
ENDBRANCH   9  15
BRANCH   1  23
ATOM     22  C   UNL     1       6.997   4.469  16.174  0.00  0.00    +0.000 C 
ATOM     23  C   UNL     1       5.519   4.171  15.966  0.00  0.00    +0.000 C 
ENDBRANCH   1  23
TORSDOF 4
ENDMDL
MODEL 6
REMARK VINA RESULT:      -6.6      3.865      7.969
REMARK  Name = 
REMARK  7 active torsions:
REMARK  status: ('A' for Active; 'I' for Inactive)
REMARK    1  A    between atoms: C_1  and  C_2
REMARK    2  A    between atoms: C_2  and  N_3
REMARK    3  A    between atoms: C_11  and  C_12
REMARK    4  A    between atoms: C_12  and  O_14
REMARK    5  A    between atoms: O_14  and  C_15
REMARK    6  A    between atoms: C_15  and  C_16
REMARK    7  A    between atoms: C_15  and  C_17
REMARK                            x       y       z     vdW  Elec       q    Type
REMARK                         _______ _______ _______ _____ _____    ______ ____
ROOT
ATOM      1  N   UNL     1       4.807   4.878  16.607  0.00  0.00    +0.000 N 
ATOM      2  C   UNL     1       4.851   3.675  17.267  0.00  0.00    +0.000 A 
ATOM      3  N   UNL     1       4.274   3.430  18.396  0.00  0.00    +0.000 NA
ATOM      4  C   UNL     1       3.530   4.460  18.993  0.00  0.00    +0.000 A 
ATOM      5  C   UNL     1       2.850   4.204  20.184  0.00  0.00    +0.000 A 
ATOM      6  C   UNL     1       2.081   5.199  20.812  0.00  0.00    +0.000 A 
ATOM      7  C   UNL     1       1.981   6.484  20.233  0.00  0.00    +0.000 A 
ATOM      8  N   UNL     1       1.258   7.565  20.735  0.00  0.00    +0.000 NA
ATOM      9  C   UNL     1       1.395   8.603  19.930  0.00  0.00    +0.000 A 
ATOM     10  S   UNL     1       2.348   8.336  18.543  0.00  0.00    +0.000 S 
ATOM     11  C   UNL     1       2.664   6.726  19.037  0.00  0.00    +0.000 A 
ATOM     12  C   UNL     1       3.444   5.730  18.421  0.00  0.00    +0.000 A 
ATOM     13  C   UNL     1       4.175   5.975  17.169  0.00  0.00    +0.000 A 
ATOM     14  O   UNL     1       4.214   7.090  16.656  0.00  0.00    +0.000 OA
ENDROOT
BRANCH   9  15
ATOM     15  C   UNL     1       0.788   9.911  20.074  0.00  0.00    +0.000 C 
ATOM     16  N   UNL     1       0.211  10.561  19.112  0.00  0.00    +0.000 NA
ATOM     17  H   UNL     1       0.256   9.998  18.254  0.00  0.00    +0.000 HD
BRANCH  15  18
ATOM     18  O   UNL     1       0.835  10.403  21.339  0.00  0.00    +0.000 OA
BRANCH  18  19
ATOM     19  C   UNL     1      -0.425  10.434  22.040  0.00  0.00    +0.000 C 
ATOM     20  C   UNL     1      -0.309   9.586  23.306  0.00  0.00    +0.000 C 
ATOM     21  C   UNL     1      -0.731  11.882  22.396  0.00  0.00    +0.000 C 
ENDBRANCH  18  19
ENDBRANCH  15  18
ENDBRANCH   9  15
BRANCH   1  23
ATOM     22  C   UNL     1       6.234   3.821  14.884  0.00  0.00    +0.000 C 
ATOM     23  C   UNL     1       5.480   5.066  15.328  0.00  0.00    +0.000 C 
ENDBRANCH   1  23
TORSDOF 4
ENDMDL
MODEL 7
REMARK VINA RESULT:      -6.6      3.714      7.619
REMARK  Name = 
REMARK  7 active torsions:
REMARK  status: ('A' for Active; 'I' for Inactive)
REMARK    1  A    between atoms: C_1  and  C_2
REMARK    2  A    between atoms: C_2  and  N_3
REMARK    3  A    between atoms: C_11  and  C_12
REMARK    4  A    between atoms: C_12  and  O_14
REMARK    5  A    between atoms: O_14  and  C_15
REMARK    6  A    between atoms: C_15  and  C_16
REMARK    7  A    between atoms: C_15  and  C_17
REMARK                            x       y       z     vdW  Elec       q    Type
REMARK                         _______ _______ _______ _____ _____    ______ ____
ROOT
ATOM      1  N   UNL     1       4.724   5.089  16.711  0.00  0.00    +0.000 N 
ATOM      2  C   UNL     1       4.799   3.824  17.236  0.00  0.00    +0.000 A 
ATOM      3  N   UNL     1       4.234   3.443  18.333  0.00  0.00    +0.000 NA
ATOM      4  C   UNL     1       3.469   4.384  19.041  0.00  0.00    +0.000 A 
ATOM      5  C   UNL     1       2.801   3.984  20.198  0.00  0.00    +0.000 A 
ATOM      6  C   UNL     1       2.012   4.885  20.933  0.00  0.00    +0.000 A 
ATOM      7  C   UNL     1       1.879   6.223  20.498  0.00  0.00    +0.000 A 
ATOM      8  N   UNL     1       1.134   7.225  21.116  0.00  0.00    +0.000 NA
ATOM      9  C   UNL     1       1.242   8.348  20.429  0.00  0.00    +0.000 A 
ATOM     10  S   UNL     1       2.194   8.256  19.019  0.00  0.00    +0.000 S 
ATOM     11  C   UNL     1       2.550   6.610  19.333  0.00  0.00    +0.000 A 
ATOM     12  C   UNL     1       3.350   5.706  18.610  0.00  0.00    +0.000 A 
ATOM     13  C   UNL     1       4.069   6.104  17.391  0.00  0.00    +0.000 A 
ATOM     14  O   UNL     1       4.079   7.268  17.002  0.00  0.00    +0.000 OA
ENDROOT
BRANCH   9  15
ATOM     15  C   UNL     1       0.605   9.618  20.716  0.00  0.00    +0.000 C 
ATOM     16  N   UNL     1       1.142  10.563  21.424  0.00  0.00    +0.000 NA
ATOM     17  H   UNL     1       2.074  10.260  21.733  0.00  0.00    +0.000 HD
BRANCH  15  18
ATOM     18  O   UNL     1      -0.615   9.765  20.138  0.00  0.00    +0.000 OA
BRANCH  18  19
ATOM     19  C   UNL     1      -0.697  10.776  19.112  0.00  0.00    +0.000 C 
ATOM     20  C   UNL     1      -1.166  10.123  17.811  0.00  0.00    +0.000 C 
ATOM     21  C   UNL     1      -1.694  11.831  19.567  0.00  0.00    +0.000 C 
ENDBRANCH  18  19
ENDBRANCH  15  18
ENDBRANCH   9  15
BRANCH   1  23
ATOM     22  C   UNL     1       6.634   4.596  15.218  0.00  0.00    +0.000 C 
ATOM     23  C   UNL     1       5.386   5.432  15.459  0.00  0.00    +0.000 C 
ENDBRANCH   1  23
TORSDOF 4
ENDMDL
MODEL 8
REMARK VINA RESULT:      -6.5      4.913      8.579
REMARK  Name = 
REMARK  7 active torsions:
REMARK  status: ('A' for Active; 'I' for Inactive)
REMARK    1  A    between atoms: C_1  and  C_2
REMARK    2  A    between atoms: C_2  and  N_3
REMARK    3  A    between atoms: C_11  and  C_12
REMARK    4  A    between atoms: C_12  and  O_14
REMARK    5  A    between atoms: O_14  and  C_15
REMARK    6  A    between atoms: C_15  and  C_16
REMARK    7  A    between atoms: C_15  and  C_17
REMARK                            x       y       z     vdW  Elec       q    Type
REMARK                         _______ _______ _______ _____ _____    ______ ____
ROOT
ATOM      1  N   UNL     1       3.465   4.497  19.294  0.00  0.00    +0.000 N 
ATOM      2  C   UNL     1       3.943   4.798  18.043  0.00  0.00    +0.000 A 
ATOM      3  N   UNL     1       3.753   5.918  17.429  0.00  0.00    +0.000 NA
ATOM      4  C   UNL     1       3.018   6.915  18.089  0.00  0.00    +0.000 A 
ATOM      5  C   UNL     1       2.847   8.154  17.472  0.00  0.00    +0.000 A 
ATOM      6  C   UNL     1       2.131   9.188  18.098  0.00  0.00    +0.000 A 
ATOM      7  C   UNL     1       1.575   8.984  19.382  0.00  0.00    +0.000 A 
ATOM      8  N   UNL     1       0.846   9.910  20.125  0.00  0.00    +0.000 NA
ATOM      9  C   UNL     1       0.486   9.371  21.276  0.00  0.00    +0.000 A 
ATOM     10  S   UNL     1       1.017   7.773  21.536  0.00  0.00    +0.000 S 
ATOM     11  C   UNL     1       1.757   7.738  19.991  0.00  0.00    +0.000 A 
ATOM     12  C   UNL     1       2.463   6.703  19.352  0.00  0.00    +0.000 A 
ATOM     13  C   UNL     1       2.652   5.386  19.978  0.00  0.00    +0.000 A 
ATOM     14  O   UNL     1       2.121   5.101  21.048  0.00  0.00    +0.000 OA
ENDROOT
BRANCH   9  15
ATOM     15  C   UNL     1      -0.260  10.003  22.346  0.00  0.00    +0.000 C 
ATOM     16  N   UNL     1      -0.199   9.647  23.591  0.00  0.00    +0.000 NA
ATOM     17  H   UNL     1       0.457   8.862  23.683  0.00  0.00    +0.000 HD
BRANCH  15  18
ATOM     18  O   UNL     1      -1.021  11.052  21.941  0.00  0.00    +0.000 OA
BRANCH  18  19
ATOM     19  C   UNL     1      -1.203  12.100  22.916  0.00  0.00    +0.000 C 
ATOM     20  C   UNL     1      -0.678  13.413  22.336  0.00  0.00    +0.000 C 
ATOM     21  C   UNL     1      -2.690  12.209  23.218  0.00  0.00    +0.000 C 
ENDBRANCH  18  19
ENDBRANCH  15  18
ENDBRANCH   9  15
BRANCH   1  23
ATOM     22  C   UNL     1       3.108   2.052  19.155  0.00  0.00    +0.000 C 
ATOM     23  C   UNL     1       3.735   3.208  19.920  0.00  0.00    +0.000 C 
ENDBRANCH   1  23
TORSDOF 4
ENDMDL
MODEL 9
REMARK VINA RESULT:      -6.4      3.830      6.479
REMARK  Name = 
REMARK  7 active torsions:
REMARK  status: ('A' for Active; 'I' for Inactive)
REMARK    1  A    between atoms: C_1  and  C_2
REMARK    2  A    between atoms: C_2  and  N_3
REMARK    3  A    between atoms: C_11  and  C_12
REMARK    4  A    between atoms: C_12  and  O_14
REMARK    5  A    between atoms: O_14  and  C_15
REMARK    6  A    between atoms: C_15  and  C_16
REMARK    7  A    between atoms: C_15  and  C_17
REMARK                            x       y       z     vdW  Elec       q    Type
REMARK                         _______ _______ _______ _____ _____    ______ ____
ROOT
ATOM      1  N   UNL     1       3.230   3.509  20.432  0.00  0.00    +0.000 N 
ATOM      2  C   UNL     1       4.148   2.929  19.593  0.00  0.00    +0.000 A 
ATOM      3  N   UNL     1       4.638   3.485  18.535  0.00  0.00    +0.000 NA
ATOM      4  C   UNL     1       4.219   4.787  18.221  0.00  0.00    +0.000 A 
ATOM      5  C   UNL     1       4.775   5.432  17.117  0.00  0.00    +0.000 A 
ATOM      6  C   UNL     1       4.398   6.740  16.770  0.00  0.00    +0.000 A 
ATOM      7  C   UNL     1       3.443   7.430  17.552  0.00  0.00    +0.000 A 
ATOM      8  N   UNL     1       2.974   8.724  17.335  0.00  0.00    +0.000 NA
ATOM      9  C   UNL     1       2.089   9.037  18.265  0.00  0.00    +0.000 A 
ATOM     10  S   UNL     1       1.802   7.837  19.439  0.00  0.00    +0.000 S 
ATOM     11  C   UNL     1       2.896   6.773  18.659  0.00  0.00    +0.000 A 
ATOM     12  C   UNL     1       3.268   5.457  18.992  0.00  0.00    +0.000 A 
ATOM     13  C   UNL     1       2.692   4.753  20.147  0.00  0.00    +0.000 A 
ATOM     14  O   UNL     1       1.791   5.249  20.818  0.00  0.00    +0.000 OA
ENDROOT
BRANCH   9  15
ATOM     15  C   UNL     1       1.383  10.294  18.417  0.00  0.00    +0.000 C 
ATOM     16  N   UNL     1       1.848  11.445  18.044  0.00  0.00    +0.000 NA
ATOM     17  H   UNL     1       2.779  11.311  17.630  0.00  0.00    +0.000 HD
BRANCH  15  18
ATOM     18  O   UNL     1       0.144  10.166  18.958  0.00  0.00    +0.000 OA
BRANCH  18  19
ATOM     19  C   UNL     1      -0.879  10.997  18.370  0.00  0.00    +0.000 C 
ATOM     20  C   UNL     1      -1.759  10.133  17.466  0.00  0.00    +0.000 C 
ATOM     21  C   UNL     1      -1.703  11.600  19.497  0.00  0.00    +0.000 C 
ENDBRANCH  18  19
ENDBRANCH  15  18
ENDBRANCH   9  15
BRANCH   1  23
ATOM     22  C   UNL     1       1.267   2.437  21.490  0.00  0.00    +0.000 C 
ATOM     23  C   UNL     1       2.736   2.813  21.614  0.00  0.00    +0.000 C 
ENDBRANCH   1  23
TORSDOF 4
ENDMDL
