MODEL 1
REMARK VINA RESULT:      -7.3      0.000      0.000
REMARK  Name = 
REMARK  6 active torsions:
REMARK  status: ('A' for Active; 'I' for Inactive)
REMARK    1  A    between atoms: C_1  and  C_2
REMARK    2  A    between atoms: C_2  and  C_3
REMARK    3  A    between atoms: C_3  and  S_4
REMARK    4  A    between atoms: S_4  and  N_7
REMARK    5  A    between atoms: N_13  and  C_14
REMARK    6  A    between atoms: C_14  and  C_15
REMARK                            x       y       z     vdW  Elec       q    Type
REMARK                         _______ _______ _______ _____ _____    ______ ____
ROOT
ATOM      1  N   UNL     1       4.281   3.175  18.498  0.00  0.00    +0.000 NA
ATOM      2  C   UNL     1       5.134   3.892  19.463  0.00  0.00    +0.000 C 
ATOM      3  C   UNL     1       5.590   5.161  18.754  0.00  0.00    +0.000 C 
ATOM      4  C   UNL     1       5.398   4.916  17.260  0.00  0.00    +0.000 C 
ATOM      5  C   UNL     1       4.621   6.041  16.547  0.00  0.00    +0.000 C 
ATOM      6  C   UNL     1       5.448   6.420  15.333  0.00  0.00    +0.000 C 
ATOM      7  N   UNL     1       6.458   5.407  15.242  0.00  0.00    +0.000 N 
ATOM      8  C   UNL     1       6.666   4.762  16.444  0.00  0.00    +0.000 C 
ATOM      9  O   UNL     1       7.625   4.071  16.744  0.00  0.00    +0.000 OA
ATOM     10  C   UNL     1       4.702   3.555  17.138  0.00  0.00    +0.000 C 
ENDROOT
BRANCH   1  11
ATOM     11  S   UNL     1       2.632   2.999  18.774  0.00  0.00    +0.000 S 
ATOM     12  O   UNL     1       2.345   1.579  18.821  0.00  0.00    +0.000 OA
ATOM     13  O   UNL     1       1.936   3.872  17.856  0.00  0.00    +0.000 OA
BRANCH  11  14
ATOM     14  C   UNL     1       2.481   3.636  20.442  0.00  0.00    +0.000 C 
BRANCH  14  16
ATOM     15  C   UNL     1       1.784   6.057  20.568  0.00  0.00    +0.000 C 
ATOM     16  C   UNL     1       1.313   4.613  20.542  0.00  0.00    +0.000 C 
ENDBRANCH  14  16
ENDBRANCH  11  14
ENDBRANCH   1  11
BRANCH   7  17
ATOM     17  C   UNL     1       7.253   5.205  14.045  0.00  0.00    +0.000 C 
BRANCH  17  18
ATOM     18  C   UNL     1       6.603   4.219  13.092  0.00  0.00    +0.000 A 
ATOM     19  C   UNL     1       5.204   4.082  13.037  0.00  0.00    +0.000 A 
ATOM     20  C   UNL     1       4.604   3.134  12.201  0.00  0.00    +0.000 A 
ATOM     21  C   UNL     1       5.396   2.306  11.409  0.00  0.00    +0.000 A 
ATOM     22  C   UNL     1       6.777   2.444  11.451  0.00  0.00    +0.000 A 
ATOM     23  F   UNL     1       7.541   1.647  10.691  0.00  0.00    +0.000 F 
ATOM     24  C   UNL     1       7.385   3.389  12.276  0.00  0.00    +0.000 A 
ENDBRANCH  17  18
ENDBRANCH   7  17
TORSDOF 5
ENDMDL
MODEL 2
REMARK VINA RESULT:      -7.1      1.068      1.119
REMARK  Name = 
REMARK  6 active torsions:
REMARK  status: ('A' for Active; 'I' for Inactive)
REMARK    1  A    between atoms: C_1  and  C_2
REMARK    2  A    between atoms: C_2  and  C_3
REMARK    3  A    between atoms: C_3  and  S_4
REMARK    4  A    between atoms: S_4  and  N_7
REMARK    5  A    between atoms: N_13  and  C_14
REMARK    6  A    between atoms: C_14  and  C_15
REMARK                            x       y       z     vdW  Elec       q    Type
REMARK                         _______ _______ _______ _____ _____    ______ ____
ROOT
ATOM      1  N   UNL     1       3.813   3.560  18.265  0.00  0.00    +0.000 NA
ATOM      2  C   UNL     1       4.718   4.110  19.291  0.00  0.00    +0.000 C 
ATOM      3  C   UNL     1       5.413   5.300  18.640  0.00  0.00    +0.000 C 
ATOM      4  C   UNL     1       5.265   5.115  17.132  0.00  0.00    +0.000 C 
ATOM      5  C   UNL     1       4.721   6.365  16.410  0.00  0.00    +0.000 C 
ATOM      6  C   UNL     1       5.664   6.624  15.249  0.00  0.00    +0.000 C 
ATOM      7  N   UNL     1       6.500   5.461  15.184  0.00  0.00    +0.000 N 
ATOM      8  C   UNL     1       6.534   4.769  16.378  0.00  0.00    +0.000 C 
ATOM      9  O   UNL     1       7.349   3.926  16.708  0.00  0.00    +0.000 OA
ATOM     10  C   UNL     1       4.365   3.888  16.938  0.00  0.00    +0.000 C 
ENDROOT
BRANCH   1  11
ATOM     11  S   UNL     1       2.145   3.650  18.452  0.00  0.00    +0.000 S 
ATOM     12  O   UNL     1       1.543   3.344  17.170  0.00  0.00    +0.000 OA
ATOM     13  O   UNL     1       1.847   4.885  19.143  0.00  0.00    +0.000 OA
BRANCH  11  14
ATOM     14  C   UNL     1       1.834   2.262  19.540  0.00  0.00    +0.000 C 
BRANCH  14  16
ATOM     15  C   UNL     1       2.240   2.930  21.939  0.00  0.00    +0.000 C 
ATOM     16  C   UNL     1       1.202   2.732  20.847  0.00  0.00    +0.000 C 
ENDBRANCH  14  16
ENDBRANCH  11  14
ENDBRANCH   1  11
BRANCH   7  17
ATOM     17  C   UNL     1       7.315   5.153  14.024  0.00  0.00    +0.000 C 
BRANCH  17  18
ATOM     18  C   UNL     1       6.621   4.186  13.083  0.00  0.00    +0.000 A 
ATOM     19  C   UNL     1       5.217   4.091  13.050  0.00  0.00    +0.000 A 
ATOM     20  C   UNL     1       4.575   3.162  12.225  0.00  0.00    +0.000 A 
ATOM     21  C   UNL     1       5.329   2.309  11.422  0.00  0.00    +0.000 A 
ATOM     22  C   UNL     1       6.715   2.405  11.442  0.00  0.00    +0.000 A 
ATOM     23  F   UNL     1       7.442   1.584  10.672  0.00  0.00    +0.000 F 
ATOM     24  C   UNL     1       7.364   3.332  12.256  0.00  0.00    +0.000 A 
ENDBRANCH  17  18
ENDBRANCH   7  17
TORSDOF 5
ENDMDL
MODEL 3
REMARK VINA RESULT:      -7.0      4.580      8.162
REMARK  Name = 
REMARK  6 active torsions:
REMARK  status: ('A' for Active; 'I' for Inactive)
REMARK    1  A    between atoms: C_1  and  C_2
REMARK    2  A    between atoms: C_2  and  C_3
REMARK    3  A    between atoms: C_3  and  S_4
REMARK    4  A    between atoms: S_4  and  N_7
REMARK    5  A    between atoms: N_13  and  C_14
REMARK    6  A    between atoms: C_14  and  C_15
REMARK                            x       y       z     vdW  Elec       q    Type
REMARK                         _______ _______ _______ _____ _____    ______ ____
ROOT
ATOM      1  N   UNL     1       5.881   4.656  18.147  0.00  0.00    +0.000 NA
ATOM      2  C   UNL     1       4.930   3.868  17.341  0.00  0.00    +0.000 C 
ATOM      3  C   UNL     1       3.751   4.793  17.064  0.00  0.00    +0.000 C 
ATOM      4  C   UNL     1       3.821   5.907  18.105  0.00  0.00    +0.000 C 
ATOM      5  C   UNL     1       3.735   7.323  17.499  0.00  0.00    +0.000 C 
ATOM      6  C   UNL     1       2.664   8.054  18.288  0.00  0.00    +0.000 C 
ATOM      7  N   UNL     1       2.377   7.200  19.403  0.00  0.00    +0.000 N 
ATOM      8  C   UNL     1       2.741   5.889  19.169  0.00  0.00    +0.000 C 
ATOM      9  O   UNL     1       2.377   4.910  19.796  0.00  0.00    +0.000 OA
ATOM     10  C   UNL     1       5.122   5.682  18.885  0.00  0.00    +0.000 C 
ENDROOT
BRANCH   1  11
ATOM     11  S   UNL     1       7.375   5.104  17.519  0.00  0.00    +0.000 S 
ATOM     12  O   UNL     1       7.174   5.473  16.132  0.00  0.00    +0.000 OA
ATOM     13  O   UNL     1       8.330   4.085  17.891  0.00  0.00    +0.000 OA
BRANCH  11  14
ATOM     14  C   UNL     1       7.710   6.606  18.435  0.00  0.00    +0.000 C 
BRANCH  14  16
ATOM     15  C   UNL     1       8.336   9.023  18.079  0.00  0.00    +0.000 C 
ATOM     16  C   UNL     1       7.570   7.830  17.535  0.00  0.00    +0.000 C 
ENDBRANCH  14  16
ENDBRANCH  11  14
ENDBRANCH   1  11
BRANCH   7  17
ATOM     17  C   UNL     1       1.655   7.664  20.573  0.00  0.00    +0.000 C 
BRANCH  17  18
ATOM     18  C   UNL     1       1.007   9.016  20.340  0.00  0.00    +0.000 A 
ATOM     19  C   UNL     1       1.164  10.063  21.266  0.00  0.00    +0.000 A 
ATOM     20  C   UNL     1       0.521  11.292  21.083  0.00  0.00    +0.000 A 
ATOM     21  C   UNL     1      -0.293  11.491  19.970  0.00  0.00    +0.000 A 
ATOM     22  C   UNL     1      -0.443  10.465  19.046  0.00  0.00    +0.000 A 
ATOM     23  F   UNL     1      -1.228  10.653  17.976  0.00  0.00    +0.000 F 
ATOM     24  C   UNL     1       0.197   9.238  19.216  0.00  0.00    +0.000 A 
ENDBRANCH  17  18
ENDBRANCH   7  17
TORSDOF 5
ENDMDL
MODEL 4
REMARK VINA RESULT:      -7.0      5.053      7.445
REMARK  Name = 
REMARK  6 active torsions:
REMARK  status: ('A' for Active; 'I' for Inactive)
REMARK    1  A    between atoms: C_1  and  C_2
REMARK    2  A    between atoms: C_2  and  C_3
REMARK    3  A    between atoms: C_3  and  S_4
REMARK    4  A    between atoms: S_4  and  N_7
REMARK    5  A    between atoms: N_13  and  C_14
REMARK    6  A    between atoms: C_14  and  C_15
REMARK                            x       y       z     vdW  Elec       q    Type
REMARK                         _______ _______ _______ _____ _____    ______ ____
ROOT
ATOM      1  N   UNL     1       3.484   3.853  17.956  0.00  0.00    +0.000 NA
ATOM      2  C   UNL     1       4.793   4.176  18.554  0.00  0.00    +0.000 C 
ATOM      3  C   UNL     1       4.574   5.439  19.378  0.00  0.00    +0.000 C 
ATOM      4  C   UNL     1       3.293   6.082  18.854  0.00  0.00    +0.000 C 
ATOM      5  C   UNL     1       2.281   6.432  19.965  0.00  0.00    +0.000 C 
ATOM      6  C   UNL     1       1.883   7.878  19.730  0.00  0.00    +0.000 C 
ATOM      7  N   UNL     1       2.426   8.208  18.445  0.00  0.00    +0.000 N 
ATOM      8  C   UNL     1       3.466   7.375  18.084  0.00  0.00    +0.000 C 
ATOM      9  O   UNL     1       4.286   7.575  17.205  0.00  0.00    +0.000 OA
ATOM     10  C   UNL     1       2.715   5.103  17.824  0.00  0.00    +0.000 C 
ENDROOT
BRANCH   1  11
ATOM     11  S   UNL     1       2.643   2.474  18.423  0.00  0.00    +0.000 S 
ATOM     12  O   UNL     1       3.505   1.712  19.303  0.00  0.00    +0.000 OA
ATOM     13  O   UNL     1       2.076   1.882  17.232  0.00  0.00    +0.000 OA
BRANCH  11  14
ATOM     14  C   UNL     1       1.335   3.179  19.424  0.00  0.00    +0.000 C 
BRANCH  14  16
ATOM     15  C   UNL     1       2.211   3.443  21.775  0.00  0.00    +0.000 C 
ATOM     16  C   UNL     1       1.365   2.600  20.835  0.00  0.00    +0.000 C 
ENDBRANCH  14  16
ENDBRANCH  11  14
ENDBRANCH   1  11
BRANCH   7  17
ATOM     17  C   UNL     1       2.002   9.378  17.700  0.00  0.00    +0.000 C 
BRANCH  17  18
ATOM     18  C   UNL     1       0.814  10.064  18.347  0.00  0.00    +0.000 A 
ATOM     19  C   UNL     1       0.990  10.953  19.423  0.00  0.00    +0.000 A 
ATOM     20  C   UNL     1      -0.107  11.543  20.059  0.00  0.00    +0.000 A 
ATOM     21  C   UNL     1      -1.400  11.250  19.629  0.00  0.00    +0.000 A 
ATOM     22  C   UNL     1      -1.579  10.382  18.560  0.00  0.00    +0.000 A 
ATOM     23  F   UNL     1      -2.822  10.097  18.147  0.00  0.00    +0.000 F 
ATOM     24  C   UNL     1      -0.493   9.792  17.916  0.00  0.00    +0.000 A 
ENDBRANCH  17  18
ENDBRANCH   7  17
TORSDOF 5
ENDMDL
MODEL 5
REMARK VINA RESULT:      -7.0      5.031      8.456
REMARK  Name = 
REMARK  6 active torsions:
REMARK  status: ('A' for Active; 'I' for Inactive)
REMARK    1  A    between atoms: C_1  and  C_2
REMARK    2  A    between atoms: C_2  and  C_3
REMARK    3  A    between atoms: C_3  and  S_4
REMARK    4  A    between atoms: S_4  and  N_7
REMARK    5  A    between atoms: N_13  and  C_14
REMARK    6  A    between atoms: C_14  and  C_15
REMARK                            x       y       z     vdW  Elec       q    Type
REMARK                         _______ _______ _______ _____ _____    ______ ____
ROOT
ATOM      1  N   UNL     1       5.018   4.745  18.625  0.00  0.00    +0.000 NA
ATOM      2  C   UNL     1       3.892   3.903  18.180  0.00  0.00    +0.000 C 
ATOM      3  C   UNL     1       2.763   4.866  17.833  0.00  0.00    +0.000 C 
ATOM      4  C   UNL     1       3.084   6.181  18.538  0.00  0.00    +0.000 C 
ATOM      5  C   UNL     1       3.019   7.409  17.606  0.00  0.00    +0.000 C 
ATOM      6  C   UNL     1       2.148   8.429  18.316  0.00  0.00    +0.000 C 
ATOM      7  N   UNL     1       1.971   7.908  19.640  0.00  0.00    +0.000 N 
ATOM      8  C   UNL     1       2.187   6.547  19.703  0.00  0.00    +0.000 C 
ATOM      9  O   UNL     1       1.848   5.797  20.602  0.00  0.00    +0.000 OA
ATOM     10  C   UNL     1       4.469   5.999  19.170  0.00  0.00    +0.000 C 
ENDROOT
BRANCH   1  11
ATOM     11  S   UNL     1       6.426   4.849  17.713  0.00  0.00    +0.000 S 
ATOM     12  O   UNL     1       6.165   4.226  16.431  0.00  0.00    +0.000 OA
ATOM     13  O   UNL     1       7.523   4.414  18.547  0.00  0.00    +0.000 OA
BRANCH  11  14
ATOM     14  C   UNL     1       6.543   6.616  17.441  0.00  0.00    +0.000 C 
BRANCH  14  16
ATOM     15  C   UNL     1       7.985   8.658  17.781  0.00  0.00    +0.000 C 
ATOM     16  C   UNL     1       7.811   7.178  18.078  0.00  0.00    +0.000 C 
ENDBRANCH  14  16
ENDBRANCH  11  14
ENDBRANCH   1  11
BRANCH   7  17
ATOM     17  C   UNL     1       1.481   8.722  20.737  0.00  0.00    +0.000 C 
BRANCH  17  18
ATOM     18  C   UNL     1       0.742   9.952  20.245  0.00  0.00    +0.000 A 
ATOM     19  C   UNL     1       1.317  11.232  20.352  0.00  0.00    +0.000 A 
ATOM     20  C   UNL     1       0.616  12.374  19.951  0.00  0.00    +0.000 A 
ATOM     21  C   UNL     1      -0.675  12.254  19.440  0.00  0.00    +0.000 A 
ATOM     22  C   UNL     1      -1.243  10.992  19.322  0.00  0.00    +0.000 A 
ATOM     23  F   UNL     1      -2.486  10.874  18.833  0.00  0.00    +0.000 F 
ATOM     24  C   UNL     1      -0.551   9.847  19.713  0.00  0.00    +0.000 A 
ENDBRANCH  17  18
ENDBRANCH   7  17
TORSDOF 5
ENDMDL
MODEL 6
REMARK VINA RESULT:      -6.9      4.874      8.420
REMARK  Name = 
REMARK  6 active torsions:
REMARK  status: ('A' for Active; 'I' for Inactive)
REMARK    1  A    between atoms: C_1  and  C_2
REMARK    2  A    between atoms: C_2  and  C_3
REMARK    3  A    between atoms: C_3  and  S_4
REMARK    4  A    between atoms: S_4  and  N_7
REMARK    5  A    between atoms: N_13  and  C_14
REMARK    6  A    between atoms: C_14  and  C_15
REMARK                            x       y       z     vdW  Elec       q    Type
REMARK                         _______ _______ _______ _____ _____    ______ ____
ROOT
ATOM      1  N   UNL     1       5.931   4.486  18.024  0.00  0.00    +0.000 NA
ATOM      2  C   UNL     1       4.990   3.762  17.149  0.00  0.00    +0.000 C 
ATOM      3  C   UNL     1       3.784   4.680  16.984  0.00  0.00    +0.000 C 
ATOM      4  C   UNL     1       3.839   5.678  18.137  0.00  0.00    +0.000 C 
ATOM      5  C   UNL     1       3.709   7.148  17.686  0.00  0.00    +0.000 C 
ATOM      6  C   UNL     1       2.631   7.762  18.559  0.00  0.00    +0.000 C 
ATOM      7  N   UNL     1       2.380   6.787  19.580  0.00  0.00    +0.000 N 
ATOM      8  C   UNL     1       2.774   5.519  19.204  0.00  0.00    +0.000 C 
ATOM      9  O   UNL     1       2.444   4.469  19.728  0.00  0.00    +0.000 OA
ATOM     10  C   UNL     1       5.156   5.407  18.875  0.00  0.00    +0.000 C 
ENDROOT
BRANCH   1  11
ATOM     11  S   UNL     1       7.405   5.037  17.431  0.00  0.00    +0.000 S 
ATOM     12  O   UNL     1       7.203   5.426  16.050  0.00  0.00    +0.000 OA
ATOM     13  O   UNL     1       8.414   4.070  17.797  0.00  0.00    +0.000 OA
BRANCH  11  14
ATOM     14  C   UNL     1       7.633   6.535  18.387  0.00  0.00    +0.000 C 
BRANCH  14  16
ATOM     15  C   UNL     1       8.320   8.944  18.088  0.00  0.00    +0.000 C 
ATOM     16  C   UNL     1       7.576   7.765  17.484  0.00  0.00    +0.000 C 
ENDBRANCH  14  16
ENDBRANCH  11  14
ENDBRANCH   1  11
BRANCH   7  17
ATOM     17  C   UNL     1       1.663   7.106  20.800  0.00  0.00    +0.000 C 
BRANCH  17  18
ATOM     18  C   UNL     1       1.052   8.493  20.753  0.00  0.00    +0.000 A 
ATOM     19  C   UNL     1       0.993   9.217  19.548  0.00  0.00    +0.000 A 
ATOM     20  C   UNL     1       0.481  10.519  19.512  0.00  0.00    +0.000 A 
ATOM     21  C   UNL     1       0.024  11.118  20.683  0.00  0.00    +0.000 A 
ATOM     22  C   UNL     1       0.069  10.405  21.874  0.00  0.00    +0.000 A 
ATOM     23  F   UNL     1      -0.369  10.980  23.002  0.00  0.00    +0.000 F 
ATOM     24  C   UNL     1       0.572   9.105  21.920  0.00  0.00    +0.000 A 
ENDBRANCH  17  18
ENDBRANCH   7  17
TORSDOF 5
ENDMDL
MODEL 7
REMARK VINA RESULT:      -6.9      6.537      9.082
REMARK  Name = 
REMARK  6 active torsions:
REMARK  status: ('A' for Active; 'I' for Inactive)
REMARK    1  A    between atoms: C_1  and  C_2
REMARK    2  A    between atoms: C_2  and  C_3
REMARK    3  A    between atoms: C_3  and  S_4
REMARK    4  A    between atoms: S_4  and  N_7
REMARK    5  A    between atoms: N_13  and  C_14
REMARK    6  A    between atoms: C_14  and  C_15
REMARK                            x       y       z     vdW  Elec       q    Type
REMARK                         _______ _______ _______ _____ _____    ______ ____
ROOT
ATOM      1  N   UNL     1       0.510  12.447  19.397  0.00  0.00    +0.000 NA
ATOM      2  C   UNL     1      -0.689  11.963  18.688  0.00  0.00    +0.000 C 
ATOM      3  C   UNL     1      -0.918  10.539  19.179  0.00  0.00    +0.000 C 
ATOM      4  C   UNL     1       0.407  10.068  19.774  0.00  0.00    +0.000 C 
ATOM      5  C   UNL     1       0.267   9.469  21.189  0.00  0.00    +0.000 C 
ATOM      6  C   UNL     1       0.989   8.134  21.153  0.00  0.00    +0.000 C 
ATOM      7  N   UNL     1       1.690   8.125  19.903  0.00  0.00    +0.000 N 
ATOM      8  C   UNL     1       1.147   9.004  18.988  0.00  0.00    +0.000 C 
ATOM      9  O   UNL     1       1.342   9.016  17.785  0.00  0.00    +0.000 OA
ATOM     10  C   UNL     1       1.344  11.282  19.741  0.00  0.00    +0.000 C 
ENDROOT
BRANCH   1  11
ATOM     11  S   UNL     1       0.398  13.680  20.534  0.00  0.00    +0.000 S 
ATOM     12  O   UNL     1       0.244  14.927  19.813  0.00  0.00    +0.000 OA
ATOM     13  O   UNL     1       1.466  13.494  21.490  0.00  0.00    +0.000 OA
BRANCH  11  14
ATOM     14  C   UNL     1      -1.174  13.306  21.309  0.00  0.00    +0.000 C 
BRANCH  14  16
ATOM     15  C   UNL     1      -2.126  11.782  23.079  0.00  0.00    +0.000 C 
ATOM     16  C   UNL     1      -0.962  12.673  22.681  0.00  0.00    +0.000 C 
ENDBRANCH  14  16
ENDBRANCH  11  14
ENDBRANCH   1  11
BRANCH   7  17
ATOM     17  C   UNL     1       2.758   7.185  19.617  0.00  0.00    +0.000 C 
BRANCH  17  18
ATOM     18  C   UNL     1       2.232   5.778  19.404  0.00  0.00    +0.000 A 
ATOM     19  C   UNL     1       2.107   5.240  18.110  0.00  0.00    +0.000 A 
ATOM     20  C   UNL     1       1.571   3.964  17.907  0.00  0.00    +0.000 A 
ATOM     21  C   UNL     1       1.146   3.207  18.997  0.00  0.00    +0.000 A 
ATOM     22  C   UNL     1       1.276   3.729  20.277  0.00  0.00    +0.000 A 
ATOM     23  F   UNL     1       0.866   3.003  21.327  0.00  0.00    +0.000 F 
ATOM     24  C   UNL     1       1.815   4.996  20.492  0.00  0.00    +0.000 A 
ENDBRANCH  17  18
ENDBRANCH   7  17
TORSDOF 5
ENDMDL
MODEL 8
REMARK VINA RESULT:      -6.9      5.257      7.621
REMARK  Name = 
REMARK  6 active torsions:
REMARK  status: ('A' for Active; 'I' for Inactive)
REMARK    1  A    between atoms: C_1  and  C_2
REMARK    2  A    between atoms: C_2  and  C_3
REMARK    3  A    between atoms: C_3  and  S_4
REMARK    4  A    between atoms: S_4  and  N_7
REMARK    5  A    between atoms: N_13  and  C_14
REMARK    6  A    between atoms: C_14  and  C_15
REMARK                            x       y       z     vdW  Elec       q    Type
REMARK                         _______ _______ _______ _____ _____    ______ ____
ROOT
ATOM      1  N   UNL     1       3.383   3.875  17.964  0.00  0.00    +0.000 NA
ATOM      2  C   UNL     1       4.705   4.193  18.533  0.00  0.00    +0.000 C 
ATOM      3  C   UNL     1       4.509   5.456  19.362  0.00  0.00    +0.000 C 
ATOM      4  C   UNL     1       3.219   6.103  18.866  0.00  0.00    +0.000 C 
ATOM      5  C   UNL     1       2.234   6.457  19.999  0.00  0.00    +0.000 C 
ATOM      6  C   UNL     1       1.836   7.904  19.774  0.00  0.00    +0.000 C 
ATOM      7  N   UNL     1       2.351   8.233  18.477  0.00  0.00    +0.000 N 
ATOM      8  C   UNL     1       3.380   7.397  18.093  0.00  0.00    +0.000 C 
ATOM      9  O   UNL     1       4.182   7.594  17.196  0.00  0.00    +0.000 OA
ATOM     10  C   UNL     1       2.616   5.127  17.849  0.00  0.00    +0.000 C 
ENDROOT
BRANCH   1  11
ATOM     11  S   UNL     1       2.547   2.499  18.449  0.00  0.00    +0.000 S 
ATOM     12  O   UNL     1       3.427   1.731  19.307  0.00  0.00    +0.000 OA
ATOM     13  O   UNL     1       1.949   1.910  17.272  0.00  0.00    +0.000 OA
BRANCH  11  14
ATOM     14  C   UNL     1       1.267   3.207  19.483  0.00  0.00    +0.000 C 
BRANCH  14  16
ATOM     15  C   UNL     1       2.223   3.501  21.799  0.00  0.00    +0.000 C 
ATOM     16  C   UNL     1       1.346   2.646  20.900  0.00  0.00    +0.000 C 
ENDBRANCH  14  16
ENDBRANCH  11  14
ENDBRANCH   1  11
BRANCH   7  17
ATOM     17  C   UNL     1       1.916   9.405  17.741  0.00  0.00    +0.000 C 
BRANCH  17  18
ATOM     18  C   UNL     1       0.754  10.103  18.422  0.00  0.00    +0.000 A 
ATOM     19  C   UNL     1      -0.571   9.879  18.004  0.00  0.00    +0.000 A 
ATOM     20  C   UNL     1      -1.639  10.563  18.592  0.00  0.00    +0.000 A 
ATOM     21  C   UNL     1      -1.398  11.488  19.606  0.00  0.00    +0.000 A 
ATOM     22  C   UNL     1      -0.094  11.705  20.031  0.00  0.00    +0.000 A 
ATOM     23  F   UNL     1       0.140  12.596  21.005  0.00  0.00    +0.000 F 
ATOM     24  C   UNL     1       0.978  11.025  19.455  0.00  0.00    +0.000 A 
ENDBRANCH  17  18
ENDBRANCH   7  17
TORSDOF 5
ENDMDL
MODEL 9
REMARK VINA RESULT:      -6.8      5.923      8.153
REMARK  Name = 
REMARK  6 active torsions:
REMARK  status: ('A' for Active; 'I' for Inactive)
REMARK    1  A    between atoms: C_1  and  C_2
REMARK    2  A    between atoms: C_2  and  C_3
REMARK    3  A    between atoms: C_3  and  S_4
REMARK    4  A    between atoms: S_4  and  N_7
REMARK    5  A    between atoms: N_13  and  C_14
REMARK    6  A    between atoms: C_14  and  C_15
REMARK                            x       y       z     vdW  Elec       q    Type
REMARK                         _______ _______ _______ _____ _____    ______ ____
ROOT
ATOM      1  N   UNL     1      -1.180  11.086  19.886  0.00  0.00    +0.000 NA
ATOM      2  C   UNL     1      -0.134  11.926  20.496  0.00  0.00    +0.000 C 
ATOM      3  C   UNL     1       1.194  11.287  20.107  0.00  0.00    +0.000 C 
ATOM      4  C   UNL     1       0.880   9.848  19.705  0.00  0.00    +0.000 C 
ATOM      5  C   UNL     1       1.476   9.447  18.340  0.00  0.00    +0.000 C 
ATOM      6  C   UNL     1       2.207   8.137  18.570  0.00  0.00    +0.000 C 
ATOM      7  N   UNL     1       1.820   7.722  19.886  0.00  0.00    +0.000 N 
ATOM      8  C   UNL     1       1.365   8.772  20.656  0.00  0.00    +0.000 C 
ATOM      9  O   UNL     1       1.235   8.784  21.868  0.00  0.00    +0.000 OA
ATOM     10  C   UNL     1      -0.648   9.720  19.737  0.00  0.00    +0.000 C 
ENDROOT
BRANCH   1  11
ATOM     11  S   UNL     1      -2.143  11.680  18.642  0.00  0.00    +0.000 S 
ATOM     12  O   UNL     1      -1.315  12.540  17.820  0.00  0.00    +0.000 OA
ATOM     13  O   UNL     1      -3.372  12.163  19.229  0.00  0.00    +0.000 OA
BRANCH  11  14
ATOM     14  C   UNL     1      -2.471  10.189  17.704  0.00  0.00    +0.000 C 
BRANCH  14  16
ATOM     15  C   UNL     1      -2.822  10.131  15.207  0.00  0.00    +0.000 C 
ATOM     16  C   UNL     1      -3.433  10.475  16.555  0.00  0.00    +0.000 C 
ENDBRANCH  14  16
ENDBRANCH  11  14
ENDBRANCH   1  11
BRANCH   7  17
ATOM     17  C   UNL     1       2.030   6.369  20.368  0.00  0.00    +0.000 C 
BRANCH  17  18
ATOM     18  C   UNL     1       2.749   5.508  19.347  0.00  0.00    +0.000 A 
ATOM     19  C   UNL     1       2.033   4.804  18.362  0.00  0.00    +0.000 A 
ATOM     20  C   UNL     1       2.688   3.965  17.455  0.00  0.00    +0.000 A 
ATOM     21  C   UNL     1       4.072   3.814  17.521  0.00  0.00    +0.000 A 
ATOM     22  C   UNL     1       4.785   4.515  18.485  0.00  0.00    +0.000 A 
ATOM     23  F   UNL     1       6.116   4.370  18.552  0.00  0.00    +0.000 F 
ATOM     24  C   UNL     1       4.143   5.358  19.390  0.00  0.00    +0.000 A 
ENDBRANCH  17  18
ENDBRANCH   7  17
TORSDOF 5
ENDMDL
