MODEL 1
REMARK VINA RESULT:      -7.4      0.000      0.000
REMARK  Name = 
REMARK  4 active torsions:
REMARK  status: ('A' for Active; 'I' for Inactive)
REMARK    1  A    between atoms: C_1  and  N_2
REMARK    2  A    between atoms: N_2  and  C_3
REMARK    3  A    between atoms: N_2  and  C_14
REMARK    4  A    between atoms: C_3  and  C_4
REMARK                            x       y       z     vdW  Elec       q    Type
REMARK                         _______ _______ _______ _____ _____    ______ ____
ROOT
ATOM      1  C   UNL     1       2.788   4.717  17.430  0.00  0.00    +0.000 C 
ENDROOT
BRANCH   1   2
ATOM      2  C   UNL     1       4.295   4.858  17.770  0.00  0.00    +0.000 A 
ATOM      3  C   UNL     1       4.778   5.220  19.053  0.00  0.00    +0.000 A 
ATOM      4  C   UNL     1       6.155   5.245  19.297  0.00  0.00    +0.000 A 
ATOM      5  N   UNL     1       7.076   5.016  18.346  0.00  0.00    +0.000 NA
ATOM      6  C   UNL     1       6.629   4.815  17.095  0.00  0.00    +0.000 A 
ATOM      7  C   UNL     1       7.552   4.657  16.081  0.00  0.00    +0.000 A 
ATOM      8  C   UNL     1       7.149   4.497  14.753  0.00  0.00    +0.000 A 
ATOM      9  C   UNL     1       5.798   4.545  14.422  0.00  0.00    +0.000 A 
ATOM     10  C   UNL     1       4.866   4.717  15.420  0.00  0.00    +0.000 A 
ATOM     11  C   UNL     1       5.251   4.787  16.754  0.00  0.00    +0.000 A 
ENDBRANCH   1   2
BRANCH   1  13
ATOM     12  C   UNL     1       2.388   2.266  17.436  0.00  0.00    +0.000 C 
ATOM     13  N   UNL     1       1.889   3.569  17.886  0.00  0.00    +0.000 NA
BRANCH  13  14
ATOM     14  C   UNL     1       1.126   3.465  19.194  0.00  0.00    +0.000 C 
ATOM     15  C   UNL     1       1.112   4.612  20.270  0.00  0.00    +0.000 C 
ATOM     16  C   UNL     1       2.114   4.357  21.402  0.00  0.00    +0.000 C 
ATOM     17  S   UNL     1       2.150   2.616  21.619  0.00  0.00    +0.000 S 
ATOM     18  O   UNL     1       1.131   2.238  22.597  0.00  0.00    +0.000 OA
ATOM     19  O   UNL     1       3.518   2.183  21.749  0.00  0.00    +0.000 OA
ATOM     20  C   UNL     1       1.559   2.210  20.010  0.00  0.00    +0.000 C 
ENDBRANCH  13  14
ENDBRANCH   1  13
TORSDOF 3
ENDMDL
MODEL 2
REMARK VINA RESULT:      -7.2      0.930      2.391
REMARK  Name = 
REMARK  4 active torsions:
REMARK  status: ('A' for Active; 'I' for Inactive)
REMARK    1  A    between atoms: C_1  and  N_2
REMARK    2  A    between atoms: N_2  and  C_3
REMARK    3  A    between atoms: N_2  and  C_14
REMARK    4  A    between atoms: C_3  and  C_4
REMARK                            x       y       z     vdW  Elec       q    Type
REMARK                         _______ _______ _______ _____ _____    ______ ____
ROOT
ATOM      1  C   UNL     1       3.136   4.490  16.974  0.00  0.00    +0.000 C 
ENDROOT
BRANCH   1   2
ATOM      2  C   UNL     1       4.624   4.500  16.536  0.00  0.00    +0.000 A 
ATOM      3  C   UNL     1       5.073   4.040  15.273  0.00  0.00    +0.000 A 
ATOM      4  C   UNL     1       6.423   4.160  14.926  0.00  0.00    +0.000 A 
ATOM      5  N   UNL     1       7.360   4.625  15.769  0.00  0.00    +0.000 NA
ATOM      6  C   UNL     1       6.968   4.928  17.018  0.00  0.00    +0.000 A 
ATOM      7  C   UNL     1       7.921   5.332  17.930  0.00  0.00    +0.000 A 
ATOM      8  C   UNL     1       7.582   5.610  19.257  0.00  0.00    +0.000 A 
ATOM      9  C   UNL     1       6.273   5.432  19.695  0.00  0.00    +0.000 A 
ATOM     10  C   UNL     1       5.315   5.015  18.801  0.00  0.00    +0.000 A 
ATOM     11  C   UNL     1       5.622   4.823  17.459  0.00  0.00    +0.000 A 
ENDBRANCH   1   2
BRANCH   1  13
ATOM     12  C   UNL     1       3.243   2.100  17.642  0.00  0.00    +0.000 C 
ATOM     13  N   UNL     1       2.432   3.321  17.662  0.00  0.00    +0.000 NA
BRANCH  13  14
ATOM     14  C   UNL     1       1.528   3.384  18.880  0.00  0.00    +0.000 C 
ATOM     15  C   UNL     1       1.481   4.621  19.849  0.00  0.00    +0.000 C 
ATOM     16  C   UNL     1       2.335   4.406  21.104  0.00  0.00    +0.000 C 
ATOM     17  S   UNL     1       2.220   2.691  21.466  0.00  0.00    +0.000 S 
ATOM     18  O   UNL     1       1.077   2.468  22.350  0.00  0.00    +0.000 OA
ATOM     19  O   UNL     1       3.531   2.186  21.785  0.00  0.00    +0.000 OA
ATOM     20  C   UNL     1       1.777   2.181  19.840  0.00  0.00    +0.000 C 
ENDBRANCH  13  14
ENDBRANCH   1  13
TORSDOF 3
ENDMDL
MODEL 3
REMARK VINA RESULT:      -7.0      2.093      2.607
REMARK  Name = 
REMARK  4 active torsions:
REMARK  status: ('A' for Active; 'I' for Inactive)
REMARK    1  A    between atoms: C_1  and  N_2
REMARK    2  A    between atoms: N_2  and  C_3
REMARK    3  A    between atoms: N_2  and  C_14
REMARK    4  A    between atoms: C_3  and  C_4
REMARK                            x       y       z     vdW  Elec       q    Type
REMARK                         _______ _______ _______ _____ _____    ______ ____
ROOT
ATOM      1  C   UNL     1       4.711   5.307  19.197  0.00  0.00    +0.000 C 
ENDROOT
BRANCH   1   2
ATOM      2  C   UNL     1       5.780   5.773  18.175  0.00  0.00    +0.000 A 
ATOM      3  C   UNL     1       6.620   6.897  18.376  0.00  0.00    +0.000 A 
ATOM      4  C   UNL     1       7.615   7.200  17.440  0.00  0.00    +0.000 A 
ATOM      5  N   UNL     1       7.778   6.520  16.293  0.00  0.00    +0.000 NA
ATOM      6  C   UNL     1       6.894   5.544  16.027  0.00  0.00    +0.000 A 
ATOM      7  C   UNL     1       6.986   4.880  14.820  0.00  0.00    +0.000 A 
ATOM      8  C   UNL     1       6.064   3.893  14.465  0.00  0.00    +0.000 A 
ATOM      9  C   UNL     1       4.998   3.595  15.308  0.00  0.00    +0.000 A 
ATOM     10  C   UNL     1       4.884   4.259  16.508  0.00  0.00    +0.000 A 
ATOM     11  C   UNL     1       5.846   5.179  16.912  0.00  0.00    +0.000 A 
ENDBRANCH   1   2
BRANCH   1  13
ATOM     12  C   UNL     1       3.087   7.021  18.426  0.00  0.00    +0.000 C 
ATOM     13  N   UNL     1       3.283   5.845  19.280  0.00  0.00    +0.000 NA
BRANCH  13  14
ATOM     14  C   UNL     1       2.007   5.039  19.440  0.00  0.00    +0.000 C 
ATOM     15  C   UNL     1       1.767   4.043  20.633  0.00  0.00    +0.000 C 
ATOM     16  C   UNL     1       2.054   2.590  20.241  0.00  0.00    +0.000 C 
ATOM     17  S   UNL     1       1.586   2.454  18.554  0.00  0.00    +0.000 S 
ATOM     18  O   UNL     1       0.177   2.070  18.482  0.00  0.00    +0.000 OA
ATOM     19  O   UNL     1       2.603   1.727  17.838  0.00  0.00    +0.000 OA
ATOM     20  C   UNL     1       1.718   4.169  18.180  0.00  0.00    +0.000 C 
ENDBRANCH  13  14
ENDBRANCH   1  13
TORSDOF 3
ENDMDL
MODEL 4
REMARK VINA RESULT:      -6.9      1.432      2.717
REMARK  Name = 
REMARK  4 active torsions:
REMARK  status: ('A' for Active; 'I' for Inactive)
REMARK    1  A    between atoms: C_1  and  N_2
REMARK    2  A    between atoms: N_2  and  C_3
REMARK    3  A    between atoms: N_2  and  C_14
REMARK    4  A    between atoms: C_3  and  C_4
REMARK                            x       y       z     vdW  Elec       q    Type
REMARK                         _______ _______ _______ _____ _____    ______ ____
ROOT
ATOM      1  C   UNL     1       3.367   3.834  17.141  0.00  0.00    +0.000 C 
ENDROOT
BRANCH   1   2
ATOM      2  C   UNL     1       4.695   4.354  16.531  0.00  0.00    +0.000 A 
ATOM      3  C   UNL     1       5.050   4.187  15.169  0.00  0.00    +0.000 A 
ATOM      4  C   UNL     1       6.230   4.758  14.681  0.00  0.00    +0.000 A 
ATOM      5  N   UNL     1       7.111   5.407  15.461  0.00  0.00    +0.000 NA
ATOM      6  C   UNL     1       6.853   5.444  16.779  0.00  0.00    +0.000 A 
ATOM      7  C   UNL     1       7.778   6.034  17.617  0.00  0.00    +0.000 A 
ATOM      8  C   UNL     1       7.590   6.057  19.001  0.00  0.00    +0.000 A 
ATOM      9  C   UNL     1       6.481   5.435  19.566  0.00  0.00    +0.000 A 
ATOM     10  C   UNL     1       5.557   4.830  18.745  0.00  0.00    +0.000 A 
ATOM     11  C   UNL     1       5.688   4.880  17.361  0.00  0.00    +0.000 A 
ENDBRANCH   1   2
BRANCH   1  13
ATOM     12  C   UNL     1       4.329   1.575  17.517  0.00  0.00    +0.000 C 
ATOM     13  N   UNL     1       3.137   2.416  17.662  0.00  0.00    +0.000 NA
BRANCH  13  14
ATOM     14  C   UNL     1       2.290   2.001  18.851  0.00  0.00    +0.000 C 
ATOM     15  C   UNL     1       0.789   2.437  19.026  0.00  0.00    +0.000 C 
ATOM     16  C   UNL     1       0.640   3.640  19.964  0.00  0.00    +0.000 C 
ATOM     17  S   UNL     1       1.904   3.459  21.169  0.00  0.00    +0.000 S 
ATOM     18  O   UNL     1       1.385   2.674  22.287  0.00  0.00    +0.000 OA
ATOM     19  O   UNL     1       2.548   4.732  21.375  0.00  0.00    +0.000 OA
ATOM     20  C   UNL     1       2.948   2.426  20.198  0.00  0.00    +0.000 C 
ENDBRANCH  13  14
ENDBRANCH   1  13
TORSDOF 3
ENDMDL
MODEL 5
REMARK VINA RESULT:      -6.9      1.873      3.045
REMARK  Name = 
REMARK  4 active torsions:
REMARK  status: ('A' for Active; 'I' for Inactive)
REMARK    1  A    between atoms: C_1  and  N_2
REMARK    2  A    between atoms: N_2  and  C_3
REMARK    3  A    between atoms: N_2  and  C_14
REMARK    4  A    between atoms: C_3  and  C_4
REMARK                            x       y       z     vdW  Elec       q    Type
REMARK                         _______ _______ _______ _____ _____    ______ ____
ROOT
ATOM      1  C   UNL     1       4.379   2.989  17.328  0.00  0.00    +0.000 C 
ENDROOT
BRANCH   1   2
ATOM      2  C   UNL     1       5.351   3.926  16.564  0.00  0.00    +0.000 A 
ATOM      3  C   UNL     1       5.556   3.868  15.162  0.00  0.00    +0.000 A 
ATOM      4  C   UNL     1       6.389   4.803  14.540  0.00  0.00    +0.000 A 
ATOM      5  N   UNL     1       7.087   5.732  15.216  0.00  0.00    +0.000 NA
ATOM      6  C   UNL     1       7.010   5.701  16.557  0.00  0.00    +0.000 A 
ATOM      7  C   UNL     1       7.778   6.590  17.283  0.00  0.00    +0.000 A 
ATOM      8  C   UNL     1       7.781   6.571  18.680  0.00  0.00    +0.000 A 
ATOM      9  C   UNL     1       7.042   5.614  19.367  0.00  0.00    +0.000 A 
ATOM     10  C   UNL     1       6.283   4.712  18.658  0.00  0.00    +0.000 A 
ATOM     11  C   UNL     1       6.202   4.779  17.271  0.00  0.00    +0.000 A 
ENDBRANCH   1   2
BRANCH   1  13
ATOM     12  C   UNL     1       2.174   1.944  17.790  0.00  0.00    +0.000 C 
ATOM     13  N   UNL     1       2.866   3.183  17.424  0.00  0.00    +0.000 NA
BRANCH  13  14
ATOM     14  C   UNL     1       2.128   4.414  17.918  0.00  0.00    +0.000 C 
ATOM     15  C   UNL     1       2.841   5.792  18.180  0.00  0.00    +0.000 C 
ATOM     16  C   UNL     1       3.174   5.999  19.662  0.00  0.00    +0.000 C 
ATOM     17  S   UNL     1       1.877   5.219  20.552  0.00  0.00    +0.000 S 
ATOM     18  O   UNL     1       0.807   6.190  20.779  0.00  0.00    +0.000 OA
ATOM     19  O   UNL     1       2.440   4.450  21.632  0.00  0.00    +0.000 OA
ATOM     20  C   UNL     1       1.381   4.134  19.257  0.00  0.00    +0.000 C 
ENDBRANCH  13  14
ENDBRANCH   1  13
TORSDOF 3
ENDMDL
MODEL 6
REMARK VINA RESULT:      -6.8      4.367      6.648
REMARK  Name = 
REMARK  4 active torsions:
REMARK  status: ('A' for Active; 'I' for Inactive)
REMARK    1  A    between atoms: C_1  and  N_2
REMARK    2  A    between atoms: N_2  and  C_3
REMARK    3  A    between atoms: N_2  and  C_14
REMARK    4  A    between atoms: C_3  and  C_4
REMARK                            x       y       z     vdW  Elec       q    Type
REMARK                         _______ _______ _______ _____ _____    ______ ____
ROOT
ATOM      1  C   UNL     1       2.844   5.845  19.710  0.00  0.00    +0.000 C 
ENDROOT
BRANCH   1   2
ATOM      2  C   UNL     1       2.451   7.225  19.119  0.00  0.00    +0.000 A 
ATOM      3  C   UNL     1       2.999   7.749  17.921  0.00  0.00    +0.000 A 
ATOM      4  C   UNL     1       2.530   8.966  17.414  0.00  0.00    +0.000 A 
ATOM      5  N   UNL     1       1.622   9.727  18.049  0.00  0.00    +0.000 NA
ATOM      6  C   UNL     1       1.204   9.306  19.255  0.00  0.00    +0.000 A 
ATOM      7  C   UNL     1       0.333  10.105  19.967  0.00  0.00    +0.000 A 
ATOM      8  C   UNL     1      -0.095   9.747  21.248  0.00  0.00    +0.000 A 
ATOM      9  C   UNL     1       0.394   8.593  21.851  0.00  0.00    +0.000 A 
ATOM     10  C   UNL     1       1.275   7.794  21.160  0.00  0.00    +0.000 A 
ATOM     11  C   UNL     1       1.638   8.093  19.851  0.00  0.00    +0.000 A 
ENDBRANCH   1   2
BRANCH   1  13
ATOM     12  C   UNL     1       2.369   4.245  17.871  0.00  0.00    +0.000 C 
ATOM     13  N   UNL     1       3.337   4.650  18.895  0.00  0.00    +0.000 NA
BRANCH  13  14
ATOM     14  C   UNL     1       4.765   4.349  18.479  0.00  0.00    +0.000 C 
ATOM     15  C   UNL     1       5.998   5.180  18.990  0.00  0.00    +0.000 C 
ATOM     16  C   UNL     1       6.445   6.239  17.975  0.00  0.00    +0.000 C 
ATOM     17  S   UNL     1       6.143   5.535  16.395  0.00  0.00    +0.000 S 
ATOM     18  O   UNL     1       7.331   4.797  15.970  0.00  0.00    +0.000 OA
ATOM     19  O   UNL     1       5.524   6.523  15.548  0.00  0.00    +0.000 OA
ATOM     20  C   UNL     1       4.927   4.378  16.929  0.00  0.00    +0.000 C 
ENDBRANCH  13  14
ENDBRANCH   1  13
TORSDOF 3
ENDMDL
MODEL 7
REMARK VINA RESULT:      -6.8      1.854      2.294
REMARK  Name = 
REMARK  4 active torsions:
REMARK  status: ('A' for Active; 'I' for Inactive)
REMARK    1  A    between atoms: C_1  and  N_2
REMARK    2  A    between atoms: N_2  and  C_3
REMARK    3  A    between atoms: N_2  and  C_14
REMARK    4  A    between atoms: C_3  and  C_4
REMARK                            x       y       z     vdW  Elec       q    Type
REMARK                         _______ _______ _______ _____ _____    ______ ____
ROOT
ATOM      1  C   UNL     1       3.561   6.253  18.235  0.00  0.00    +0.000 C 
ENDROOT
BRANCH   1   2
ATOM      2  C   UNL     1       5.016   5.714  18.214  0.00  0.00    +0.000 A 
ATOM      3  C   UNL     1       5.858   5.688  19.354  0.00  0.00    +0.000 A 
ATOM      4  C   UNL     1       7.129   5.110  19.269  0.00  0.00    +0.000 A 
ATOM      5  N   UNL     1       7.646   4.634  18.123  0.00  0.00    +0.000 NA
ATOM      6  C   UNL     1       6.911   4.786  17.008  0.00  0.00    +0.000 A 
ATOM      7  C   UNL     1       7.447   4.380  15.803  0.00  0.00    +0.000 A 
ATOM      8  C   UNL     1       6.753   4.559  14.604  0.00  0.00    +0.000 A 
ATOM      9  C   UNL     1       5.519   5.203  14.601  0.00  0.00    +0.000 A 
ATOM     10  C   UNL     1       4.978   5.627  15.793  0.00  0.00    +0.000 A 
ATOM     11  C   UNL     1       5.618   5.373  17.001  0.00  0.00    +0.000 A 
ENDBRANCH   1   2
BRANCH   1  13
ATOM     12  C   UNL     1       2.181   7.388  19.959  0.00  0.00    +0.000 C 
ATOM     13  N   UNL     1       2.583   6.095  19.398  0.00  0.00    +0.000 NA
BRANCH  13  14
ATOM     14  C   UNL     1       1.494   5.047  19.545  0.00  0.00    +0.000 C 
ATOM     15  C   UNL     1       1.420   4.055  20.763  0.00  0.00    +0.000 C 
ATOM     16  C   UNL     1       2.014   2.682  20.428  0.00  0.00    +0.000 C 
ATOM     17  S   UNL     1       1.646   2.408  18.733  0.00  0.00    +0.000 S 
ATOM     18  O   UNL     1       0.349   1.741  18.631  0.00  0.00    +0.000 OA
ATOM     19  O   UNL     1       2.816   1.889  18.073  0.00  0.00    +0.000 OA
ATOM     20  C   UNL     1       1.437   4.104  18.306  0.00  0.00    +0.000 C 
ENDBRANCH  13  14
ENDBRANCH   1  13
TORSDOF 3
ENDMDL
MODEL 8
REMARK VINA RESULT:      -6.8      3.501      6.592
REMARK  Name = 
REMARK  4 active torsions:
REMARK  status: ('A' for Active; 'I' for Inactive)
REMARK    1  A    between atoms: C_1  and  N_2
REMARK    2  A    between atoms: N_2  and  C_3
REMARK    3  A    between atoms: N_2  and  C_14
REMARK    4  A    between atoms: C_3  and  C_4
REMARK                            x       y       z     vdW  Elec       q    Type
REMARK                         _______ _______ _______ _____ _____    ______ ____
ROOT
ATOM      1  C   UNL     1       5.556   3.958  18.922  0.00  0.00    +0.000 C 
ENDROOT
BRANCH   1   2
ATOM      2  C   UNL     1       4.086   3.744  18.476  0.00  0.00    +0.000 A 
ATOM      3  C   UNL     1       3.636   3.926  17.144  0.00  0.00    +0.000 A 
ATOM      4  C   UNL     1       2.310   3.633  16.810  0.00  0.00    +0.000 A 
ATOM      5  N   UNL     1       1.390   3.253  17.713  0.00  0.00    +0.000 NA
ATOM      6  C   UNL     1       1.772   3.217  19.001  0.00  0.00    +0.000 A 
ATOM      7  C   UNL     1       0.830   2.908  19.961  0.00  0.00    +0.000 A 
ATOM      8  C   UNL     1       1.154   2.907  21.320  0.00  0.00    +0.000 A 
ATOM      9  C   UNL     1       2.432   3.270  21.733  0.00  0.00    +0.000 A 
ATOM     10  C   UNL     1       3.378   3.595  20.789  0.00  0.00    +0.000 A 
ATOM     11  C   UNL     1       3.092   3.512  19.430  0.00  0.00    +0.000 A 
ENDBRANCH   1   2
BRANCH   1  13
ATOM     12  C   UNL     1       7.244   5.483  19.917  0.00  0.00    +0.000 C 
ATOM     13  N   UNL     1       6.331   5.268  18.790  0.00  0.00    +0.000 NA
BRANCH  13  14
ATOM     14  C   UNL     1       6.845   5.906  17.512  0.00  0.00    +0.000 C 
ATOM     15  C   UNL     1       5.935   6.762  16.557  0.00  0.00    +0.000 C 
ATOM     16  C   UNL     1       5.420   5.949  15.364  0.00  0.00    +0.000 C 
ATOM     17  S   UNL     1       6.705   4.818  14.974  0.00  0.00    +0.000 S 
ATOM     18  O   UNL     1       7.609   5.441  14.008  0.00  0.00    +0.000 OA
ATOM     19  O   UNL     1       6.135   3.515  14.742  0.00  0.00    +0.000 OA
ATOM     20  C   UNL     1       7.474   4.847  16.558  0.00  0.00    +0.000 C 
ENDBRANCH  13  14
ENDBRANCH   1  13
TORSDOF 3
ENDMDL
MODEL 9
REMARK VINA RESULT:      -6.8      4.591      7.065
REMARK  Name = 
REMARK  4 active torsions:
REMARK  status: ('A' for Active; 'I' for Inactive)
REMARK    1  A    between atoms: C_1  and  N_2
REMARK    2  A    between atoms: N_2  and  C_3
REMARK    3  A    between atoms: N_2  and  C_14
REMARK    4  A    between atoms: C_3  and  C_4
REMARK                            x       y       z     vdW  Elec       q    Type
REMARK                         _______ _______ _______ _____ _____    ______ ____
ROOT
ATOM      1  C   UNL     1       2.528   6.493  19.730  0.00  0.00    +0.000 C 
ENDROOT
BRANCH   1   2
ATOM      2  C   UNL     1       2.014   7.892  19.301  0.00  0.00    +0.000 A 
ATOM      3  C   UNL     1       2.339   8.501  18.063  0.00  0.00    +0.000 A 
ATOM      4  C   UNL     1       1.768   9.730  17.719  0.00  0.00    +0.000 A 
ATOM      5  N   UNL     1       0.967  10.426  18.544  0.00  0.00    +0.000 NA
ATOM      6  C   UNL     1       0.770   9.925  19.775  0.00  0.00    +0.000 A 
ATOM      7  C   UNL     1       0.018  10.656  20.673  0.00  0.00    +0.000 A 
ATOM      8  C   UNL     1      -0.178  10.212  21.983  0.00  0.00    +0.000 A 
ATOM      9  C   UNL     1       0.430   9.040  22.422  0.00  0.00    +0.000 A 
ATOM     10  C   UNL     1       1.194   8.308  21.543  0.00  0.00    +0.000 A 
ATOM     11  C   UNL     1       1.322   8.693  20.213  0.00  0.00    +0.000 A 
ENDBRANCH   1   2
BRANCH   1  13
ATOM     12  C   UNL     1       2.666   4.906  17.825  0.00  0.00    +0.000 C 
ATOM     13  N   UNL     1       3.420   5.587  18.882  0.00  0.00    +0.000 NA
BRANCH  13  14
ATOM     14  C   UNL     1       4.863   5.835  18.482  0.00  0.00    +0.000 C 
ATOM     15  C   UNL     1       5.272   6.776  17.290  0.00  0.00    +0.000 C 
ATOM     16  C   UNL     1       5.565   5.991  16.007  0.00  0.00    +0.000 C 
ATOM     17  S   UNL     1       6.275   4.474  16.532  0.00  0.00    +0.000 S 
ATOM     18  O   UNL     1       7.725   4.634  16.625  0.00  0.00    +0.000 OA
ATOM     19  O   UNL     1       5.681   3.391  15.790  0.00  0.00    +0.000 OA
ATOM     20  C   UNL     1       5.605   4.502  18.160  0.00  0.00    +0.000 C 
ENDBRANCH  13  14
ENDBRANCH   1  13
TORSDOF 3
ENDMDL
