MODEL 1
REMARK VINA RESULT:      -6.5      0.000      0.000
REMARK  Name = 
REMARK  11 active torsions:
REMARK  status: ('A' for Active; 'I' for Inactive)
REMARK    1  A    between atoms: C_1  and  C_2
REMARK    2  A    between atoms: C_2  and  S_4
REMARK    3  A    between atoms: S_4  and  C_5
REMARK    4  A    between atoms: C_5  and  C_6
REMARK    5  A    between atoms: C_6  and  C_7
REMARK    6  A    between atoms: C_6  and  C_8
REMARK    7  A    between atoms: N_10  and  C_11
REMARK    8  A    between atoms: N_10  and  C_14
REMARK    9  A    between atoms: C_14  and  C_15
REMARK   10  A    between atoms: C_14  and  C_16
REMARK   11  A    between atoms: C_16  and  O_18
REMARK                            x       y       z     vdW  Elec       q    Type
REMARK                         _______ _______ _______ _____ _____    ______ ____
ROOT
ATOM      1  C   UNL     1       4.890   5.367  17.799  0.00  0.00    +0.000 C 
ATOM      2  O   UNL     1       5.136   5.641  18.975  0.00  0.00    +0.000 OA
ATOM      3  N   UNL     1       5.829   5.621  16.783  0.00  0.00    +0.000 N 
ENDROOT
BRANCH   3   4
ATOM      4  C   UNL     1       5.659   5.154  15.414  0.00  0.00    +0.000 C 
ATOM      5  C   UNL     1       6.835   4.889  14.506  0.00  0.00    +0.000 C 
ATOM      6  C   UNL     1       5.971   3.754  14.941  0.00  0.00    +0.000 C 
ENDBRANCH   3   4
BRANCH   1   7
ATOM      7  C   UNL     1       3.501   4.844  17.413  0.00  0.00    +0.000 C 
ATOM      8  C   UNL     1       2.461   5.701  18.141  0.00  0.00    +0.000 C 
BRANCH   7   9
ATOM      9  C   UNL     1       3.395   3.353  17.806  0.00  0.00    +0.000 C 
BRANCH   9  10
ATOM     10  S   UNL     1       1.879   2.998  18.767  0.00  0.00    +0.000 S 
BRANCH  10  12
ATOM     11  C   UNL     1       1.590   2.749  21.485  0.00  0.00    +0.000 C 
ATOM     12  C   UNL     1       2.582   2.708  20.356  0.00  0.00    +0.000 C 
ATOM     13  O   UNL     1       3.779   2.509  20.518  0.00  0.00    +0.000 OA
ENDBRANCH  10  12
ENDBRANCH   9  10
ENDBRANCH   7   9
ENDBRANCH   1   7
BRANCH   3  14
ATOM     14  C   UNL     1       7.189   6.074  17.213  0.00  0.00    +0.000 C 
ATOM     15  C   UNL     1       7.231   7.535  17.657  0.00  0.00    +0.000 C 
BRANCH  14  16
ATOM     16  C   UNL     1       7.835   5.117  18.224  0.00  0.00    +0.000 C 
ATOM     17  O   UNL     1       8.045   5.383  19.400  0.00  0.00    +0.000 OA
BRANCH  16  18
ATOM     18  O   UNL     1       8.250   3.951  17.671  0.00  0.00    +0.000 OA
ATOM     19  H   UNL     1       7.482   3.454  17.325  0.00  0.00    +0.000 HD
ENDBRANCH  16  18
ENDBRANCH  14  16
ENDBRANCH   3  14
TORSDOF 8
ENDMDL
MODEL 2
REMARK VINA RESULT:      -6.4      1.105      1.296
REMARK  Name = 
REMARK  11 active torsions:
REMARK  status: ('A' for Active; 'I' for Inactive)
REMARK    1  A    between atoms: C_1  and  C_2
REMARK    2  A    between atoms: C_2  and  S_4
REMARK    3  A    between atoms: S_4  and  C_5
REMARK    4  A    between atoms: C_5  and  C_6
REMARK    5  A    between atoms: C_6  and  C_7
REMARK    6  A    between atoms: C_6  and  C_8
REMARK    7  A    between atoms: N_10  and  C_11
REMARK    8  A    between atoms: N_10  and  C_14
REMARK    9  A    between atoms: C_14  and  C_15
REMARK   10  A    between atoms: C_14  and  C_16
REMARK   11  A    between atoms: C_16  and  O_18
REMARK                            x       y       z     vdW  Elec       q    Type
REMARK                         _______ _______ _______ _____ _____    ______ ____
ROOT
ATOM      1  C   UNL     1       4.800   4.264  17.926  0.00  0.00    +0.000 C 
ATOM      2  O   UNL     1       4.857   4.833  19.018  0.00  0.00    +0.000 OA
ATOM      3  N   UNL     1       5.674   4.610  16.880  0.00  0.00    +0.000 N 
ENDROOT
BRANCH   3   4
ATOM      4  C   UNL     1       5.766   3.848  15.642  0.00  0.00    +0.000 C 
ATOM      5  C   UNL     1       5.195   4.361  14.342  0.00  0.00    +0.000 C 
ATOM      6  C   UNL     1       6.671   4.198  14.484  0.00  0.00    +0.000 C 
ENDBRANCH   3   4
BRANCH   1   7
ATOM      7  C   UNL     1       3.691   3.238  17.659  0.00  0.00    +0.000 C 
ATOM      8  C   UNL     1       2.413   4.011  17.321  0.00  0.00    +0.000 C 
BRANCH   7   9
ATOM      9  C   UNL     1       3.511   2.350  18.912  0.00  0.00    +0.000 C 
BRANCH   9  10
ATOM     10  S   UNL     1       1.781   2.334  19.505  0.00  0.00    +0.000 S 
BRANCH  10  12
ATOM     11  C   UNL     1       1.899   4.685  20.918  0.00  0.00    +0.000 C 
ATOM     12  C   UNL     1       1.971   3.188  21.035  0.00  0.00    +0.000 C 
ATOM     13  O   UNL     1       2.163   2.603  22.093  0.00  0.00    +0.000 OA
ENDBRANCH  10  12
ENDBRANCH   9  10
ENDBRANCH   7   9
ENDBRANCH   1   7
BRANCH   3  14
ATOM     14  C   UNL     1       6.775   5.570  17.204  0.00  0.00    +0.000 C 
ATOM     15  C   UNL     1       6.280   6.979  17.519  0.00  0.00    +0.000 C 
BRANCH  14  16
ATOM     16  C   UNL     1       7.742   5.019  18.263  0.00  0.00    +0.000 C 
ATOM     17  O   UNL     1       7.921   5.515  19.367  0.00  0.00    +0.000 OA
BRANCH  16  18
ATOM     18  O   UNL     1       8.470   3.962  17.828  0.00  0.00    +0.000 OA
ATOM     19  H   UNL     1       8.318   3.823  16.872  0.00  0.00    +0.000 HD
ENDBRANCH  16  18
ENDBRANCH  14  16
ENDBRANCH   3  14
TORSDOF 8
ENDMDL
MODEL 3
REMARK VINA RESULT:      -6.2      0.855      1.213
REMARK  Name = 
REMARK  11 active torsions:
REMARK  status: ('A' for Active; 'I' for Inactive)
REMARK    1  A    between atoms: C_1  and  C_2
REMARK    2  A    between atoms: C_2  and  S_4
REMARK    3  A    between atoms: S_4  and  C_5
REMARK    4  A    between atoms: C_5  and  C_6
REMARK    5  A    between atoms: C_6  and  C_7
REMARK    6  A    between atoms: C_6  and  C_8
REMARK    7  A    between atoms: N_10  and  C_11
REMARK    8  A    between atoms: N_10  and  C_14
REMARK    9  A    between atoms: C_14  and  C_15
REMARK   10  A    between atoms: C_14  and  C_16
REMARK   11  A    between atoms: C_16  and  O_18
REMARK                            x       y       z     vdW  Elec       q    Type
REMARK                         _______ _______ _______ _____ _____    ______ ____
ROOT
ATOM      1  C   UNL     1       4.590   4.598  17.590  0.00  0.00    +0.000 C 
ATOM      2  O   UNL     1       4.592   5.229  18.649  0.00  0.00    +0.000 OA
ATOM      3  N   UNL     1       5.606   4.779  16.635  0.00  0.00    +0.000 N 
ENDROOT
BRANCH   3   4
ATOM      4  C   UNL     1       5.745   3.932  15.458  0.00  0.00    +0.000 C 
ATOM      5  C   UNL     1       5.248   4.361  14.099  0.00  0.00    +0.000 C 
ATOM      6  C   UNL     1       6.711   4.188  14.326  0.00  0.00    +0.000 C 
ENDBRANCH   3   4
BRANCH   1   7
ATOM      7  C   UNL     1       3.407   3.682  17.251  0.00  0.00    +0.000 C 
ATOM      8  C   UNL     1       2.119   4.437  17.594  0.00  0.00    +0.000 C 
BRANCH   7   9
ATOM      9  C   UNL     1       3.536   2.370  18.059  0.00  0.00    +0.000 C 
BRANCH   9  10
ATOM     10  S   UNL     1       2.141   2.133  19.219  0.00  0.00    +0.000 S 
BRANCH  10  12
ATOM     11  C   UNL     1       2.087   3.781  21.413  0.00  0.00    +0.000 C 
ATOM     12  C   UNL     1       2.878   2.712  20.711  0.00  0.00    +0.000 C 
ATOM     13  O   UNL     1       3.949   2.287  21.122  0.00  0.00    +0.000 OA
ENDBRANCH  10  12
ENDBRANCH   9  10
ENDBRANCH   7   9
ENDBRANCH   1   7
BRANCH   3  14
ATOM     14  C   UNL     1       6.768   5.635  17.032  0.00  0.00    +0.000 C 
ATOM     15  C   UNL     1       6.371   7.061  17.409  0.00  0.00    +0.000 C 
BRANCH  14  16
ATOM     16  C   UNL     1       7.662   4.960  18.082  0.00  0.00    +0.000 C 
ATOM     17  O   UNL     1       8.459   4.062  17.846  0.00  0.00    +0.000 OA
BRANCH  16  18
ATOM     18  O   UNL     1       7.425   5.390  19.346  0.00  0.00    +0.000 OA
ATOM     19  H   UNL     1       8.133   6.003  19.628  0.00  0.00    +0.000 HD
ENDBRANCH  16  18
ENDBRANCH  14  16
ENDBRANCH   3  14
TORSDOF 8
ENDMDL
MODEL 4
REMARK VINA RESULT:      -6.2      0.898      1.168
REMARK  Name = 
REMARK  11 active torsions:
REMARK  status: ('A' for Active; 'I' for Inactive)
REMARK    1  A    between atoms: C_1  and  C_2
REMARK    2  A    between atoms: C_2  and  S_4
REMARK    3  A    between atoms: S_4  and  C_5
REMARK    4  A    between atoms: C_5  and  C_6
REMARK    5  A    between atoms: C_6  and  C_7
REMARK    6  A    between atoms: C_6  and  C_8
REMARK    7  A    between atoms: N_10  and  C_11
REMARK    8  A    between atoms: N_10  and  C_14
REMARK    9  A    between atoms: C_14  and  C_15
REMARK   10  A    between atoms: C_14  and  C_16
REMARK   11  A    between atoms: C_16  and  O_18
REMARK                            x       y       z     vdW  Elec       q    Type
REMARK                         _______ _______ _______ _____ _____    ______ ____
ROOT
ATOM      1  C   UNL     1       4.844   5.450  17.758  0.00  0.00    +0.000 C 
ATOM      2  O   UNL     1       5.112   5.770  18.918  0.00  0.00    +0.000 OA
ATOM      3  N   UNL     1       5.776   5.631  16.721  0.00  0.00    +0.000 N 
ENDROOT
BRANCH   3   4
ATOM      4  C   UNL     1       5.575   5.106  15.377  0.00  0.00    +0.000 C 
ATOM      5  C   UNL     1       6.724   4.886  14.423  0.00  0.00    +0.000 C 
ATOM      6  C   UNL     1       5.958   3.714  14.933  0.00  0.00    +0.000 C 
ENDBRANCH   3   4
BRANCH   1   7
ATOM      7  C   UNL     1       3.435   4.949  17.413  0.00  0.00    +0.000 C 
ATOM      8  C   UNL     1       2.432   5.812  18.183  0.00  0.00    +0.000 C 
BRANCH   7   9
ATOM      9  C   UNL     1       3.322   3.455  17.796  0.00  0.00    +0.000 C 
BRANCH   9  10
ATOM     10  S   UNL     1       3.404   3.198  19.606  0.00  0.00    +0.000 S 
BRANCH  10  12
ATOM     11  C   UNL     1       1.391   2.640  21.386  0.00  0.00    +0.000 C 
ATOM     12  C   UNL     1       1.740   2.718  19.926  0.00  0.00    +0.000 C 
ATOM     13  O   UNL     1       0.949   2.456  19.029  0.00  0.00    +0.000 OA
ENDBRANCH  10  12
ENDBRANCH   9  10
ENDBRANCH   7   9
ENDBRANCH   1   7
BRANCH   3  14
ATOM     14  C   UNL     1       7.153   6.065  17.113  0.00  0.00    +0.000 C 
ATOM     15  C   UNL     1       7.218   7.509  17.605  0.00  0.00    +0.000 C 
BRANCH  14  16
ATOM     16  C   UNL     1       7.833   5.071  18.066  0.00  0.00    +0.000 C 
ATOM     17  O   UNL     1       8.326   4.004  17.725  0.00  0.00    +0.000 OA
BRANCH  16  18
ATOM     18  O   UNL     1       7.761   5.441  19.368  0.00  0.00    +0.000 OA
ATOM     19  H   UNL     1       8.461   6.093  19.569  0.00  0.00    +0.000 HD
ENDBRANCH  16  18
ENDBRANCH  14  16
ENDBRANCH   3  14
TORSDOF 8
ENDMDL
MODEL 5
REMARK VINA RESULT:      -6.2      0.952      1.036
REMARK  Name = 
REMARK  11 active torsions:
REMARK  status: ('A' for Active; 'I' for Inactive)
REMARK    1  A    between atoms: C_1  and  C_2
REMARK    2  A    between atoms: C_2  and  S_4
REMARK    3  A    between atoms: S_4  and  C_5
REMARK    4  A    between atoms: C_5  and  C_6
REMARK    5  A    between atoms: C_6  and  C_7
REMARK    6  A    between atoms: C_6  and  C_8
REMARK    7  A    between atoms: N_10  and  C_11
REMARK    8  A    between atoms: N_10  and  C_14
REMARK    9  A    between atoms: C_14  and  C_15
REMARK   10  A    between atoms: C_14  and  C_16
REMARK   11  A    between atoms: C_16  and  O_18
REMARK                            x       y       z     vdW  Elec       q    Type
REMARK                         _______ _______ _______ _____ _____    ______ ____
ROOT
ATOM      1  C   UNL     1       4.730   5.947  18.053  0.00  0.00    +0.000 C 
ATOM      2  O   UNL     1       5.065   6.111  19.228  0.00  0.00    +0.000 OA
ATOM      3  N   UNL     1       5.677   5.990  17.015  0.00  0.00    +0.000 N 
ENDROOT
BRANCH   3   4
ATOM      4  C   UNL     1       5.360   5.626  15.640  0.00  0.00    +0.000 C 
ATOM      5  C   UNL     1       6.418   5.154  14.673  0.00  0.00    +0.000 C 
ATOM      6  C   UNL     1       5.347   4.212  15.109  0.00  0.00    +0.000 C 
ENDBRANCH   3   4
BRANCH   1   7
ATOM      7  C   UNL     1       3.244   5.803  17.699  0.00  0.00    +0.000 C 
ATOM      8  C   UNL     1       2.564   7.145  17.986  0.00  0.00    +0.000 C 
BRANCH   7   9
ATOM      9  C   UNL     1       2.632   4.658  18.539  0.00  0.00    +0.000 C 
BRANCH   9  10
ATOM     10  S   UNL     1       3.462   3.057  18.232  0.00  0.00    +0.000 S 
BRANCH  10  12
ATOM     11  C   UNL     1       2.825   2.788  20.888  0.00  0.00    +0.000 C 
ATOM     12  C   UNL     1       3.926   2.629  19.876  0.00  0.00    +0.000 C 
ATOM     13  O   UNL     1       5.055   2.253  20.163  0.00  0.00    +0.000 OA
ENDBRANCH  10  12
ENDBRANCH   9  10
ENDBRANCH   7   9
ENDBRANCH   1   7
BRANCH   3  14
ATOM     14  C   UNL     1       7.117   6.073  17.411  0.00  0.00    +0.000 C 
ATOM     15  C   UNL     1       7.586   7.496  17.706  0.00  0.00    +0.000 C 
BRANCH  14  16
ATOM     16  C   UNL     1       7.479   5.076  18.522  0.00  0.00    +0.000 C 
ATOM     17  O   UNL     1       8.233   5.315  19.455  0.00  0.00    +0.000 OA
BRANCH  16  18
ATOM     18  O   UNL     1       6.950   3.843  18.330  0.00  0.00    +0.000 OA
ATOM     19  H   UNL     1       7.460   3.179  18.834  0.00  0.00    +0.000 HD
ENDBRANCH  16  18
ENDBRANCH  14  16
ENDBRANCH   3  14
TORSDOF 8
ENDMDL
MODEL 6
REMARK VINA RESULT:      -6.0      2.189      3.171
REMARK  Name = 
REMARK  11 active torsions:
REMARK  status: ('A' for Active; 'I' for Inactive)
REMARK    1  A    between atoms: C_1  and  C_2
REMARK    2  A    between atoms: C_2  and  S_4
REMARK    3  A    between atoms: S_4  and  C_5
REMARK    4  A    between atoms: C_5  and  C_6
REMARK    5  A    between atoms: C_6  and  C_7
REMARK    6  A    between atoms: C_6  and  C_8
REMARK    7  A    between atoms: N_10  and  C_11
REMARK    8  A    between atoms: N_10  and  C_14
REMARK    9  A    between atoms: C_14  and  C_15
REMARK   10  A    between atoms: C_14  and  C_16
REMARK   11  A    between atoms: C_16  and  O_18
REMARK                            x       y       z     vdW  Elec       q    Type
REMARK                         _______ _______ _______ _____ _____    ______ ____
ROOT
ATOM      1  C   UNL     1       4.764   4.047  17.719  0.00  0.00    +0.000 C 
ATOM      2  O   UNL     1       4.143   3.271  16.990  0.00  0.00    +0.000 OA
ATOM      3  N   UNL     1       5.543   5.085  17.177  0.00  0.00    +0.000 N 
ENDROOT
BRANCH   3   4
ATOM      4  C   UNL     1       6.145   6.131  17.993  0.00  0.00    +0.000 C 
ATOM      5  C   UNL     1       7.333   5.866  18.887  0.00  0.00    +0.000 C 
ATOM      6  C   UNL     1       7.483   6.774  17.714  0.00  0.00    +0.000 C 
ENDBRANCH   3   4
BRANCH   1   7
ATOM      7  C   UNL     1       4.782   3.819  19.236  0.00  0.00    +0.000 C 
ATOM      8  C   UNL     1       4.442   2.347  19.489  0.00  0.00    +0.000 C 
BRANCH   7   9
ATOM      9  C   UNL     1       3.761   4.768  19.903  0.00  0.00    +0.000 C 
BRANCH   9  10
ATOM     10  S   UNL     1       2.389   5.208  18.776  0.00  0.00    +0.000 S 
BRANCH  10  12
ATOM     11  C   UNL     1       0.958   3.582  20.463  0.00  0.00    +0.000 C 
ATOM     12  C   UNL     1       1.329   3.823  19.025  0.00  0.00    +0.000 C 
ATOM     13  O   UNL     1       0.946   3.115  18.103  0.00  0.00    +0.000 OA
ENDBRANCH  10  12
ENDBRANCH   9  10
ENDBRANCH   7   9
ENDBRANCH   1   7
BRANCH   3  14
ATOM     14  C   UNL     1       5.448   5.307  15.700  0.00  0.00    +0.000 C 
ATOM     15  C   UNL     1       5.193   6.764  15.320  0.00  0.00    +0.000 C 
BRANCH  14  16
ATOM     16  C   UNL     1       6.622   4.680  14.935  0.00  0.00    +0.000 C 
ATOM     17  O   UNL     1       7.633   5.280  14.596  0.00  0.00    +0.000 OA
BRANCH  16  18
ATOM     18  O   UNL     1       6.401   3.392  14.574  0.00  0.00    +0.000 OA
ATOM     19  H   UNL     1       6.477   3.300  13.604  0.00  0.00    +0.000 HD
ENDBRANCH  16  18
ENDBRANCH  14  16
ENDBRANCH   3  14
TORSDOF 8
ENDMDL
MODEL 7
REMARK VINA RESULT:      -6.0      2.616      6.049
REMARK  Name = 
REMARK  11 active torsions:
REMARK  status: ('A' for Active; 'I' for Inactive)
REMARK    1  A    between atoms: C_1  and  C_2
REMARK    2  A    between atoms: C_2  and  S_4
REMARK    3  A    between atoms: S_4  and  C_5
REMARK    4  A    between atoms: C_5  and  C_6
REMARK    5  A    between atoms: C_6  and  C_7
REMARK    6  A    between atoms: C_6  and  C_8
REMARK    7  A    between atoms: N_10  and  C_11
REMARK    8  A    between atoms: N_10  and  C_14
REMARK    9  A    between atoms: C_14  and  C_15
REMARK   10  A    between atoms: C_14  and  C_16
REMARK   11  A    between atoms: C_16  and  O_18
REMARK                            x       y       z     vdW  Elec       q    Type
REMARK                         _______ _______ _______ _____ _____    ______ ____
ROOT
ATOM      1  C   UNL     1       4.102   4.332  18.913  0.00  0.00    +0.000 C 
ATOM      2  O   UNL     1       4.615   3.393  18.300  0.00  0.00    +0.000 OA
ATOM      3  N   UNL     1       2.973   4.136  19.728  0.00  0.00    +0.000 N 
ENDROOT
BRANCH   3   4
ATOM      4  C   UNL     1       2.444   5.170  20.608  0.00  0.00    +0.000 C 
ATOM      5  C   UNL     1       2.085   6.546  20.101  0.00  0.00    +0.000 C 
ATOM      6  C   UNL     1       1.010   5.645  20.608  0.00  0.00    +0.000 C 
ENDBRANCH   3   4
BRANCH   1   7
ATOM      7  C   UNL     1       4.628   5.757  18.702  0.00  0.00    +0.000 C 
ATOM      8  C   UNL     1       4.150   6.232  17.326  0.00  0.00    +0.000 C 
BRANCH   7   9
ATOM      9  C   UNL     1       6.171   5.747  18.802  0.00  0.00    +0.000 C 
BRANCH   9  10
ATOM     10  S   UNL     1       6.966   6.388  17.285  0.00  0.00    +0.000 S 
BRANCH  10  12
ATOM     11  C   UNL     1       6.871   4.663  15.151  0.00  0.00    +0.000 C 
ATOM     12  C   UNL     1       7.447   4.873  16.525  0.00  0.00    +0.000 C 
ATOM     13  O   UNL     1       8.173   4.060  17.082  0.00  0.00    +0.000 OA
ENDBRANCH  10  12
ENDBRANCH   9  10
ENDBRANCH   7   9
ENDBRANCH   1   7
BRANCH   3  14
ATOM     14  C   UNL     1       2.532   2.724  19.952  0.00  0.00    +0.000 C 
ATOM     15  C   UNL     1       2.043   2.457  21.374  0.00  0.00    +0.000 C 
BRANCH  14  16
ATOM     16  C   UNL     1       1.552   2.237  18.875  0.00  0.00    +0.000 C 
ATOM     17  O   UNL     1       0.334   2.321  18.953  0.00  0.00    +0.000 OA
BRANCH  16  18
ATOM     18  O   UNL     1       2.159   1.605  17.841  0.00  0.00    +0.000 OA
ATOM     19  H   UNL     1       1.556   1.565  17.073  0.00  0.00    +0.000 HD
ENDBRANCH  16  18
ENDBRANCH  14  16
ENDBRANCH   3  14
TORSDOF 8
ENDMDL
MODEL 8
REMARK VINA RESULT:      -6.0      2.413      5.826
REMARK  Name = 
REMARK  11 active torsions:
REMARK  status: ('A' for Active; 'I' for Inactive)
REMARK    1  A    between atoms: C_1  and  C_2
REMARK    2  A    between atoms: C_2  and  S_4
REMARK    3  A    between atoms: S_4  and  C_5
REMARK    4  A    between atoms: C_5  and  C_6
REMARK    5  A    between atoms: C_6  and  C_7
REMARK    6  A    between atoms: C_6  and  C_8
REMARK    7  A    between atoms: N_10  and  C_11
REMARK    8  A    between atoms: N_10  and  C_14
REMARK    9  A    between atoms: C_14  and  C_15
REMARK   10  A    between atoms: C_14  and  C_16
REMARK   11  A    between atoms: C_16  and  O_18
REMARK                            x       y       z     vdW  Elec       q    Type
REMARK                         _______ _______ _______ _____ _____    ______ ____
ROOT
ATOM      1  C   UNL     1       4.667   5.330  18.384  0.00  0.00    +0.000 C 
ATOM      2  O   UNL     1       4.355   6.520  18.311  0.00  0.00    +0.000 OA
ATOM      3  N   UNL     1       3.717   4.350  18.722  0.00  0.00    +0.000 N 
ENDROOT
BRANCH   3   4
ATOM      4  C   UNL     1       3.993   2.921  18.645  0.00  0.00    +0.000 C 
ATOM      5  C   UNL     1       4.452   2.128  19.845  0.00  0.00    +0.000 C 
ATOM      6  C   UNL     1       3.118   1.845  19.242  0.00  0.00    +0.000 C 
ENDBRANCH   3   4
BRANCH   1   7
ATOM      7  C   UNL     1       6.134   4.916  18.215  0.00  0.00    +0.000 C 
ATOM      8  C   UNL     1       6.938   5.578  19.338  0.00  0.00    +0.000 C 
BRANCH   7   9
ATOM      9  C   UNL     1       6.626   5.358  16.818  0.00  0.00    +0.000 C 
BRANCH   9  10
ATOM     10  S   UNL     1       5.539   4.750  15.478  0.00  0.00    +0.000 S 
BRANCH  10  12
ATOM     11  C   UNL     1       6.324   3.731  13.053  0.00  0.00    +0.000 C 
ATOM     12  C   UNL     1       6.692   4.695  14.146  0.00  0.00    +0.000 C 
ATOM     13  O   UNL     1       7.710   5.375  14.131  0.00  0.00    +0.000 OA
ENDBRANCH  10  12
ENDBRANCH   9  10
ENDBRANCH   7   9
ENDBRANCH   1   7
BRANCH   3  14
ATOM     14  C   UNL     1       2.290   4.790  18.819  0.00  0.00    +0.000 C 
ATOM     15  C   UNL     1       1.415   4.271  17.680  0.00  0.00    +0.000 C 
BRANCH  14  16
ATOM     16  C   UNL     1       1.689   4.532  20.208  0.00  0.00    +0.000 C 
ATOM     17  O   UNL     1       2.241   4.797  21.267  0.00  0.00    +0.000 OA
BRANCH  16  18
ATOM     18  O   UNL     1       0.500   3.883  20.166  0.00  0.00    +0.000 OA
ATOM     19  H   UNL     1       0.648   2.918  20.123  0.00  0.00    +0.000 HD
ENDBRANCH  16  18
ENDBRANCH  14  16
ENDBRANCH   3  14
TORSDOF 8
ENDMDL
MODEL 9
REMARK VINA RESULT:      -6.0      2.246      3.224
REMARK  Name = 
REMARK  11 active torsions:
REMARK  status: ('A' for Active; 'I' for Inactive)
REMARK    1  A    between atoms: C_1  and  C_2
REMARK    2  A    between atoms: C_2  and  S_4
REMARK    3  A    between atoms: S_4  and  C_5
REMARK    4  A    between atoms: C_5  and  C_6
REMARK    5  A    between atoms: C_6  and  C_7
REMARK    6  A    between atoms: C_6  and  C_8
REMARK    7  A    between atoms: N_10  and  C_11
REMARK    8  A    between atoms: N_10  and  C_14
REMARK    9  A    between atoms: C_14  and  C_15
REMARK   10  A    between atoms: C_14  and  C_16
REMARK   11  A    between atoms: C_16  and  O_18
REMARK                            x       y       z     vdW  Elec       q    Type
REMARK                         _______ _______ _______ _____ _____    ______ ____
ROOT
ATOM      1  C   UNL     1       4.526   3.838  17.781  0.00  0.00    +0.000 C 
ATOM      2  O   UNL     1       3.463   3.728  17.166  0.00  0.00    +0.000 OA
ATOM      3  N   UNL     1       5.657   4.416  17.178  0.00  0.00    +0.000 N 
ENDROOT
BRANCH   3   4
ATOM      4  C   UNL     1       6.873   4.731  17.916  0.00  0.00    +0.000 C 
ATOM      5  C   UNL     1       7.478   6.114  17.911  0.00  0.00    +0.000 C 
ATOM      6  C   UNL     1       6.921   5.559  19.178  0.00  0.00    +0.000 C 
ENDBRANCH   3   4
BRANCH   1   7
ATOM      7  C   UNL     1       4.658   3.238  19.186  0.00  0.00    +0.000 C 
ATOM      8  C   UNL     1       4.265   1.761  19.101  0.00  0.00    +0.000 C 
BRANCH   7   9
ATOM      9  C   UNL     1       3.745   4.021  20.158  0.00  0.00    +0.000 C 
BRANCH   9  10
ATOM     10  S   UNL     1       2.501   2.943  20.957  0.00  0.00    +0.000 S 
BRANCH  10  12
ATOM     11  C   UNL     1       0.653   2.485  18.980  0.00  0.00    +0.000 C 
ATOM     12  C   UNL     1       1.057   3.432  20.076  0.00  0.00    +0.000 C 
ATOM     13  O   UNL     1       0.451   4.466  20.330  0.00  0.00    +0.000 OA
ENDBRANCH  10  12
ENDBRANCH   9  10
ENDBRANCH   7   9
ENDBRANCH   1   7
BRANCH   3  14
ATOM     14  C   UNL     1       5.466   5.040  15.831  0.00  0.00    +0.000 C 
ATOM     15  C   UNL     1       5.195   6.542  15.890  0.00  0.00    +0.000 C 
BRANCH  14  16
ATOM     16  C   UNL     1       6.582   4.667  14.846  0.00  0.00    +0.000 C 
ATOM     17  O   UNL     1       7.523   5.391  14.551  0.00  0.00    +0.000 OA
BRANCH  16  18
ATOM     18  O   UNL     1       6.387   3.468  14.242  0.00  0.00    +0.000 OA
ATOM     19  H   UNL     1       7.049   3.340  13.535  0.00  0.00    +0.000 HD
ENDBRANCH  16  18
ENDBRANCH  14  16
ENDBRANCH   3  14
TORSDOF 8
ENDMDL
