MODEL 1
REMARK VINA RESULT:      -8.0      0.000      0.000
REMARK  Name = 
REMARK  12 active torsions:
REMARK  status: ('A' for Active; 'I' for Inactive)
REMARK    1  A    between atoms: C_1  and  C_2
REMARK    2  A    between atoms: C_2  and  C_3
REMARK    3  A    between atoms: C_3  and  C_4
REMARK    4  A    between atoms: C_4  and  C_5
REMARK    5  A    between atoms: C_5  and  C_6
REMARK    6  A    between atoms: C_6  and  C_7
REMARK    7  A    between atoms: C_7  and  C_8
REMARK    8  A    between atoms: C_8  and  N_9
REMARK    9  A    between atoms: C_12  and  C_13
REMARK   10  A    between atoms: C_12  and  C_14
REMARK   11  A    between atoms: N_17  and  C_18
REMARK   12  A    between atoms: C_18  and  C_19
REMARK                            x       y       z     vdW  Elec       q    Type
REMARK                         _______ _______ _______ _____ _____    ______ ____
ROOT
ATOM      1  N   UNL     1       6.112   4.213  19.036  0.00  0.00    +0.000 N 
ATOM      2  C   UNL     1       4.737   4.238  19.031  0.00  0.00    +0.000 C 
ATOM      3  N   UNL     1       4.157   3.174  19.469  0.00  0.00    +0.000 NA
ATOM      4  C   UNL     1       2.707   3.164  19.522  0.00  0.00    +0.000 C 
ATOM      5  C   UNL     1       2.305   3.179  21.005  0.00  0.00    +0.000 C 
ATOM      6  C   UNL     1       2.224   1.859  18.870  0.00  0.00    +0.000 C 
ATOM      7  N   UNL     1       2.054   4.245  18.836  0.00  0.00    +0.000 N 
ATOM      8  C   UNL     1       2.802   5.318  18.512  0.00  0.00    +0.000 C 
ATOM      9  N   UNL     1       2.031   6.354  18.081  0.00  0.00    +0.000 N 
ATOM     10  N   UNL     1       4.083   5.360  18.607  0.00  0.00    +0.000 NA
ATOM     11  H   UNL     1       6.427   3.420  19.587  0.00  0.00    +0.000 HD
ATOM     12  H   UNL     1       1.085   4.394  19.083  0.00  0.00    +0.000 HD
ATOM     13  H   UNL     1       1.077   6.159  17.826  0.00  0.00    +0.000 HD
ENDROOT
BRANCH   1  14
ATOM     14  C   UNL     1       6.925   5.405  19.154  0.00  0.00    +0.000 C 
BRANCH  14  15
ATOM     15  C   UNL     1       7.432   5.877  17.787  0.00  0.00    +0.000 C 
BRANCH  15  16
ATOM     16  C   UNL     1       7.304   4.848  16.654  0.00  0.00    +0.000 C 
BRANCH  16  17
ATOM     17  C   UNL     1       6.292   5.208  15.556  0.00  0.00    +0.000 C 
BRANCH  17  18
ATOM     18  C   UNL     1       6.659   4.791  14.124  0.00  0.00    +0.000 C 
BRANCH  18  19
ATOM     19  C   UNL     1       6.050   3.475  13.597  0.00  0.00    +0.000 C 
BRANCH  19  21
ATOM     20  C   UNL     1       4.487   3.308  11.503  0.00  0.00    +0.000 C 
ATOM     21  C   UNL     1       5.902   3.265  12.073  0.00  0.00    +0.000 C 
ENDBRANCH  19  21
ENDBRANCH  18  19
ENDBRANCH  17  18
ENDBRANCH  16  17
ENDBRANCH  15  16
ENDBRANCH  14  15
ENDBRANCH   1  14
BRANCH   9  22
ATOM     22  C   UNL     1       2.410   7.752  18.147  0.00  0.00    +0.000 C 
BRANCH  22  23
ATOM     23  C   UNL     1       1.686   8.496  19.248  0.00  0.00    +0.000 A 
ATOM     24  C   UNL     1       1.646   7.998  20.563  0.00  0.00    +0.000 A 
ATOM     25  C   UNL     1       0.964   8.694  21.568  0.00  0.00    +0.000 A 
ATOM     26  C   UNL     1       0.327   9.896  21.268  0.00  0.00    +0.000 A 
ATOM     27 CL   UNL     1      -0.558  10.726  22.489  0.00  0.00    +0.000 Cl
ATOM     28  C   UNL     1       0.394  10.425  19.981  0.00  0.00    +0.000 A 
ATOM     29  C   UNL     1       1.079   9.732  18.980  0.00  0.00    +0.000 A 
ENDBRANCH  22  23
ENDBRANCH   9  22
TORSDOF 9
ENDMDL
MODEL 2
REMARK VINA RESULT:      -7.8      3.012      6.927
REMARK  Name = 
REMARK  12 active torsions:
REMARK  status: ('A' for Active; 'I' for Inactive)
REMARK    1  A    between atoms: C_1  and  C_2
REMARK    2  A    between atoms: C_2  and  C_3
REMARK    3  A    between atoms: C_3  and  C_4
REMARK    4  A    between atoms: C_4  and  C_5
REMARK    5  A    between atoms: C_5  and  C_6
REMARK    6  A    between atoms: C_6  and  C_7
REMARK    7  A    between atoms: C_7  and  C_8
REMARK    8  A    between atoms: C_8  and  N_9
REMARK    9  A    between atoms: C_12  and  C_13
REMARK   10  A    between atoms: C_12  and  C_14
REMARK   11  A    between atoms: N_17  and  C_18
REMARK   12  A    between atoms: C_18  and  C_19
REMARK                            x       y       z     vdW  Elec       q    Type
REMARK                         _______ _______ _______ _____ _____    ______ ____
ROOT
ATOM      1  N   UNL     1       2.081   6.974  19.322  0.00  0.00    +0.000 N 
ATOM      2  C   UNL     1       2.556   5.695  19.489  0.00  0.00    +0.000 C 
ATOM      3  N   UNL     1       1.784   4.891  20.134  0.00  0.00    +0.000 NA
ATOM      4  C   UNL     1       2.221   3.518  20.303  0.00  0.00    +0.000 C 
ATOM      5  C   UNL     1       1.299   2.637  19.446  0.00  0.00    +0.000 C 
ATOM      6  C   UNL     1       2.051   3.152  21.786  0.00  0.00    +0.000 C 
ATOM      7  N   UNL     1       3.591   3.257  19.959  0.00  0.00    +0.000 N 
ATOM      8  C   UNL     1       4.232   4.180  19.215  0.00  0.00    +0.000 C 
ATOM      9  N   UNL     1       5.432   3.716  18.767  0.00  0.00    +0.000 N 
ATOM     10  N   UNL     1       3.764   5.347  18.953  0.00  0.00    +0.000 NA
ATOM     11  H   UNL     1       1.095   6.996  19.567  0.00  0.00    +0.000 HD
ATOM     12  H   UNL     1       3.827   2.284  19.821  0.00  0.00    +0.000 HD
ATOM     13  H   UNL     1       5.812   2.892  19.202  0.00  0.00    +0.000 HD
ENDROOT
BRANCH   1  14
ATOM     14  C   UNL     1       2.455   7.819  18.207  0.00  0.00    +0.000 C 
BRANCH  14  15
ATOM     15  C   UNL     1       1.697   9.151  18.232  0.00  0.00    +0.000 C 
BRANCH  15  16
ATOM     16  C   UNL     1       1.017   9.489  19.567  0.00  0.00    +0.000 C 
BRANCH  16  17
ATOM     17  C   UNL     1      -0.407  10.050  19.451  0.00  0.00    +0.000 C 
BRANCH  17  18
ATOM     18  C   UNL     1      -0.820  10.588  18.072  0.00  0.00    +0.000 C 
BRANCH  18  19
ATOM     19  C   UNL     1      -2.026   9.914  17.386  0.00  0.00    +0.000 C 
BRANCH  19  21
ATOM     20  C   UNL     1      -2.942  10.094  14.939  0.00  0.00    +0.000 C 
ATOM     21  C   UNL     1      -2.839  10.703  16.335  0.00  0.00    +0.000 C 
ENDBRANCH  19  21
ENDBRANCH  18  19
ENDBRANCH  17  18
ENDBRANCH  16  17
ENDBRANCH  15  16
ENDBRANCH  14  15
ENDBRANCH   1  14
BRANCH   9  22
ATOM     22  C   UNL     1       6.113   4.195  17.580  0.00  0.00    +0.000 C 
BRANCH  22  23
ATOM     23  C   UNL     1       6.790   5.531  17.801  0.00  0.00    +0.000 A 
ATOM     24  C   UNL     1       7.758   5.703  18.807  0.00  0.00    +0.000 A 
ATOM     25  C   UNL     1       8.368   6.947  19.004  0.00  0.00    +0.000 A 
ATOM     26  C   UNL     1       8.021   8.025  18.192  0.00  0.00    +0.000 A 
ATOM     27 CL   UNL     1       8.729   9.569  18.468  0.00  0.00    +0.000 Cl
ATOM     28  C   UNL     1       7.096   7.861  17.163  0.00  0.00    +0.000 A 
ATOM     29  C   UNL     1       6.492   6.617  16.964  0.00  0.00    +0.000 A 
ENDBRANCH  22  23
ENDBRANCH   9  22
TORSDOF 9
ENDMDL
MODEL 3
REMARK VINA RESULT:      -7.7      2.628      4.640
REMARK  Name = 
REMARK  12 active torsions:
REMARK  status: ('A' for Active; 'I' for Inactive)
REMARK    1  A    between atoms: C_1  and  C_2
REMARK    2  A    between atoms: C_2  and  C_3
REMARK    3  A    between atoms: C_3  and  C_4
REMARK    4  A    between atoms: C_4  and  C_5
REMARK    5  A    between atoms: C_5  and  C_6
REMARK    6  A    between atoms: C_6  and  C_7
REMARK    7  A    between atoms: C_7  and  C_8
REMARK    8  A    between atoms: C_8  and  N_9
REMARK    9  A    between atoms: C_12  and  C_13
REMARK   10  A    between atoms: C_12  and  C_14
REMARK   11  A    between atoms: N_17  and  C_18
REMARK   12  A    between atoms: C_18  and  C_19
REMARK                            x       y       z     vdW  Elec       q    Type
REMARK                         _______ _______ _______ _____ _____    ______ ____
ROOT
ATOM      1  N   UNL     1       6.675   4.549  18.821  0.00  0.00    +0.000 N 
ATOM      2  C   UNL     1       5.306   4.433  18.861  0.00  0.00    +0.000 C 
ATOM      3  N   UNL     1       4.852   3.314  19.309  0.00  0.00    +0.000 NA
ATOM      4  C   UNL     1       3.414   3.156  19.410  0.00  0.00    +0.000 C 
ATOM      5  C   UNL     1       3.062   3.122  20.904  0.00  0.00    +0.000 C 
ATOM      6  C   UNL     1       3.044   1.811  18.762  0.00  0.00    +0.000 C 
ATOM      7  N   UNL     1       2.631   4.167  18.754  0.00  0.00    +0.000 N 
ATOM      8  C   UNL     1       3.254   5.313  18.415  0.00  0.00    +0.000 C 
ATOM      9  N   UNL     1       2.368   6.267  18.018  0.00  0.00    +0.000 N 
ATOM     10  N   UNL     1       4.526   5.485  18.469  0.00  0.00    +0.000 NA
ATOM     11  H   UNL     1       7.088   3.789  19.355  0.00  0.00    +0.000 HD
ATOM     12  H   UNL     1       1.661   4.216  19.034  0.00  0.00    +0.000 HD
ATOM     13  H   UNL     1       1.431   5.976  17.793  0.00  0.00    +0.000 HD
ENDROOT
BRANCH   1  14
ATOM     14  C   UNL     1       7.366   5.817  18.923  0.00  0.00    +0.000 C 
BRANCH  14  15
ATOM     15  C   UNL     1       7.568   6.459  17.546  0.00  0.00    +0.000 C 
BRANCH  15  16
ATOM     16  C   UNL     1       7.599   7.995  17.540  0.00  0.00    +0.000 C 
BRANCH  16  17
ATOM     17  C   UNL     1       8.614   8.631  18.500  0.00  0.00    +0.000 C 
BRANCH  17  18
ATOM     18  C   UNL     1       8.736  10.161  18.452  0.00  0.00    +0.000 C 
BRANCH  18  19
ATOM     19  C   UNL     1       9.847  10.805  19.307  0.00  0.00    +0.000 C 
BRANCH  19  21
ATOM     20  C   UNL     1      10.167  12.635  21.153  0.00  0.00    +0.000 C 
ATOM     21  C   UNL     1       9.510  11.326  20.722  0.00  0.00    +0.000 C 
ENDBRANCH  19  21
ENDBRANCH  18  19
ENDBRANCH  17  18
ENDBRANCH  16  17
ENDBRANCH  15  16
ENDBRANCH  14  15
ENDBRANCH   1  14
BRANCH   9  22
ATOM     22  C   UNL     1       2.605   7.696  18.084  0.00  0.00    +0.000 C 
BRANCH  22  23
ATOM     23  C   UNL     1       1.803   8.365  19.179  0.00  0.00    +0.000 A 
ATOM     24  C   UNL     1       1.762   7.837  20.483  0.00  0.00    +0.000 A 
ATOM     25  C   UNL     1       1.008   8.463  21.482  0.00  0.00    +0.000 A 
ATOM     26  C   UNL     1       0.298   9.626  21.188  0.00  0.00    +0.000 A 
ATOM     27 CL   UNL     1      -0.673  10.367  22.400  0.00  0.00    +0.000 Cl
ATOM     28  C   UNL     1       0.363  10.186  19.914  0.00  0.00    +0.000 A 
ATOM     29  C   UNL     1       1.120   9.563  18.919  0.00  0.00    +0.000 A 
ENDBRANCH  22  23
ENDBRANCH   9  22
TORSDOF 9
ENDMDL
MODEL 4
REMARK VINA RESULT:      -7.6      3.343      7.669
REMARK  Name = 
REMARK  12 active torsions:
REMARK  status: ('A' for Active; 'I' for Inactive)
REMARK    1  A    between atoms: C_1  and  C_2
REMARK    2  A    between atoms: C_2  and  C_3
REMARK    3  A    between atoms: C_3  and  C_4
REMARK    4  A    between atoms: C_4  and  C_5
REMARK    5  A    between atoms: C_5  and  C_6
REMARK    6  A    between atoms: C_6  and  C_7
REMARK    7  A    between atoms: C_7  and  C_8
REMARK    8  A    between atoms: C_8  and  N_9
REMARK    9  A    between atoms: C_12  and  C_13
REMARK   10  A    between atoms: C_12  and  C_14
REMARK   11  A    between atoms: N_17  and  C_18
REMARK   12  A    between atoms: C_18  and  C_19
REMARK                            x       y       z     vdW  Elec       q    Type
REMARK                         _______ _______ _______ _____ _____    ______ ____
ROOT
ATOM      1  N   UNL     1       2.378   6.898  19.240  0.00  0.00    +0.000 N 
ATOM      2  C   UNL     1       3.022   5.685  19.296  0.00  0.00    +0.000 C 
ATOM      3  N   UNL     1       2.303   4.686  19.676  0.00  0.00    +0.000 NA
ATOM      4  C   UNL     1       2.924   3.376  19.714  0.00  0.00    +0.000 C 
ATOM      5  C   UNL     1       2.291   2.538  18.593  0.00  0.00    +0.000 C 
ATOM      6  C   UNL     1       2.600   2.744  21.077  0.00  0.00    +0.000 C 
ATOM      7  N   UNL     1       4.354   3.364  19.574  0.00  0.00    +0.000 N 
ATOM      8  C   UNL     1       4.941   4.477  19.092  0.00  0.00    +0.000 C 
ATOM      9  N   UNL     1       6.252   4.263  18.792  0.00  0.00    +0.000 N 
ATOM     10  N   UNL     1       4.336   5.599  18.929  0.00  0.00    +0.000 NA
ATOM     11  H   UNL     1       1.377   6.745  19.314  0.00  0.00    +0.000 HD
ATOM     12  H   UNL     1       4.760   2.469  19.337  0.00  0.00    +0.000 HD
ATOM     13  H   UNL     1       6.691   3.435  19.160  0.00  0.00    +0.000 HD
ENDROOT
BRANCH   1  14
ATOM     14  C   UNL     1       2.772   7.963  18.341  0.00  0.00    +0.000 C 
BRANCH  14  15
ATOM     15  C   UNL     1       1.552   8.657  17.725  0.00  0.00    +0.000 C 
BRANCH  15  16
ATOM     16  C   UNL     1       1.198  10.019  18.340  0.00  0.00    +0.000 C 
BRANCH  16  17
ATOM     17  C   UNL     1      -0.145  10.071  19.081  0.00  0.00    +0.000 C 
BRANCH  17  18
ATOM     18  C   UNL     1      -1.308  10.752  18.344  0.00  0.00    +0.000 C 
BRANCH  18  19
ATOM     19  C   UNL     1      -1.927   9.992  17.152  0.00  0.00    +0.000 C 
BRANCH  19  21
ATOM     20  C   UNL     1      -2.902  10.083  14.723  0.00  0.00    +0.000 C 
ATOM     21  C   UNL     1      -2.693  10.779  16.065  0.00  0.00    +0.000 C 
ENDBRANCH  19  21
ENDBRANCH  18  19
ENDBRANCH  17  18
ENDBRANCH  16  17
ENDBRANCH  15  16
ENDBRANCH  14  15
ENDBRANCH   1  14
BRANCH   9  22
ATOM     22  C   UNL     1       7.014   5.024  17.822  0.00  0.00    +0.000 C 
BRANCH  22  23
ATOM     23  C   UNL     1       6.690   4.633  16.397  0.00  0.00    +0.000 A 
ATOM     24  C   UNL     1       7.422   5.150  15.312  0.00  0.00    +0.000 A 
ATOM     25  C   UNL     1       7.103   4.786  13.999  0.00  0.00    +0.000 A 
ATOM     26  C   UNL     1       6.059   3.895  13.762  0.00  0.00    +0.000 A 
ATOM     27 CL   UNL     1       5.630   3.487  12.145  0.00  0.00    +0.000 Cl
ATOM     28  C   UNL     1       5.352   3.340  14.826  0.00  0.00    +0.000 A 
ATOM     29  C   UNL     1       5.674   3.700  16.137  0.00  0.00    +0.000 A 
ENDBRANCH  22  23
ENDBRANCH   9  22
TORSDOF 9
ENDMDL
MODEL 5
REMARK VINA RESULT:      -7.6      1.445      2.020
REMARK  Name = 
REMARK  12 active torsions:
REMARK  status: ('A' for Active; 'I' for Inactive)
REMARK    1  A    between atoms: C_1  and  C_2
REMARK    2  A    between atoms: C_2  and  C_3
REMARK    3  A    between atoms: C_3  and  C_4
REMARK    4  A    between atoms: C_4  and  C_5
REMARK    5  A    between atoms: C_5  and  C_6
REMARK    6  A    between atoms: C_6  and  C_7
REMARK    7  A    between atoms: C_7  and  C_8
REMARK    8  A    between atoms: C_8  and  N_9
REMARK    9  A    between atoms: C_12  and  C_13
REMARK   10  A    between atoms: C_12  and  C_14
REMARK   11  A    between atoms: N_17  and  C_18
REMARK   12  A    between atoms: C_18  and  C_19
REMARK                            x       y       z     vdW  Elec       q    Type
REMARK                         _______ _______ _______ _____ _____    ______ ____
ROOT
ATOM      1  N   UNL     1       4.721   4.474  18.594  0.00  0.00    +0.000 N 
ATOM      2  C   UNL     1       3.546   4.490  19.307  0.00  0.00    +0.000 C 
ATOM      3  N   UNL     1       3.035   3.337  19.568  0.00  0.00    +0.000 NA
ATOM      4  C   UNL     1       1.816   3.296  20.353  0.00  0.00    +0.000 C 
ATOM      5  C   UNL     1       2.173   2.696  21.721  0.00  0.00    +0.000 C 
ATOM      6  C   UNL     1       0.824   2.372  19.628  0.00  0.00    +0.000 C 
ATOM      7  N   UNL     1       1.155   4.559  20.539  0.00  0.00    +0.000 N 
ATOM      8  C   UNL     1       1.866   5.675  20.283  0.00  0.00    +0.000 C 
ATOM      9  N   UNL     1       1.216   6.792  20.713  0.00  0.00    +0.000 N 
ATOM     10  N   UNL     1       3.017   5.683  19.713  0.00  0.00    +0.000 NA
ATOM     11  H   UNL     1       5.088   3.527  18.580  0.00  0.00    +0.000 HD
ATOM     12  H   UNL     1       0.472   4.587  21.283  0.00  0.00    +0.000 HD
ATOM     13  H   UNL     1       0.237   6.712  20.935  0.00  0.00    +0.000 HD
ENDROOT
BRANCH   1  14
ATOM     14  C   UNL     1       5.721   5.517  18.693  0.00  0.00    +0.000 C 
BRANCH  14  15
ATOM     15  C   UNL     1       5.732   6.404  17.442  0.00  0.00    +0.000 C 
BRANCH  15  16
ATOM     16  C   UNL     1       5.036   5.804  16.211  0.00  0.00    +0.000 C 
BRANCH  16  17
ATOM     17  C   UNL     1       5.971   5.410  15.060  0.00  0.00    +0.000 C 
BRANCH  17  18
ATOM     18  C   UNL     1       5.642   4.099  14.329  0.00  0.00    +0.000 C 
BRANCH  18  19
ATOM     19  C   UNL     1       6.432   3.796  13.039  0.00  0.00    +0.000 C 
BRANCH  19  21
ATOM     20  C   UNL     1       4.321   3.293  11.572  0.00  0.00    +0.000 C 
ATOM     21  C   UNL     1       5.768   2.957  11.923  0.00  0.00    +0.000 C 
ENDBRANCH  19  21
ENDBRANCH  18  19
ENDBRANCH  17  18
ENDBRANCH  16  17
ENDBRANCH  15  16
ENDBRANCH  14  15
ENDBRANCH   1  14
BRANCH   9  22
ATOM     22  C   UNL     1       1.861   8.040  21.067  0.00  0.00    +0.000 C 
BRANCH  22  23
ATOM     23  C   UNL     1       0.869   9.114  21.459  0.00  0.00    +0.000 A 
ATOM     24  C   UNL     1       0.458  10.100  20.544  0.00  0.00    +0.000 A 
ATOM     25  C   UNL     1      -0.453  11.091  20.926  0.00  0.00    +0.000 A 
ATOM     26  C   UNL     1      -0.967  11.097  22.221  0.00  0.00    +0.000 A 
ATOM     27 CL   UNL     1      -2.046  12.347  22.709  0.00  0.00    +0.000 Cl
ATOM     28  C   UNL     1      -0.605  10.103  23.126  0.00  0.00    +0.000 A 
ATOM     29  C   UNL     1       0.301   9.111  22.743  0.00  0.00    +0.000 A 
ENDBRANCH  22  23
ENDBRANCH   9  22
TORSDOF 9
ENDMDL
MODEL 6
REMARK VINA RESULT:      -7.6      0.963      1.376
REMARK  Name = 
REMARK  12 active torsions:
REMARK  status: ('A' for Active; 'I' for Inactive)
REMARK    1  A    between atoms: C_1  and  C_2
REMARK    2  A    between atoms: C_2  and  C_3
REMARK    3  A    between atoms: C_3  and  C_4
REMARK    4  A    between atoms: C_4  and  C_5
REMARK    5  A    between atoms: C_5  and  C_6
REMARK    6  A    between atoms: C_6  and  C_7
REMARK    7  A    between atoms: C_7  and  C_8
REMARK    8  A    between atoms: C_8  and  N_9
REMARK    9  A    between atoms: C_12  and  C_13
REMARK   10  A    between atoms: C_12  and  C_14
REMARK   11  A    between atoms: N_17  and  C_18
REMARK   12  A    between atoms: C_18  and  C_19
REMARK                            x       y       z     vdW  Elec       q    Type
REMARK                         _______ _______ _______ _____ _____    ______ ____
ROOT
ATOM      1  N   UNL     1       5.835   4.002  19.096  0.00  0.00    +0.000 N 
ATOM      2  C   UNL     1       4.475   4.146  19.241  0.00  0.00    +0.000 C 
ATOM      3  N   UNL     1       3.846   3.111  19.680  0.00  0.00    +0.000 NA
ATOM      4  C   UNL     1       2.416   3.224  19.889  0.00  0.00    +0.000 C 
ATOM      5  C   UNL     1       2.170   3.179  21.404  0.00  0.00    +0.000 C 
ATOM      6  C   UNL     1       1.749   2.010  19.222  0.00  0.00    +0.000 C 
ATOM      7  N   UNL     1       1.799   4.399  19.336  0.00  0.00    +0.000 N 
ATOM      8  C   UNL     1       2.607   5.421  18.993  0.00  0.00    +0.000 C 
ATOM      9  N   UNL     1       1.895   6.546  18.704  0.00  0.00    +0.000 N 
ATOM     10  N   UNL     1       3.888   5.346  18.952  0.00  0.00    +0.000 NA
ATOM     11  H   UNL     1       6.130   3.151  19.567  0.00  0.00    +0.000 HD
ATOM     12  H   UNL     1       0.879   4.616  19.694  0.00  0.00    +0.000 HD
ATOM     13  H   UNL     1       0.906   6.451  18.543  0.00  0.00    +0.000 HD
ENDROOT
BRANCH   1  14
ATOM     14  C   UNL     1       6.764   5.109  19.191  0.00  0.00    +0.000 C 
BRANCH  14  15
ATOM     15  C   UNL     1       7.682   5.178  17.966  0.00  0.00    +0.000 C 
BRANCH  15  16
ATOM     16  C   UNL     1       7.031   5.747  16.695  0.00  0.00    +0.000 C 
BRANCH  16  17
ATOM     17  C   UNL     1       7.112   4.841  15.459  0.00  0.00    +0.000 C 
BRANCH  17  18
ATOM     18  C   UNL     1       5.887   4.837  14.532  0.00  0.00    +0.000 C 
BRANCH  18  19
ATOM     19  C   UNL     1       5.560   3.516  13.805  0.00  0.00    +0.000 C 
BRANCH  19  21
ATOM     20  C   UNL     1       4.432   3.278  11.453  0.00  0.00    +0.000 C 
ATOM     21  C   UNL     1       5.713   3.438  12.269  0.00  0.00    +0.000 C 
ENDBRANCH  19  21
ENDBRANCH  18  19
ENDBRANCH  17  18
ENDBRANCH  16  17
ENDBRANCH  15  16
ENDBRANCH  14  15
ENDBRANCH   1  14
BRANCH   9  22
ATOM     22  C   UNL     1       2.408   7.898  18.805  0.00  0.00    +0.000 C 
BRANCH  22  23
ATOM     23  C   UNL     1       1.319   8.910  19.087  0.00  0.00    +0.000 A 
ATOM     24  C   UNL     1       0.620   9.543  18.043  0.00  0.00    +0.000 A 
ATOM     25  C   UNL     1      -0.378  10.484  18.321  0.00  0.00    +0.000 A 
ATOM     26  C   UNL     1      -0.692  10.791  19.644  0.00  0.00    +0.000 A 
ATOM     27 CL   UNL     1      -1.881  11.986  19.987  0.00  0.00    +0.000 Cl
ATOM     28  C   UNL     1      -0.040  10.142  20.689  0.00  0.00    +0.000 A 
ATOM     29  C   UNL     1       0.953   9.199  20.411  0.00  0.00    +0.000 A 
ENDBRANCH  22  23
ENDBRANCH   9  22
TORSDOF 9
ENDMDL
MODEL 7
REMARK VINA RESULT:      -7.6      3.008      7.607
REMARK  Name = 
REMARK  12 active torsions:
REMARK  status: ('A' for Active; 'I' for Inactive)
REMARK    1  A    between atoms: C_1  and  C_2
REMARK    2  A    between atoms: C_2  and  C_3
REMARK    3  A    between atoms: C_3  and  C_4
REMARK    4  A    between atoms: C_4  and  C_5
REMARK    5  A    between atoms: C_5  and  C_6
REMARK    6  A    between atoms: C_6  and  C_7
REMARK    7  A    between atoms: C_7  and  C_8
REMARK    8  A    between atoms: C_8  and  N_9
REMARK    9  A    between atoms: C_12  and  C_13
REMARK   10  A    between atoms: C_12  and  C_14
REMARK   11  A    between atoms: N_17  and  C_18
REMARK   12  A    between atoms: C_18  and  C_19
REMARK                            x       y       z     vdW  Elec       q    Type
REMARK                         _______ _______ _______ _____ _____    ______ ____
ROOT
ATOM      1  N   UNL     1       2.230   7.047  19.368  0.00  0.00    +0.000 N 
ATOM      2  C   UNL     1       2.658   5.748  19.505  0.00  0.00    +0.000 C 
ATOM      3  N   UNL     1       1.863   4.961  20.144  0.00  0.00    +0.000 NA
ATOM      4  C   UNL     1       2.249   3.570  20.282  0.00  0.00    +0.000 C 
ATOM      5  C   UNL     1       1.286   2.741  19.419  0.00  0.00    +0.000 C 
ATOM      6  C   UNL     1       2.082   3.182  21.759  0.00  0.00    +0.000 C 
ATOM      7  N   UNL     1       3.606   3.264  19.917  0.00  0.00    +0.000 N 
ATOM      8  C   UNL     1       4.273   4.176  19.183  0.00  0.00    +0.000 C 
ATOM      9  N   UNL     1       5.449   3.677  18.712  0.00  0.00    +0.000 N 
ATOM     10  N   UNL     1       3.847   5.365  18.949  0.00  0.00    +0.000 NA
ATOM     11  H   UNL     1       1.249   7.102  19.625  0.00  0.00    +0.000 HD
ATOM     12  H   UNL     1       3.803   2.285  19.758  0.00  0.00    +0.000 HD
ATOM     13  H   UNL     1       5.802   2.830  19.127  0.00  0.00    +0.000 HD
ENDROOT
BRANCH   1  14
ATOM     14  C   UNL     1       2.624   7.898  18.265  0.00  0.00    +0.000 C 
BRANCH  14  15
ATOM     15  C   UNL     1       1.710   9.122  18.146  0.00  0.00    +0.000 C 
BRANCH  15  16
ATOM     16  C   UNL     1       0.909   9.464  19.411  0.00  0.00    +0.000 C 
BRANCH  16  17
ATOM     17  C   UNL     1       0.542  10.946  19.572  0.00  0.00    +0.000 C 
BRANCH  17  18
ATOM     18  C   UNL     1       0.627  11.522  20.993  0.00  0.00    +0.000 C 
BRANCH  18  19
ATOM     19  C   UNL     1      -0.698  11.690  21.765  0.00  0.00    +0.000 C 
BRANCH  19  21
ATOM     20  C   UNL     1      -0.209   9.495  23.108  0.00  0.00    +0.000 C 
ATOM     21  C   UNL     1      -0.964  10.819  23.014  0.00  0.00    +0.000 C 
ENDBRANCH  19  21
ENDBRANCH  18  19
ENDBRANCH  17  18
ENDBRANCH  16  17
ENDBRANCH  15  16
ENDBRANCH  14  15
ENDBRANCH   1  14
BRANCH   9  22
ATOM     22  C   UNL     1       6.135   4.152  17.527  0.00  0.00    +0.000 C 
BRANCH  22  23
ATOM     23  C   UNL     1       6.781   5.505  17.737  0.00  0.00    +0.000 A 
ATOM     24  C   UNL     1       6.445   6.608  16.931  0.00  0.00    +0.000 A 
ATOM     25  C   UNL     1       7.059   7.850  17.132  0.00  0.00    +0.000 A 
ATOM     26  C   UNL     1       8.004   8.000  18.145  0.00  0.00    +0.000 A 
ATOM     27 CL   UNL     1       8.800   9.511  18.358  0.00  0.00    +0.000 Cl
ATOM     28  C   UNL     1       8.317   6.929  18.979  0.00  0.00    +0.000 A 
ATOM     29  C   UNL     1       7.700   5.691  18.781  0.00  0.00    +0.000 A 
ENDBRANCH  22  23
ENDBRANCH   9  22
TORSDOF 9
ENDMDL
MODEL 8
REMARK VINA RESULT:      -7.6      0.854      1.040
REMARK  Name = 
REMARK  12 active torsions:
REMARK  status: ('A' for Active; 'I' for Inactive)
REMARK    1  A    between atoms: C_1  and  C_2
REMARK    2  A    between atoms: C_2  and  C_3
REMARK    3  A    between atoms: C_3  and  C_4
REMARK    4  A    between atoms: C_4  and  C_5
REMARK    5  A    between atoms: C_5  and  C_6
REMARK    6  A    between atoms: C_6  and  C_7
REMARK    7  A    between atoms: C_7  and  C_8
REMARK    8  A    between atoms: C_8  and  N_9
REMARK    9  A    between atoms: C_12  and  C_13
REMARK   10  A    between atoms: C_12  and  C_14
REMARK   11  A    between atoms: N_17  and  C_18
REMARK   12  A    between atoms: C_18  and  C_19
REMARK                            x       y       z     vdW  Elec       q    Type
REMARK                         _______ _______ _______ _____ _____    ______ ____
ROOT
ATOM      1  N   UNL     1       5.763   4.142  19.154  0.00  0.00    +0.000 N 
ATOM      2  C   UNL     1       4.411   4.227  19.395  0.00  0.00    +0.000 C 
ATOM      3  N   UNL     1       3.838   3.132  19.756  0.00  0.00    +0.000 NA
ATOM      4  C   UNL     1       2.421   3.176  20.061  0.00  0.00    +0.000 C 
ATOM      5  C   UNL     1       2.272   2.962  21.575  0.00  0.00    +0.000 C 
ATOM      6  C   UNL     1       1.743   2.020  19.308  0.00  0.00    +0.000 C 
ATOM      7  N   UNL     1       1.741   4.383  19.678  0.00  0.00    +0.000 N 
ATOM      8  C   UNL     1       2.500   5.462  19.400  0.00  0.00    +0.000 C 
ATOM      9  N   UNL     1       1.744   6.588  19.278  0.00  0.00    +0.000 N 
ATOM     10  N   UNL     1       3.778   5.432  19.274  0.00  0.00    +0.000 NA
ATOM     11  H   UNL     1       6.108   3.255  19.510  0.00  0.00    +0.000 HD
ATOM     12  H   UNL     1       0.840   4.532  20.112  0.00  0.00    +0.000 HD
ATOM     13  H   UNL     1       0.749   6.479  19.168  0.00  0.00    +0.000 HD
ENDROOT
BRANCH   1  14
ATOM     14  C   UNL     1       6.667   5.261  19.313  0.00  0.00    +0.000 C 
BRANCH  14  15
ATOM     15  C   UNL     1       7.456   5.532  18.027  0.00  0.00    +0.000 C 
BRANCH  15  16
ATOM     16  C   UNL     1       7.190   4.547  16.878  0.00  0.00    +0.000 C 
BRANCH  16  17
ATOM     17  C   UNL     1       7.243   5.157  15.470  0.00  0.00    +0.000 C 
BRANCH  17  18
ATOM     18  C   UNL     1       5.952   5.078  14.641  0.00  0.00    +0.000 C 
BRANCH  18  19
ATOM     19  C   UNL     1       5.592   3.709  14.029  0.00  0.00    +0.000 C 
BRANCH  19  21
ATOM     20  C   UNL     1       7.145   4.029  11.945  0.00  0.00    +0.000 C 
ATOM     21  C   UNL     1       5.855   3.457  12.527  0.00  0.00    +0.000 C 
ENDBRANCH  19  21
ENDBRANCH  18  19
ENDBRANCH  17  18
ENDBRANCH  16  17
ENDBRANCH  15  16
ENDBRANCH  14  15
ENDBRANCH   1  14
BRANCH   9  22
ATOM     22  C   UNL     1       2.228   7.937  19.495  0.00  0.00    +0.000 C 
BRANCH  22  23
ATOM     23  C   UNL     1       1.321   8.739  20.403  0.00  0.00    +0.000 A 
ATOM     24  C   UNL     1       1.324   8.545  21.796  0.00  0.00    +0.000 A 
ATOM     25  C   UNL     1       0.472   9.288  22.621  0.00  0.00    +0.000 A 
ATOM     26  C   UNL     1      -0.381  10.236  22.061  0.00  0.00    +0.000 A 
ATOM     27 CL   UNL     1      -1.468  11.111  23.068  0.00  0.00    +0.000 Cl
ATOM     28  C   UNL     1      -0.367  10.471  20.688  0.00  0.00    +0.000 A 
ATOM     29  C   UNL     1       0.488   9.732  19.866  0.00  0.00    +0.000 A 
ENDBRANCH  22  23
ENDBRANCH   9  22
TORSDOF 9
ENDMDL
MODEL 9
REMARK VINA RESULT:      -7.6      1.355      1.770
REMARK  Name = 
REMARK  12 active torsions:
REMARK  status: ('A' for Active; 'I' for Inactive)
REMARK    1  A    between atoms: C_1  and  C_2
REMARK    2  A    between atoms: C_2  and  C_3
REMARK    3  A    between atoms: C_3  and  C_4
REMARK    4  A    between atoms: C_4  and  C_5
REMARK    5  A    between atoms: C_5  and  C_6
REMARK    6  A    between atoms: C_6  and  C_7
REMARK    7  A    between atoms: C_7  and  C_8
REMARK    8  A    between atoms: C_8  and  N_9
REMARK    9  A    between atoms: C_12  and  C_13
REMARK   10  A    between atoms: C_12  and  C_14
REMARK   11  A    between atoms: N_17  and  C_18
REMARK   12  A    between atoms: C_18  and  C_19
REMARK                            x       y       z     vdW  Elec       q    Type
REMARK                         _______ _______ _______ _____ _____    ______ ____
ROOT
ATOM      1  N   UNL     1       5.411   4.201  19.127  0.00  0.00    +0.000 N 
ATOM      2  C   UNL     1       4.084   4.302  19.472  0.00  0.00    +0.000 C 
ATOM      3  N   UNL     1       3.481   3.189  19.710  0.00  0.00    +0.000 NA
ATOM      4  C   UNL     1       2.090   3.243  20.117  0.00  0.00    +0.000 C 
ATOM      5  C   UNL     1       2.029   2.813  21.590  0.00  0.00    +0.000 C 
ATOM      6  C   UNL     1       1.310   2.239  19.253  0.00  0.00    +0.000 C 
ATOM      7  N   UNL     1       1.448   4.520  19.962  0.00  0.00    +0.000 N 
ATOM      8  C   UNL     1       2.240   5.597  19.791  0.00  0.00    +0.000 C 
ATOM      9  N   UNL     1       1.534   6.758  19.888  0.00  0.00    +0.000 N 
ATOM     10  N   UNL     1       3.504   5.535  19.572  0.00  0.00    +0.000 NA
ATOM     11  H   UNL     1       5.734   3.258  19.326  0.00  0.00    +0.000 HD
ATOM     12  H   UNL     1       0.585   4.637  20.475  0.00  0.00    +0.000 HD
ATOM     13  H   UNL     1       0.530   6.705  19.833  0.00  0.00    +0.000 HD
ENDROOT
BRANCH   1  14
ATOM     14  C   UNL     1       6.378   5.248  19.383  0.00  0.00    +0.000 C 
BRANCH  14  15
ATOM     15  C   UNL     1       7.457   5.293  18.295  0.00  0.00    +0.000 C 
BRANCH  15  16
ATOM     16  C   UNL     1       7.340   6.465  17.309  0.00  0.00    +0.000 C 
BRANCH  16  17
ATOM     17  C   UNL     1       5.912   6.970  17.062  0.00  0.00    +0.000 C 
BRANCH  17  18
ATOM     18  C   UNL     1       5.138   6.300  15.916  0.00  0.00    +0.000 C 
BRANCH  18  19
ATOM     19  C   UNL     1       5.358   4.787  15.709  0.00  0.00    +0.000 C 
BRANCH  19  21
ATOM     20  C   UNL     1       6.911   4.603  13.608  0.00  0.00    +0.000 C 
ATOM     21  C   UNL     1       5.589   4.243  14.281  0.00  0.00    +0.000 C 
ENDBRANCH  19  21
ENDBRANCH  18  19
ENDBRANCH  17  18
ENDBRANCH  16  17
ENDBRANCH  15  16
ENDBRANCH  14  15
ENDBRANCH   1  14
BRANCH   9  22
ATOM     22  C   UNL     1       2.097   8.039  20.263  0.00  0.00    +0.000 C 
BRANCH  22  23
ATOM     23  C   UNL     1       1.105   8.913  21.001  0.00  0.00    +0.000 A 
ATOM     24  C   UNL     1       0.981   8.856  22.401  0.00  0.00    +0.000 A 
ATOM     25  C   UNL     1       0.052   9.664  23.067  0.00  0.00    +0.000 A 
ATOM     26  C   UNL     1      -0.751  10.541  22.340  0.00  0.00    +0.000 A 
ATOM     27 CL   UNL     1      -1.931  11.495  23.151  0.00  0.00    +0.000 Cl
ATOM     28  C   UNL     1      -0.610  10.641  20.958  0.00  0.00    +0.000 A 
ATOM     29  C   UNL     1       0.321   9.837  20.294  0.00  0.00    +0.000 A 
ENDBRANCH  22  23
ENDBRANCH   9  22
TORSDOF 9
ENDMDL
