MODEL 1
REMARK VINA RESULT:      -7.6      0.000      0.000
REMARK  Name = 
REMARK  6 active torsions:
REMARK  status: ('A' for Active; 'I' for Inactive)
REMARK    1  A    between atoms: C_1  and  O_2
REMARK    2  A    between atoms: O_2  and  C_3
REMARK    3  A    between atoms: C_6  and  C_7
REMARK    4  A    between atoms: C_7  and  C_9
REMARK    5  A    between atoms: C_9  and  C_12
REMARK    6  A    between atoms: N_10  and  N_11
REMARK                            x       y       z     vdW  Elec       q    Type
REMARK                         _______ _______ _______ _____ _____    ______ ____
ROOT
ATOM      1  C   UNL     1       6.794   4.777  16.091  0.00  0.00    +0.000 C 
ATOM      2  N   UNL     1       7.816   4.260  16.722  0.00  0.00    +0.000 NA
ENDROOT
BRANCH   1   3
ATOM      3  C   UNL     1       6.809   4.714  14.586  0.00  0.00    +0.000 A 
ATOM      4  C   UNL     1       5.986   3.760  13.963  0.00  0.00    +0.000 A 
ATOM      5  C   UNL     1       6.106   3.490  12.598  0.00  0.00    +0.000 A 
ATOM      6  C   UNL     1       7.042   4.182  11.835  0.00  0.00    +0.000 A 
ATOM      7  C   UNL     1       7.829   5.167  12.430  0.00  0.00    +0.000 A 
ATOM      8  C   UNL     1       7.714   5.439  13.800  0.00  0.00    +0.000 A 
ENDBRANCH   1   3
BRANCH   2   9
ATOM      9  N   UNL     1       8.083   4.568  18.001  0.00  0.00    +0.000 N 
ATOM     10  H   UNL     1       7.701   3.897  18.664  0.00  0.00    +0.000 HD
ATOM     11  H   UNL     1       7.979   5.524  18.326  0.00  0.00    +0.000 HD
ENDBRANCH   2   9
BRANCH   1  12
ATOM     12  C   UNL     1       5.667   5.563  16.760  0.00  0.00    +0.000 C 
ATOM     13  O   UNL     1       5.871   6.760  16.957  0.00  0.00    +0.000 OA
BRANCH  12  17
ATOM     14  C   UNL     1       1.968   3.675  17.889  0.00  0.00    +0.000 A 
ATOM     15  C   UNL     1       2.100   5.063  18.024  0.00  0.00    +0.000 A 
ATOM     16  C   UNL     1       3.298   5.714  17.683  0.00  0.00    +0.000 A 
ATOM     17  C   UNL     1       4.375   4.974  17.195  0.00  0.00    +0.000 A 
ATOM     18  C   UNL     1       4.238   3.581  17.079  0.00  0.00    +0.000 A 
ATOM     19  C   UNL     1       3.045   2.934  17.421  0.00  0.00    +0.000 A 
BRANCH  14  21
ATOM     20  C   UNL     1       0.664   2.629  19.581  0.00  0.00    +0.000 C 
ATOM     21  O   UNL     1       0.753   3.166  18.264  0.00  0.00    +0.000 OA
ENDBRANCH  14  21
ENDBRANCH  12  17
ENDBRANCH   1  12
TORSDOF 5
ENDMDL
MODEL 2
REMARK VINA RESULT:      -7.5      0.541      1.213
REMARK  Name = 
REMARK  6 active torsions:
REMARK  status: ('A' for Active; 'I' for Inactive)
REMARK    1  A    between atoms: C_1  and  O_2
REMARK    2  A    between atoms: O_2  and  C_3
REMARK    3  A    between atoms: C_6  and  C_7
REMARK    4  A    between atoms: C_7  and  C_9
REMARK    5  A    between atoms: C_9  and  C_12
REMARK    6  A    between atoms: N_10  and  N_11
REMARK                            x       y       z     vdW  Elec       q    Type
REMARK                         _______ _______ _______ _____ _____    ______ ____
ROOT
ATOM      1  C   UNL     1       6.671   4.865  15.859  0.00  0.00    +0.000 C 
ATOM      2  N   UNL     1       7.683   4.384  16.534  0.00  0.00    +0.000 NA
ENDROOT
BRANCH   1   3
ATOM      3  C   UNL     1       6.699   4.695  14.362  0.00  0.00    +0.000 A 
ATOM      4  C   UNL     1       5.837   3.739  13.796  0.00  0.00    +0.000 A 
ATOM      5  C   UNL     1       5.958   3.368  12.455  0.00  0.00    +0.000 A 
ATOM      6  C   UNL     1       6.934   3.959  11.658  0.00  0.00    +0.000 A 
ATOM      7  C   UNL     1       7.762   4.946  12.194  0.00  0.00    +0.000 A 
ATOM      8  C   UNL     1       7.646   5.319  13.539  0.00  0.00    +0.000 A 
ENDBRANCH   1   3
BRANCH   2   9
ATOM      9  N   UNL     1       7.942   4.779  17.791  0.00  0.00    +0.000 N 
ATOM     10  H   UNL     1       7.163   5.265  18.228  0.00  0.00    +0.000 HD
ATOM     11  H   UNL     1       8.833   5.213  18.012  0.00  0.00    +0.000 HD
ENDBRANCH   2   9
BRANCH   1  12
ATOM     12  C   UNL     1       5.549   5.709  16.460  0.00  0.00    +0.000 C 
ATOM     13  O   UNL     1       5.693   6.931  16.417  0.00  0.00    +0.000 OA
BRANCH  12  17
ATOM     14  C   UNL     1       2.015   4.273  18.452  0.00  0.00    +0.000 A 
ATOM     15  C   UNL     1       2.777   3.386  17.681  0.00  0.00    +0.000 A 
ATOM     16  C   UNL     1       3.928   3.821  17.001  0.00  0.00    +0.000 A 
ATOM     17  C   UNL     1       4.327   5.153  17.096  0.00  0.00    +0.000 A 
ATOM     18  C   UNL     1       3.547   6.039  17.858  0.00  0.00    +0.000 A 
ATOM     19  C   UNL     1       2.400   5.604  18.533  0.00  0.00    +0.000 A 
BRANCH  14  21
ATOM     20  C   UNL     1       1.064   3.320  20.414  0.00  0.00    +0.000 C 
ATOM     21  O   UNL     1       0.914   3.723  19.056  0.00  0.00    +0.000 OA
ENDBRANCH  14  21
ENDBRANCH  12  17
ENDBRANCH   1  12
TORSDOF 5
ENDMDL
MODEL 3
REMARK VINA RESULT:      -7.3      2.885      6.535
REMARK  Name = 
REMARK  6 active torsions:
REMARK  status: ('A' for Active; 'I' for Inactive)
REMARK    1  A    between atoms: C_1  and  O_2
REMARK    2  A    between atoms: O_2  and  C_3
REMARK    3  A    between atoms: C_6  and  C_7
REMARK    4  A    between atoms: C_7  and  C_9
REMARK    5  A    between atoms: C_9  and  C_12
REMARK    6  A    between atoms: N_10  and  N_11
REMARK                            x       y       z     vdW  Elec       q    Type
REMARK                         _______ _______ _______ _____ _____    ______ ____
ROOT
ATOM      1  C   UNL     1       2.844   3.792  18.917  0.00  0.00    +0.000 C 
ATOM      2  N   UNL     1       1.936   2.899  18.625  0.00  0.00    +0.000 NA
ENDROOT
BRANCH   1   3
ATOM      3  C   UNL     1       2.369   5.198  19.182  0.00  0.00    +0.000 A 
ATOM      4  C   UNL     1       2.540   6.149  18.161  0.00  0.00    +0.000 A 
ATOM      5  C   UNL     1       2.330   7.509  18.405  0.00  0.00    +0.000 A 
ATOM      6  C   UNL     1       1.933   7.932  19.670  0.00  0.00    +0.000 A 
ATOM      7  C   UNL     1       1.711   6.993  20.677  0.00  0.00    +0.000 A 
ATOM      8  C   UNL     1       1.923   5.629  20.438  0.00  0.00    +0.000 A 
ENDBRANCH   1   3
BRANCH   2   9
ATOM      9  N   UNL     1       2.255   1.737  18.033  0.00  0.00    +0.000 N 
ATOM     10  H   UNL     1       3.258   1.603  17.925  0.00  0.00    +0.000 HD
ATOM     11  H   UNL     1       1.740   1.427  17.214  0.00  0.00    +0.000 HD
ENDBRANCH   2   9
BRANCH   1  12
ATOM     12  C   UNL     1       4.352   3.549  18.863  0.00  0.00    +0.000 C 
ATOM     13  O   UNL     1       4.836   2.881  19.776  0.00  0.00    +0.000 OA
BRANCH  12  17
ATOM     14  C   UNL     1       6.854   4.928  15.645  0.00  0.00    +0.000 A 
ATOM     15  C   UNL     1       7.276   5.109  16.968  0.00  0.00    +0.000 A 
ATOM     16  C   UNL     1       6.478   4.688  18.047  0.00  0.00    +0.000 A 
ATOM     17  C   UNL     1       5.251   4.074  17.803  0.00  0.00    +0.000 A 
ATOM     18  C   UNL     1       4.830   3.912  16.473  0.00  0.00    +0.000 A 
ATOM     19  C   UNL     1       5.623   4.334  15.400  0.00  0.00    +0.000 A 
BRANCH  14  21
ATOM     20  C   UNL     1       7.480   4.966  13.350  0.00  0.00    +0.000 C 
ATOM     21  O   UNL     1       7.720   5.391  14.689  0.00  0.00    +0.000 OA
ENDBRANCH  14  21
ENDBRANCH  12  17
ENDBRANCH   1  12
TORSDOF 5
ENDMDL
MODEL 4
REMARK VINA RESULT:      -7.3      2.894      6.564
REMARK  Name = 
REMARK  6 active torsions:
REMARK  status: ('A' for Active; 'I' for Inactive)
REMARK    1  A    between atoms: C_1  and  O_2
REMARK    2  A    between atoms: O_2  and  C_3
REMARK    3  A    between atoms: C_6  and  C_7
REMARK    4  A    between atoms: C_7  and  C_9
REMARK    5  A    between atoms: C_9  and  C_12
REMARK    6  A    between atoms: N_10  and  N_11
REMARK                            x       y       z     vdW  Elec       q    Type
REMARK                         _______ _______ _______ _____ _____    ______ ____
ROOT
ATOM      1  C   UNL     1       2.823   3.818  18.903  0.00  0.00    +0.000 C 
ATOM      2  N   UNL     1       1.909   2.926  18.624  0.00  0.00    +0.000 NA
ENDROOT
BRANCH   1   3
ATOM      3  C   UNL     1       2.351   5.220  19.195  0.00  0.00    +0.000 A 
ATOM      4  C   UNL     1       2.538   6.193  18.198  0.00  0.00    +0.000 A 
ATOM      5  C   UNL     1       2.332   7.548  18.470  0.00  0.00    +0.000 A 
ATOM      6  C   UNL     1       1.922   7.944  19.739  0.00  0.00    +0.000 A 
ATOM      7  C   UNL     1       1.684   6.984  20.722  0.00  0.00    +0.000 A 
ATOM      8  C   UNL     1       1.892   5.625  20.454  0.00  0.00    +0.000 A 
ENDBRANCH   1   3
BRANCH   2   9
ATOM      9  N   UNL     1       2.217   1.771  18.012  0.00  0.00    +0.000 N 
ATOM     10  H   UNL     1       3.045   1.321  18.394  0.00  0.00    +0.000 HD
ATOM     11  H   UNL     1       2.185   1.710  16.999  0.00  0.00    +0.000 HD
ENDBRANCH   2   9
BRANCH   1  12
ATOM     12  C   UNL     1       4.329   3.579  18.810  0.00  0.00    +0.000 C 
ATOM     13  O   UNL     1       4.851   2.977  19.748  0.00  0.00    +0.000 OA
BRANCH  12  17
ATOM     14  C   UNL     1       6.924   5.035  15.701  0.00  0.00    +0.000 A 
ATOM     15  C   UNL     1       5.678   4.494  15.358  0.00  0.00    +0.000 A 
ATOM     16  C   UNL     1       4.810   3.992  16.343  0.00  0.00    +0.000 A 
ATOM     17  C   UNL     1       5.185   4.036  17.685  0.00  0.00    +0.000 A 
ATOM     18  C   UNL     1       6.444   4.565  18.017  0.00  0.00    +0.000 A 
ATOM     19  C   UNL     1       7.308   5.062  17.035  0.00  0.00    +0.000 A 
BRANCH  14  21
ATOM     20  C   UNL     1       7.394   4.908  13.373  0.00  0.00    +0.000 C 
ATOM     21  O   UNL     1       7.677   5.481  14.646  0.00  0.00    +0.000 OA
ENDBRANCH  14  21
ENDBRANCH  12  17
ENDBRANCH   1  12
TORSDOF 5
ENDMDL
MODEL 5
REMARK VINA RESULT:      -7.3      0.569      1.651
REMARK  Name = 
REMARK  6 active torsions:
REMARK  status: ('A' for Active; 'I' for Inactive)
REMARK    1  A    between atoms: C_1  and  O_2
REMARK    2  A    between atoms: O_2  and  C_3
REMARK    3  A    between atoms: C_6  and  C_7
REMARK    4  A    between atoms: C_7  and  C_9
REMARK    5  A    between atoms: C_9  and  C_12
REMARK    6  A    between atoms: N_10  and  N_11
REMARK                            x       y       z     vdW  Elec       q    Type
REMARK                         _______ _______ _______ _____ _____    ______ ____
ROOT
ATOM      1  C   UNL     1       6.689   4.799  15.922  0.00  0.00    +0.000 C 
ATOM      2  N   UNL     1       7.681   4.466  16.706  0.00  0.00    +0.000 NA
ENDROOT
BRANCH   1   3
ATOM      3  C   UNL     1       6.818   4.449  14.462  0.00  0.00    +0.000 A 
ATOM      4  C   UNL     1       7.702   5.215  13.681  0.00  0.00    +0.000 A 
ATOM      5  C   UNL     1       7.715   5.100  12.289  0.00  0.00    +0.000 A 
ATOM      6  C   UNL     1       6.853   4.206  11.661  0.00  0.00    +0.000 A 
ATOM      7  C   UNL     1       6.007   3.404  12.426  0.00  0.00    +0.000 A 
ATOM      8  C   UNL     1       5.989   3.518  13.823  0.00  0.00    +0.000 A 
ENDBRANCH   1   3
BRANCH   2   9
ATOM      9  N   UNL     1       7.841   5.026  17.916  0.00  0.00    +0.000 N 
ATOM     10  H   UNL     1       8.252   4.395  18.600  0.00  0.00    +0.000 HD
ATOM     11  H   UNL     1       7.097   5.589  18.317  0.00  0.00    +0.000 HD
ENDBRANCH   2   9
BRANCH   1  12
ATOM     12  C   UNL     1       5.488   5.642  16.349  0.00  0.00    +0.000 C 
ATOM     13  O   UNL     1       5.548   6.848  16.114  0.00  0.00    +0.000 OA
BRANCH  12  17
ATOM     14  C   UNL     1       2.013   4.261  18.479  0.00  0.00    +0.000 A 
ATOM     15  C   UNL     1       2.750   3.354  17.706  0.00  0.00    +0.000 A 
ATOM     16  C   UNL     1       3.881   3.770  16.982  0.00  0.00    +0.000 A 
ATOM     17  C   UNL     1       4.285   5.103  17.034  0.00  0.00    +0.000 A 
ATOM     18  C   UNL     1       3.529   6.008  17.799  0.00  0.00    +0.000 A 
ATOM     19  C   UNL     1       2.402   5.593  18.517  0.00  0.00    +0.000 A 
BRANCH  14  21
ATOM     20  C   UNL     1       1.168   3.166  20.414  0.00  0.00    +0.000 C 
ATOM     21  O   UNL     1       0.930   3.728  19.127  0.00  0.00    +0.000 OA
ENDBRANCH  14  21
ENDBRANCH  12  17
ENDBRANCH   1  12
TORSDOF 5
ENDMDL
MODEL 6
REMARK VINA RESULT:      -7.2      0.518      1.222
REMARK  Name = 
REMARK  6 active torsions:
REMARK  status: ('A' for Active; 'I' for Inactive)
REMARK    1  A    between atoms: C_1  and  O_2
REMARK    2  A    between atoms: O_2  and  C_3
REMARK    3  A    between atoms: C_6  and  C_7
REMARK    4  A    between atoms: C_7  and  C_9
REMARK    5  A    between atoms: C_9  and  C_12
REMARK    6  A    between atoms: N_10  and  N_11
REMARK                            x       y       z     vdW  Elec       q    Type
REMARK                         _______ _______ _______ _____ _____    ______ ____
ROOT
ATOM      1  C   UNL     1       6.708   4.818  15.885  0.00  0.00    +0.000 C 
ATOM      2  N   UNL     1       7.676   4.451  16.683  0.00  0.00    +0.000 NA
ENDROOT
BRANCH   1   3
ATOM      3  C   UNL     1       6.854   4.481  14.423  0.00  0.00    +0.000 A 
ATOM      4  C   UNL     1       7.748   5.254  13.661  0.00  0.00    +0.000 A 
ATOM      5  C   UNL     1       7.778   5.152  12.268  0.00  0.00    +0.000 A 
ATOM      6  C   UNL     1       6.923   4.265  11.621  0.00  0.00    +0.000 A 
ATOM      7  C   UNL     1       6.067   3.456  12.368  0.00  0.00    +0.000 A 
ATOM      8  C   UNL     1       6.033   3.557  13.765  0.00  0.00    +0.000 A 
ENDBRANCH   1   3
BRANCH   2   9
ATOM      9  N   UNL     1       7.829   4.993  17.901  0.00  0.00    +0.000 N 
ATOM     10  H   UNL     1       8.786   5.276  18.098  0.00  0.00    +0.000 HD
ATOM     11  H   UNL     1       7.387   4.561  18.707  0.00  0.00    +0.000 HD
ENDBRANCH   2   9
BRANCH   1  12
ATOM     12  C   UNL     1       5.521   5.685  16.301  0.00  0.00    +0.000 C 
ATOM     13  O   UNL     1       5.560   6.870  15.971  0.00  0.00    +0.000 OA
BRANCH  12  17
ATOM     14  C   UNL     1       2.139   4.080  18.426  0.00  0.00    +0.000 A 
ATOM     15  C   UNL     1       2.390   5.457  18.473  0.00  0.00    +0.000 A 
ATOM     16  C   UNL     1       3.494   6.018  17.807  0.00  0.00    +0.000 A 
ATOM     17  C   UNL     1       4.354   5.196  17.080  0.00  0.00    +0.000 A 
ATOM     18  C   UNL     1       4.104   3.814  17.052  0.00  0.00    +0.000 A 
ATOM     19  C   UNL     1       3.006   3.257  17.718  0.00  0.00    +0.000 A 
BRANCH  14  21
ATOM     20  C   UNL     1       0.608   2.323  18.900  0.00  0.00    +0.000 C 
ATOM     21  O   UNL     1       1.037   3.663  19.124  0.00  0.00    +0.000 OA
ENDBRANCH  14  21
ENDBRANCH  12  17
ENDBRANCH   1  12
TORSDOF 5
ENDMDL
MODEL 7
REMARK VINA RESULT:      -7.1      1.528      2.082
REMARK  Name = 
REMARK  6 active torsions:
REMARK  status: ('A' for Active; 'I' for Inactive)
REMARK    1  A    between atoms: C_1  and  O_2
REMARK    2  A    between atoms: O_2  and  C_3
REMARK    3  A    between atoms: C_6  and  C_7
REMARK    4  A    between atoms: C_7  and  C_9
REMARK    5  A    between atoms: C_9  and  C_12
REMARK    6  A    between atoms: N_10  and  N_11
REMARK                            x       y       z     vdW  Elec       q    Type
REMARK                         _______ _______ _______ _____ _____    ______ ____
ROOT
ATOM      1  C   UNL     1       6.431   5.760  15.958  0.00  0.00    +0.000 C 
ATOM      2  N   UNL     1       7.530   6.360  16.336  0.00  0.00    +0.000 NA
ENDROOT
BRANCH   1   3
ATOM      3  C   UNL     1       6.498   4.929  14.702  0.00  0.00    +0.000 A 
ATOM      4  C   UNL     1       7.541   5.193  13.798  0.00  0.00    +0.000 A 
ATOM      5  C   UNL     1       7.546   4.625  12.522  0.00  0.00    +0.000 A 
ATOM      6  C   UNL     1       6.514   3.774  12.139  0.00  0.00    +0.000 A 
ATOM      7  C   UNL     1       5.499   3.464  13.044  0.00  0.00    +0.000 A 
ATOM      8  C   UNL     1       5.489   4.034  14.324  0.00  0.00    +0.000 A 
ENDBRANCH   1   3
BRANCH   2   9
ATOM      9  N   UNL     1       7.509   7.385  17.202  0.00  0.00    +0.000 N 
ATOM     10  H   UNL     1       8.427   7.796  17.361  0.00  0.00    +0.000 HD
ATOM     11  H   UNL     1       6.973   7.312  18.061  0.00  0.00    +0.000 HD
ENDBRANCH   2   9
BRANCH   1  12
ATOM     12  C   UNL     1       5.064   5.959  16.609  0.00  0.00    +0.000 C 
ATOM     13  O   UNL     1       4.451   6.982  16.305  0.00  0.00    +0.000 OA
BRANCH  12  17
ATOM     14  C   UNL     1       3.107   3.376  19.441  0.00  0.00    +0.000 A 
ATOM     15  C   UNL     1       4.495   3.288  19.277  0.00  0.00    +0.000 A 
ATOM     16  C   UNL     1       5.169   4.103  18.349  0.00  0.00    +0.000 A 
ATOM     17  C   UNL     1       4.451   5.019  17.582  0.00  0.00    +0.000 A 
ATOM     18  C   UNL     1       3.057   5.088  17.742  0.00  0.00    +0.000 A 
ATOM     19  C   UNL     1       2.388   4.275  18.664  0.00  0.00    +0.000 A 
BRANCH  14  21
ATOM     20  C   UNL     1       1.467   3.007  21.123  0.00  0.00    +0.000 C 
ATOM     21  O   UNL     1       2.575   2.522  20.371  0.00  0.00    +0.000 OA
ENDBRANCH  14  21
ENDBRANCH  12  17
ENDBRANCH   1  12
TORSDOF 5
ENDMDL
MODEL 8
REMARK VINA RESULT:      -7.1      3.066      4.492
REMARK  Name = 
REMARK  6 active torsions:
REMARK  status: ('A' for Active; 'I' for Inactive)
REMARK    1  A    between atoms: C_1  and  O_2
REMARK    2  A    between atoms: O_2  and  C_3
REMARK    3  A    between atoms: C_6  and  C_7
REMARK    4  A    between atoms: C_7  and  C_9
REMARK    5  A    between atoms: C_9  and  C_12
REMARK    6  A    between atoms: N_10  and  N_11
REMARK                            x       y       z     vdW  Elec       q    Type
REMARK                         _______ _______ _______ _____ _____    ______ ____
ROOT
ATOM      1  C   UNL     1       3.600   3.277  17.622  0.00  0.00    +0.000 C 
ATOM      2  N   UNL     1       3.693   2.005  17.910  0.00  0.00    +0.000 NA
ENDROOT
BRANCH   1   3
ATOM      3  C   UNL     1       4.873   3.998  17.262  0.00  0.00    +0.000 A 
ATOM      4  C   UNL     1       5.180   4.140  15.897  0.00  0.00    +0.000 A 
ATOM      5  C   UNL     1       6.436   4.595  15.488  0.00  0.00    +0.000 A 
ATOM      6  C   UNL     1       7.396   4.926  16.439  0.00  0.00    +0.000 A 
ATOM      7  C   UNL     1       7.087   4.838  17.796  0.00  0.00    +0.000 A 
ATOM      8  C   UNL     1       5.830   4.380  18.211  0.00  0.00    +0.000 A 
ENDBRANCH   1   3
BRANCH   2   9
ATOM      9  N   UNL     1       2.722   1.361  18.576  0.00  0.00    +0.000 N 
ATOM     10  H   UNL     1       1.787   1.671  18.322  0.00  0.00    +0.000 HD
ATOM     11  H   UNL     1       2.812   1.202  19.575  0.00  0.00    +0.000 HD
ENDBRANCH   2   9
BRANCH   1  12
ATOM     12  C   UNL     1       2.327   4.110  17.768  0.00  0.00    +0.000 C 
ATOM     13  O   UNL     1       1.357   3.759  17.097  0.00  0.00    +0.000 OA
BRANCH  12  17
ATOM     14  C   UNL     1       1.819   7.450  20.435  0.00  0.00    +0.000 A 
ATOM     15  C   UNL     1       2.233   7.680  19.116  0.00  0.00    +0.000 A 
ATOM     16  C   UNL     1       2.427   6.614  18.220  0.00  0.00    +0.000 A 
ATOM     17  C   UNL     1       2.200   5.305  18.641  0.00  0.00    +0.000 A 
ATOM     18  C   UNL     1       1.801   5.083  19.970  0.00  0.00    +0.000 A 
ATOM     19  C   UNL     1       1.611   6.145  20.862  0.00  0.00    +0.000 A 
BRANCH  14  21
ATOM     20  C   UNL     1       0.347   8.935  21.567  0.00  0.00    +0.000 C 
ATOM     21  O   UNL     1       1.676   8.573  21.206  0.00  0.00    +0.000 OA
ENDBRANCH  14  21
ENDBRANCH  12  17
ENDBRANCH   1  12
TORSDOF 5
ENDMDL
MODEL 9
REMARK VINA RESULT:      -7.1      2.984      6.567
REMARK  Name = 
REMARK  6 active torsions:
REMARK  status: ('A' for Active; 'I' for Inactive)
REMARK    1  A    between atoms: C_1  and  O_2
REMARK    2  A    between atoms: O_2  and  C_3
REMARK    3  A    between atoms: C_6  and  C_7
REMARK    4  A    between atoms: C_7  and  C_9
REMARK    5  A    between atoms: C_9  and  C_12
REMARK    6  A    between atoms: N_10  and  N_11
REMARK                            x       y       z     vdW  Elec       q    Type
REMARK                         _______ _______ _______ _____ _____    ______ ____
ROOT
ATOM      1  C   UNL     1       2.926   4.004  19.139  0.00  0.00    +0.000 C 
ATOM      2  N   UNL     1       1.894   3.211  19.008  0.00  0.00    +0.000 NA
ENDROOT
BRANCH   1   3
ATOM      3  C   UNL     1       2.645   5.464  19.386  0.00  0.00    +0.000 A 
ATOM      4  C   UNL     1       2.001   5.812  20.586  0.00  0.00    +0.000 A 
ATOM      5  C   UNL     1       1.511   7.104  20.790  0.00  0.00    +0.000 A 
ATOM      6  C   UNL     1       1.674   8.069  19.800  0.00  0.00    +0.000 A 
ATOM      7  C   UNL     1       2.356   7.751  18.626  0.00  0.00    +0.000 A 
ATOM      8  C   UNL     1       2.846   6.456  18.417  0.00  0.00    +0.000 A 
ENDBRANCH   1   3
BRANCH   2   9
ATOM      9  N   UNL     1       2.006   1.998  18.443  0.00  0.00    +0.000 N 
ATOM     10  H   UNL     1       2.651   1.384  18.934  0.00  0.00    +0.000 HD
ATOM     11  H   UNL     1       2.095   1.915  17.435  0.00  0.00    +0.000 HD
ENDBRANCH   2   9
BRANCH   1  12
ATOM     12  C   UNL     1       4.378   3.586  18.913  0.00  0.00    +0.000 C 
ATOM     13  O   UNL     1       4.845   2.766  19.703  0.00  0.00    +0.000 OA
BRANCH  12  17
ATOM     14  C   UNL     1       6.779   4.981  15.625  0.00  0.00    +0.000 A 
ATOM     15  C   UNL     1       7.271   5.094  16.932  0.00  0.00    +0.000 A 
ATOM     16  C   UNL     1       6.509   4.666  18.033  0.00  0.00    +0.000 A 
ATOM     17  C   UNL     1       5.246   4.113  17.830  0.00  0.00    +0.000 A 
ATOM     18  C   UNL     1       4.754   4.019  16.517  0.00  0.00    +0.000 A 
ATOM     19  C   UNL     1       5.513   4.447  15.421  0.00  0.00    +0.000 A 
BRANCH  14  21
ATOM     20  C   UNL     1       7.468   4.861  13.352  0.00  0.00    +0.000 C 
ATOM     21  O   UNL     1       7.616   5.442  14.644  0.00  0.00    +0.000 OA
ENDBRANCH  14  21
ENDBRANCH  12  17
ENDBRANCH   1  12
TORSDOF 5
ENDMDL
