MODEL 1
REMARK VINA RESULT:      -7.5      0.000      0.000
REMARK  Name = 
REMARK  8 active torsions:
REMARK  status: ('A' for Active; 'I' for Inactive)
REMARK    1  A    between atoms: C_1  and  N_2
REMARK    2  A    between atoms: N_2  and  C_3
REMARK    3  A    between atoms: N_6  and  C_7
REMARK    4  A    between atoms: C_9  and  O_10
REMARK    5  A    between atoms: O_10  and  C_11
REMARK    6  A    between atoms: C_12  and  C_13
REMARK    7  A    between atoms: N_15  and  C_16
REMARK    8  A    between atoms: C_16  and  C_17
REMARK                            x       y       z     vdW  Elec       q    Type
REMARK                         _______ _______ _______ _____ _____    ______ ____
ROOT
ATOM      1  C   UNL     1       3.683   5.581  18.956  0.00  0.00    +0.000 A 
ATOM      2  C   UNL     1       5.052   5.886  18.970  0.00  0.00    +0.000 A 
ATOM      3  C   UNL     1       5.929   5.523  17.937  0.00  0.00    +0.000 A 
ATOM      4  C   UNL     1       5.436   4.803  16.842  0.00  0.00    +0.000 A 
ATOM      5  C   UNL     1       4.070   4.465  16.814  0.00  0.00    +0.000 A 
ATOM      6  C   UNL     1       3.209   4.860  17.850  0.00  0.00    +0.000 A 
ATOM      7 CL   UNL     1       1.526   4.487  17.691  0.00  0.00    +0.000 Cl
ENDROOT
BRANCH   1  11
ATOM      8  C   UNL     1       1.372   9.219  19.016  0.00  0.00    +0.000 A 
ATOM      9  N   UNL     1       2.101   8.092  18.979  0.00  0.00    +0.000 NA
ATOM     10  C   UNL     1       2.099   7.254  20.026  0.00  0.00    +0.000 A 
ATOM     11  N   UNL     1       2.810   6.058  19.951  0.00  0.00    +0.000 N 
ATOM     12  N   UNL     1       1.396   7.487  21.143  0.00  0.00    +0.000 NA
ATOM     13  C   UNL     1       0.702   8.646  21.185  0.00  0.00    +0.000 A 
ATOM     14  C   UNL     1       0.645   9.551  20.148  0.00  0.00    +0.000 A 
ATOM     15 CL   UNL     1      -0.301  10.980  20.280  0.00  0.00    +0.000 Cl
ATOM     16  H   UNL     1       2.529   5.415  20.675  0.00  0.00    +0.000 HD
BRANCH   8  18
ATOM     17  C   UNL     1       2.243  11.254  18.046  0.00  0.00    +0.000 C 
ATOM     18  N   UNL     1       1.400  10.074  17.894  0.00  0.00    +0.000 N 
ATOM     19  H   UNL     1       1.629   9.534  17.064  0.00  0.00    +0.000 HD
ENDBRANCH   8  18
ENDBRANCH   1  11
BRANCH   4  20
ATOM     20  C   UNL     1       6.251   4.529  15.629  0.00  0.00    +0.000 C 
ATOM     21  O   UNL     1       7.454   4.324  15.721  0.00  0.00    +0.000 OA
ATOM     22  N   UNL     1       5.590   4.545  14.411  0.00  0.00    +0.000 N 
ATOM     23  H   UNL     1       4.577   4.556  14.380  0.00  0.00    +0.000 HD
BRANCH  22  24
ATOM     24  C   UNL     1       6.294   4.206  13.194  0.00  0.00    +0.000 C 
ATOM     25  C   UNL     1       5.508   3.634  12.026  0.00  0.00    +0.000 C 
ATOM     26  C   UNL     1       6.427   2.745  12.795  0.00  0.00    +0.000 C 
BRANCH  24  27
ATOM     27  C   UNL     1       7.424   5.066  12.885  0.00  0.00    +0.000 C 
ATOM     28  N   UNL     1       8.345   5.748  12.681  0.00  0.00    +0.000 NA
ENDBRANCH  24  27
ENDBRANCH  22  24
ENDBRANCH   4  20
BRANCH   3  29
ATOM     29  O   UNL     1       7.175   6.069  18.090  0.00  0.00    +0.000 OA
ATOM     30  C   UNL     1       7.367   7.390  17.600  0.00  0.00    +0.000 C 
ENDBRANCH   3  29
TORSDOF 6
ENDMDL
MODEL 2
REMARK VINA RESULT:      -7.0      3.042      4.475
REMARK  Name = 
REMARK  8 active torsions:
REMARK  status: ('A' for Active; 'I' for Inactive)
REMARK    1  A    between atoms: C_1  and  N_2
REMARK    2  A    between atoms: N_2  and  C_3
REMARK    3  A    between atoms: N_6  and  C_7
REMARK    4  A    between atoms: C_9  and  O_10
REMARK    5  A    between atoms: O_10  and  C_11
REMARK    6  A    between atoms: C_12  and  C_13
REMARK    7  A    between atoms: N_15  and  C_16
REMARK    8  A    between atoms: C_16  and  C_17
REMARK                            x       y       z     vdW  Elec       q    Type
REMARK                         _______ _______ _______ _____ _____    ______ ____
ROOT
ATOM      1  C   UNL     1       1.406   8.773  19.582  0.00  0.00    +0.000 A 
ATOM      2  C   UNL     1       1.486   7.522  20.213  0.00  0.00    +0.000 A 
ATOM      3  C   UNL     1       2.310   6.483  19.753  0.00  0.00    +0.000 A 
ATOM      4  C   UNL     1       3.078   6.678  18.599  0.00  0.00    +0.000 A 
ATOM      5  C   UNL     1       2.999   7.916  17.934  0.00  0.00    +0.000 A 
ATOM      6  C   UNL     1       2.184   8.947  18.427  0.00  0.00    +0.000 A 
ATOM      7 CL   UNL     1       2.218  10.470  17.605  0.00  0.00    +0.000 Cl
ENDROOT
BRANCH   1  11
ATOM      8  C   UNL     1      -2.352  10.412  18.252  0.00  0.00    +0.000 A 
ATOM      9  N   UNL     1      -1.181   9.888  18.650  0.00  0.00    +0.000 NA
ATOM     10  C   UNL     1      -0.524  10.420  19.690  0.00  0.00    +0.000 A 
ATOM     11  N   UNL     1       0.659   9.830  20.131  0.00  0.00    +0.000 N 
ATOM     12  N   UNL     1      -0.978  11.481  20.373  0.00  0.00    +0.000 NA
ATOM     13  C   UNL     1      -2.136  12.024  19.936  0.00  0.00    +0.000 A 
ATOM     14  C   UNL     1      -2.874  11.530  18.882  0.00  0.00    +0.000 A 
ATOM     15 CL   UNL     1      -4.357  12.267  18.427  0.00  0.00    +0.000 Cl
ATOM     16  H   UNL     1       0.913  10.155  21.051  0.00  0.00    +0.000 HD
BRANCH   8  18
ATOM     17  C   UNL     1      -2.626  10.354  15.852  0.00  0.00    +0.000 C 
ATOM     18  N   UNL     1      -3.012   9.823  17.153  0.00  0.00    +0.000 N 
ATOM     19  H   UNL     1      -2.920   8.812  17.206  0.00  0.00    +0.000 HD
ENDBRANCH   8  18
ENDBRANCH   1  11
BRANCH   4  20
ATOM     20  C   UNL     1       4.101   5.701  18.143  0.00  0.00    +0.000 C 
ATOM     21  O   UNL     1       4.249   4.636  18.726  0.00  0.00    +0.000 OA
ATOM     22  N   UNL     1       4.880   6.068  17.056  0.00  0.00    +0.000 N 
ATOM     23  H   UNL     1       4.629   6.877  16.498  0.00  0.00    +0.000 HD
BRANCH  22  24
ATOM     24  C   UNL     1       5.840   5.142  16.499  0.00  0.00    +0.000 C 
ATOM     25  C   UNL     1       6.123   5.186  15.006  0.00  0.00    +0.000 C 
ATOM     26  C   UNL     1       5.355   4.038  15.572  0.00  0.00    +0.000 C 
BRANCH  24  27
ATOM     27  C   UNL     1       6.944   4.805  17.381  0.00  0.00    +0.000 C 
ATOM     28  N   UNL     1       7.799   4.509  18.113  0.00  0.00    +0.000 NA
ENDBRANCH  24  27
ENDBRANCH  22  24
ENDBRANCH   4  20
BRANCH   3  29
ATOM     29  O   UNL     1       2.349   5.423  20.618  0.00  0.00    +0.000 OA
ATOM     30  C   UNL     1       1.285   4.483  20.539  0.00  0.00    +0.000 C 
ENDBRANCH   3  29
TORSDOF 6
ENDMDL
MODEL 3
REMARK VINA RESULT:      -6.9      3.402      8.625
REMARK  Name = 
REMARK  8 active torsions:
REMARK  status: ('A' for Active; 'I' for Inactive)
REMARK    1  A    between atoms: C_1  and  N_2
REMARK    2  A    between atoms: N_2  and  C_3
REMARK    3  A    between atoms: N_6  and  C_7
REMARK    4  A    between atoms: C_9  and  O_10
REMARK    5  A    between atoms: O_10  and  C_11
REMARK    6  A    between atoms: C_12  and  C_13
REMARK    7  A    between atoms: N_15  and  C_16
REMARK    8  A    between atoms: C_16  and  C_17
REMARK                            x       y       z     vdW  Elec       q    Type
REMARK                         _______ _______ _______ _____ _____    ______ ____
ROOT
ATOM      1  C   UNL     1       2.243   6.176  19.035  0.00  0.00    +0.000 A 
ATOM      2  C   UNL     1       2.033   7.435  18.453  0.00  0.00    +0.000 A 
ATOM      3  C   UNL     1       1.562   8.543  19.174  0.00  0.00    +0.000 A 
ATOM      4  C   UNL     1       1.262   8.398  20.534  0.00  0.00    +0.000 A 
ATOM      5  C   UNL     1       1.443   7.139  21.137  0.00  0.00    +0.000 A 
ATOM      6  C   UNL     1       1.937   6.052  20.398  0.00  0.00    +0.000 A 
ATOM      7 CL   UNL     1       2.221   4.565  21.238  0.00  0.00    +0.000 Cl
ENDROOT
BRANCH   1  11
ATOM      8  C   UNL     1       5.861   6.156  16.693  0.00  0.00    +0.000 A 
ATOM      9  N   UNL     1       4.737   6.183  17.426  0.00  0.00    +0.000 NA
ATOM     10  C   UNL     1       3.955   5.096  17.500  0.00  0.00    +0.000 A 
ATOM     11  N   UNL     1       2.823   5.117  18.313  0.00  0.00    +0.000 N 
ATOM     12  N   UNL     1       4.235   3.952  16.860  0.00  0.00    +0.000 NA
ATOM     13  C   UNL     1       5.347   3.952  16.091  0.00  0.00    +0.000 A 
ATOM     14  C   UNL     1       6.205   5.023  15.972  0.00  0.00    +0.000 A 
ATOM     15 CL   UNL     1       7.619   4.913  15.001  0.00  0.00    +0.000 Cl
ATOM     16  H   UNL     1       2.473   4.187  18.482  0.00  0.00    +0.000 HD
BRANCH   8  18
ATOM     17  C   UNL     1       7.652   7.427  17.702  0.00  0.00    +0.000 C 
ATOM     18  N   UNL     1       6.657   7.319  16.641  0.00  0.00    +0.000 N 
ATOM     19  H   UNL     1       7.063   7.411  15.714  0.00  0.00    +0.000 HD
ENDBRANCH   8  18
ENDBRANCH   1  11
BRANCH   4  20
ATOM     20  C   UNL     1       0.926   9.552  21.409  0.00  0.00    +0.000 C 
ATOM     21  O   UNL     1       1.520   9.726  22.465  0.00  0.00    +0.000 OA
ATOM     22  N   UNL     1      -0.093  10.388  20.982  0.00  0.00    +0.000 N 
ATOM     23  H   UNL     1      -0.452  10.314  20.036  0.00  0.00    +0.000 HD
BRANCH  22  24
ATOM     24  C   UNL     1      -0.424  11.579  21.732  0.00  0.00    +0.000 C 
ATOM     25  C   UNL     1      -1.119  11.431  23.076  0.00  0.00    +0.000 C 
ATOM     26  C   UNL     1      -1.885  11.962  21.911  0.00  0.00    +0.000 C 
BRANCH  24  27
ATOM     27  C   UNL     1       0.517  12.676  21.581  0.00  0.00    +0.000 C 
ATOM     28  N   UNL     1       1.254  13.573  21.498  0.00  0.00    +0.000 NA
ENDBRANCH  24  27
ENDBRANCH  22  24
ENDBRANCH   4  20
BRANCH   3  29
ATOM     29  O   UNL     1       1.594   9.698  18.441  0.00  0.00    +0.000 OA
ATOM     30  C   UNL     1       0.389  10.088  17.794  0.00  0.00    +0.000 C 
ENDBRANCH   3  29
TORSDOF 6
ENDMDL
MODEL 4
REMARK VINA RESULT:      -6.9      3.969      6.074
REMARK  Name = 
REMARK  8 active torsions:
REMARK  status: ('A' for Active; 'I' for Inactive)
REMARK    1  A    between atoms: C_1  and  N_2
REMARK    2  A    between atoms: N_2  and  C_3
REMARK    3  A    between atoms: N_6  and  C_7
REMARK    4  A    between atoms: C_9  and  O_10
REMARK    5  A    between atoms: O_10  and  C_11
REMARK    6  A    between atoms: C_12  and  C_13
REMARK    7  A    between atoms: N_15  and  C_16
REMARK    8  A    between atoms: C_16  and  C_17
REMARK                            x       y       z     vdW  Elec       q    Type
REMARK                         _______ _______ _______ _____ _____    ______ ____
ROOT
ATOM      1  C   UNL     1       1.288   9.718  18.693  0.00  0.00    +0.000 A 
ATOM      2  C   UNL     1       2.150   9.059  17.803  0.00  0.00    +0.000 A 
ATOM      3  C   UNL     1       2.700   7.795  18.063  0.00  0.00    +0.000 A 
ATOM      4  C   UNL     1       2.402   7.154  19.272  0.00  0.00    +0.000 A 
ATOM      5  C   UNL     1       1.557   7.803  20.191  0.00  0.00    +0.000 A 
ATOM      6  C   UNL     1       1.002   9.058  19.898  0.00  0.00    +0.000 A 
ATOM      7 CL   UNL     1      -0.103   9.744  21.041  0.00  0.00    +0.000 Cl
ENDROOT
BRANCH   1  11
ATOM      8  C   UNL     1       2.114  13.687  20.154  0.00  0.00    +0.000 A 
ATOM      9  N   UNL     1       1.871  12.443  19.712  0.00  0.00    +0.000 NA
ATOM     10  C   UNL     1       0.867  12.218  18.852  0.00  0.00    +0.000 A 
ATOM     11  N   UNL     1       0.664  10.932  18.353  0.00  0.00    +0.000 N 
ATOM     12  N   UNL     1       0.064  13.191  18.399  0.00  0.00    +0.000 NA
ATOM     13  C   UNL     1       0.292  14.431  18.885  0.00  0.00    +0.000 A 
ATOM     14  C   UNL     1       1.308  14.744  19.761  0.00  0.00    +0.000 A 
ATOM     15 CL   UNL     1       1.544  16.362  20.291  0.00  0.00    +0.000 Cl
ATOM     16  H   UNL     1       0.064  10.941  17.544  0.00  0.00    +0.000 HD
BRANCH   8  18
ATOM     17  C   UNL     1       4.343  14.558  20.494  0.00  0.00    +0.000 C 
ATOM     18  N   UNL     1       3.180  13.883  21.057  0.00  0.00    +0.000 N 
ATOM     19  H   UNL     1       2.832  14.338  21.897  0.00  0.00    +0.000 HD
ENDBRANCH   8  18
ENDBRANCH   1  11
BRANCH   4  20
ATOM     20  C   UNL     1       2.797   5.749  19.553  0.00  0.00    +0.000 C 
ATOM     21  O   UNL     1       3.920   5.488  19.963  0.00  0.00    +0.000 OA
ATOM     22  N   UNL     1       1.850   4.768  19.306  0.00  0.00    +0.000 N 
ATOM     23  H   UNL     1       0.885   5.024  19.124  0.00  0.00    +0.000 HD
BRANCH  22  24
ATOM     24  C   UNL     1       2.126   3.387  19.632  0.00  0.00    +0.000 C 
ATOM     25  C   UNL     1       3.149   2.627  18.804  0.00  0.00    +0.000 C 
ATOM     26  C   UNL     1       1.701   2.296  18.661  0.00  0.00    +0.000 C 
BRANCH  24  27
ATOM     27  C   UNL     1       2.034   3.064  21.046  0.00  0.00    +0.000 C 
ATOM     28  N   UNL     1       1.984   2.767  22.170  0.00  0.00    +0.000 NA
ENDBRANCH  24  27
ENDBRANCH  22  24
ENDBRANCH   4  20
BRANCH   3  29
ATOM     29  O   UNL     1       3.372   7.283  16.986  0.00  0.00    +0.000 OA
ATOM     30  C   UNL     1       4.786   7.175  17.098  0.00  0.00    +0.000 C 
ENDBRANCH   3  29
TORSDOF 6
ENDMDL
MODEL 5
REMARK VINA RESULT:      -6.9      3.205      5.030
REMARK  Name = 
REMARK  8 active torsions:
REMARK  status: ('A' for Active; 'I' for Inactive)
REMARK    1  A    between atoms: C_1  and  N_2
REMARK    2  A    between atoms: N_2  and  C_3
REMARK    3  A    between atoms: N_6  and  C_7
REMARK    4  A    between atoms: C_9  and  O_10
REMARK    5  A    between atoms: O_10  and  C_11
REMARK    6  A    between atoms: C_12  and  C_13
REMARK    7  A    between atoms: N_15  and  C_16
REMARK    8  A    between atoms: C_16  and  C_17
REMARK                            x       y       z     vdW  Elec       q    Type
REMARK                         _______ _______ _______ _____ _____    ______ ____
ROOT
ATOM      1  C   UNL     1       1.114   9.030  19.697  0.00  0.00    +0.000 A 
ATOM      2  C   UNL     1       1.104   7.818  20.403  0.00  0.00    +0.000 A 
ATOM      3  C   UNL     1       1.914   6.725  20.059  0.00  0.00    +0.000 A 
ATOM      4  C   UNL     1       2.762   6.823  18.949  0.00  0.00    +0.000 A 
ATOM      5  C   UNL     1       2.774   8.021  18.211  0.00  0.00    +0.000 A 
ATOM      6  C   UNL     1       1.971   9.108  18.589  0.00  0.00    +0.000 A 
ATOM      7 CL   UNL     1       2.117  10.577  17.684  0.00  0.00    +0.000 Cl
ENDROOT
BRANCH   1  11
ATOM      8  C   UNL     1      -2.654  10.526  18.233  0.00  0.00    +0.000 A 
ATOM      9  N   UNL     1      -1.480  10.045  18.674  0.00  0.00    +0.000 NA
ATOM     10  C   UNL     1      -0.811  10.687  19.643  0.00  0.00    +0.000 A 
ATOM     11  N   UNL     1       0.375  10.145  20.134  0.00  0.00    +0.000 N 
ATOM     12  N   UNL     1      -1.255  11.818  20.209  0.00  0.00    +0.000 NA
ATOM     13  C   UNL     1      -2.416  12.314  19.726  0.00  0.00    +0.000 A 
ATOM     14  C   UNL     1      -3.166  11.709  18.741  0.00  0.00    +0.000 A 
ATOM     15 CL   UNL     1      -4.653  12.396  18.222  0.00  0.00    +0.000 Cl
ATOM     16  H   UNL     1       0.640  10.568  21.010  0.00  0.00    +0.000 HD
BRANCH   8  18
ATOM     17  C   UNL     1      -2.898  10.148  15.859  0.00  0.00    +0.000 C 
ATOM     18  N   UNL     1      -3.327   9.821  17.213  0.00  0.00    +0.000 N 
ATOM     19  H   UNL     1      -3.286   8.824  17.407  0.00  0.00    +0.000 HD
ENDBRANCH   8  18
ENDBRANCH   1  11
BRANCH   4  20
ATOM     20  C   UNL     1       3.774   5.785  18.619  0.00  0.00    +0.000 C 
ATOM     21  O   UNL     1       4.668   5.513  19.409  0.00  0.00    +0.000 OA
ATOM     22  N   UNL     1       3.665   5.173  17.380  0.00  0.00    +0.000 N 
ATOM     23  H   UNL     1       2.829   5.300  16.820  0.00  0.00    +0.000 HD
BRANCH  22  24
ATOM     24  C   UNL     1       4.558   4.095  17.017  0.00  0.00    +0.000 C 
ATOM     25  C   UNL     1       6.046   4.382  16.900  0.00  0.00    +0.000 C 
ATOM     26  C   UNL     1       5.250   4.130  15.663  0.00  0.00    +0.000 C 
BRANCH  24  27
ATOM     27  C   UNL     1       4.163   2.785  17.507  0.00  0.00    +0.000 C 
ATOM     28  N   UNL     1       3.829   1.757  17.936  0.00  0.00    +0.000 NA
ENDBRANCH  24  27
ENDBRANCH  22  24
ENDBRANCH   4  20
BRANCH   3  29
ATOM     29  O   UNL     1       1.857   5.718  20.984  0.00  0.00    +0.000 OA
ATOM     30  C   UNL     1       1.219   4.510  20.587  0.00  0.00    +0.000 C 
ENDBRANCH   3  29
TORSDOF 6
ENDMDL
MODEL 6
REMARK VINA RESULT:      -6.8      4.993     10.605
REMARK  Name = 
REMARK  8 active torsions:
REMARK  status: ('A' for Active; 'I' for Inactive)
REMARK    1  A    between atoms: C_1  and  N_2
REMARK    2  A    between atoms: N_2  and  C_3
REMARK    3  A    between atoms: N_6  and  C_7
REMARK    4  A    between atoms: C_9  and  O_10
REMARK    5  A    between atoms: O_10  and  C_11
REMARK    6  A    between atoms: C_12  and  C_13
REMARK    7  A    between atoms: N_15  and  C_16
REMARK    8  A    between atoms: C_16  and  C_17
REMARK                            x       y       z     vdW  Elec       q    Type
REMARK                         _______ _______ _______ _____ _____    ______ ____
ROOT
ATOM      1  C   UNL     1       0.614  10.809  18.557  0.00  0.00    +0.000 A 
ATOM      2  C   UNL     1       1.088  11.643  19.581  0.00  0.00    +0.000 A 
ATOM      3  C   UNL     1       0.240  12.370  20.431  0.00  0.00    +0.000 A 
ATOM      4  C   UNL     1      -1.146  12.289  20.249  0.00  0.00    +0.000 A 
ATOM      5  C   UNL     1      -1.646  11.477  19.214  0.00  0.00    +0.000 A 
ATOM      6  C   UNL     1      -0.778  10.742  18.392  0.00  0.00    +0.000 A 
ATOM      7 CL   UNL     1      -1.479   9.694  17.205  0.00  0.00    +0.000 Cl
ENDROOT
BRANCH   1  11
ATOM      8  C   UNL     1       2.405   7.027  19.588  0.00  0.00    +0.000 A 
ATOM      9  N   UNL     1       1.839   8.207  19.286  0.00  0.00    +0.000 NA
ATOM     10  C   UNL     1       2.125   8.814  18.125  0.00  0.00    +0.000 A 
ATOM     11  N   UNL     1       1.484  10.007  17.797  0.00  0.00    +0.000 N 
ATOM     12  N   UNL     1       2.975   8.300  17.225  0.00  0.00    +0.000 NA
ATOM     13  C   UNL     1       3.571   7.134  17.560  0.00  0.00    +0.000 A 
ATOM     14  C   UNL     1       3.322   6.445  18.727  0.00  0.00    +0.000 A 
ATOM     15 CL   UNL     1       4.100   4.947  19.046  0.00  0.00    +0.000 Cl
ATOM     16  H   UNL     1       1.585  10.223  16.817  0.00  0.00    +0.000 HD
BRANCH   8  18
ATOM     17  C   UNL     1       1.402   5.134  20.705  0.00  0.00    +0.000 C 
ATOM     18  N   UNL     1       2.078   6.421  20.819  0.00  0.00    +0.000 N 
ATOM     19  H   UNL     1       2.907   6.376  21.405  0.00  0.00    +0.000 HD
ENDBRANCH   8  18
ENDBRANCH   1  11
BRANCH   4  20
ATOM     20  C   UNL     1      -2.116  12.883  21.206  0.00  0.00    +0.000 C 
ATOM     21  O   UNL     1      -3.268  13.114  20.862  0.00  0.00    +0.000 OA
ATOM     22  N   UNL     1      -1.646  13.179  22.475  0.00  0.00    +0.000 N 
ATOM     23  H   UNL     1      -0.743  12.831  22.779  0.00  0.00    +0.000 HD
BRANCH  22  24
ATOM     24  C   UNL     1      -2.546  13.681  23.490  0.00  0.00    +0.000 C 
ATOM     25  C   UNL     1      -2.968  15.140  23.440  0.00  0.00    +0.000 C 
ATOM     26  C   UNL     1      -2.031  14.686  24.508  0.00  0.00    +0.000 C 
BRANCH  24  27
ATOM     27  C   UNL     1      -3.521  12.717  23.971  0.00  0.00    +0.000 C 
ATOM     28  N   UNL     1      -4.335  11.971  24.339  0.00  0.00    +0.000 NA
ENDBRANCH  24  27
ENDBRANCH  22  24
ENDBRANCH   4  20
BRANCH   3  29
ATOM     29  O   UNL     1       0.918  12.977  21.453  0.00  0.00    +0.000 OA
ATOM     30  C   UNL     1       1.973  13.861  21.095  0.00  0.00    +0.000 C 
ENDBRANCH   3  29
TORSDOF 6
ENDMDL
MODEL 7
REMARK VINA RESULT:      -6.8      3.047      4.772
REMARK  Name = 
REMARK  8 active torsions:
REMARK  status: ('A' for Active; 'I' for Inactive)
REMARK    1  A    between atoms: C_1  and  N_2
REMARK    2  A    between atoms: N_2  and  C_3
REMARK    3  A    between atoms: N_6  and  C_7
REMARK    4  A    between atoms: C_9  and  O_10
REMARK    5  A    between atoms: O_10  and  C_11
REMARK    6  A    between atoms: C_12  and  C_13
REMARK    7  A    between atoms: N_15  and  C_16
REMARK    8  A    between atoms: C_16  and  C_17
REMARK                            x       y       z     vdW  Elec       q    Type
REMARK                         _______ _______ _______ _____ _____    ______ ____
ROOT
ATOM      1  C   UNL     1       1.228   9.024  19.568  0.00  0.00    +0.000 A 
ATOM      2  C   UNL     1       1.360   7.768  20.181  0.00  0.00    +0.000 A 
ATOM      3  C   UNL     1       2.197   6.757  19.685  0.00  0.00    +0.000 A 
ATOM      4  C   UNL     1       2.926   6.986  18.512  0.00  0.00    +0.000 A 
ATOM      5  C   UNL     1       2.795   8.228  17.865  0.00  0.00    +0.000 A 
ATOM      6  C   UNL     1       1.968   9.232  18.394  0.00  0.00    +0.000 A 
ATOM      7 CL   UNL     1       1.938  10.764  17.589  0.00  0.00    +0.000 Cl
ENDROOT
BRANCH   1  11
ATOM      8  C   UNL     1      -2.580  10.617  18.330  0.00  0.00    +0.000 A 
ATOM      9  N   UNL     1      -1.394  10.108  18.699  0.00  0.00    +0.000 NA
ATOM     10  C   UNL     1      -0.731  10.631  19.740  0.00  0.00    +0.000 A 
ATOM     11  N   UNL     1       0.470  10.055  20.151  0.00  0.00    +0.000 N 
ATOM     12  N   UNL     1      -1.194  11.668  20.453  0.00  0.00    +0.000 NA
ATOM     13  C   UNL     1      -2.369  12.198  20.045  0.00  0.00    +0.000 A 
ATOM     14  C   UNL     1      -3.113  11.712  18.992  0.00  0.00    +0.000 A 
ATOM     15 CL   UNL     1      -4.618  12.430  18.575  0.00  0.00    +0.000 Cl
ATOM     16  H   UNL     1       0.732  10.365  21.074  0.00  0.00    +0.000 HD
BRANCH   8  18
ATOM     17  C   UNL     1      -2.734  10.442  15.925  0.00  0.00    +0.000 C 
ATOM     18  N   UNL     1      -3.246  10.039  17.229  0.00  0.00    +0.000 N 
ATOM     19  H   UNL     1      -3.275   9.030  17.344  0.00  0.00    +0.000 HD
ENDBRANCH   8  18
ENDBRANCH   1  11
BRANCH   4  20
ATOM     20  C   UNL     1       3.961   6.042  18.015  0.00  0.00    +0.000 C 
ATOM     21  O   UNL     1       3.659   4.901  17.691  0.00  0.00    +0.000 OA
ATOM     22  N   UNL     1       5.265   6.509  17.965  0.00  0.00    +0.000 N 
ATOM     23  H   UNL     1       5.458   7.497  18.084  0.00  0.00    +0.000 HD
BRANCH  22  24
ATOM     24  C   UNL     1       6.317   5.682  17.416  0.00  0.00    +0.000 C 
ATOM     25  C   UNL     1       6.801   4.483  18.214  0.00  0.00    +0.000 C 
ATOM     26  C   UNL     1       7.683   5.679  18.083  0.00  0.00    +0.000 C 
BRANCH  24  27
ATOM     27  C   UNL     1       6.305   5.564  15.967  0.00  0.00    +0.000 C 
ATOM     28  N   UNL     1       6.321   5.430  14.812  0.00  0.00    +0.000 NA
ENDBRANCH  24  27
ENDBRANCH  22  24
ENDBRANCH   4  20
BRANCH   3  29
ATOM     29  O   UNL     1       2.289   5.689  20.536  0.00  0.00    +0.000 OA
ATOM     30  C   UNL     1       1.305   4.670  20.404  0.00  0.00    +0.000 C 
ENDBRANCH   3  29
TORSDOF 6
ENDMDL
MODEL 8
REMARK VINA RESULT:      -6.7      3.905      6.162
REMARK  Name = 
REMARK  8 active torsions:
REMARK  status: ('A' for Active; 'I' for Inactive)
REMARK    1  A    between atoms: C_1  and  N_2
REMARK    2  A    between atoms: N_2  and  C_3
REMARK    3  A    between atoms: N_6  and  C_7
REMARK    4  A    between atoms: C_9  and  O_10
REMARK    5  A    between atoms: O_10  and  C_11
REMARK    6  A    between atoms: C_12  and  C_13
REMARK    7  A    between atoms: N_15  and  C_16
REMARK    8  A    between atoms: C_16  and  C_17
REMARK                            x       y       z     vdW  Elec       q    Type
REMARK                         _______ _______ _______ _____ _____    ______ ____
ROOT
ATOM      1  C   UNL     1       1.060   9.782  18.888  0.00  0.00    +0.000 A 
ATOM      2  C   UNL     1       1.858   9.115  17.946  0.00  0.00    +0.000 A 
ATOM      3  C   UNL     1       2.470   7.878  18.200  0.00  0.00    +0.000 A 
ATOM      4  C   UNL     1       2.305   7.276  19.454  0.00  0.00    +0.000 A 
ATOM      5  C   UNL     1       1.526   7.936  20.423  0.00  0.00    +0.000 A 
ATOM      6  C   UNL     1       0.907   9.162  20.137  0.00  0.00    +0.000 A 
ATOM      7 CL   UNL     1      -0.111   9.859  21.352  0.00  0.00    +0.000 Cl
ENDROOT
BRANCH   1  11
ATOM      8  C   UNL     1       2.281  13.876  19.456  0.00  0.00    +0.000 A 
ATOM      9  N   UNL     1       1.918  12.594  19.289  0.00  0.00    +0.000 NA
ATOM     10  C   UNL     1       0.710  12.296  18.790  0.00  0.00    +0.000 A 
ATOM     11  N   UNL     1       0.368  10.963  18.564  0.00  0.00    +0.000 N 
ATOM     12  N   UNL     1      -0.187  13.231  18.445  0.00  0.00    +0.000 NA
ATOM     13  C   UNL     1       0.174  14.515  18.659  0.00  0.00    +0.000 A 
ATOM     14  C   UNL     1       1.399  14.902  19.157  0.00  0.00    +0.000 A 
ATOM     15 CL   UNL     1       1.782  16.566  19.354  0.00  0.00    +0.000 Cl
ATOM     16  H   UNL     1      -0.438  10.886  17.964  0.00  0.00    +0.000 HD
BRANCH   8  18
ATOM     17  C   UNL     1       3.623  14.205  21.438  0.00  0.00    +0.000 C 
ATOM     18  N   UNL     1       3.561  14.148  19.983  0.00  0.00    +0.000 N 
ATOM     19  H   UNL     1       4.234  13.498  19.588  0.00  0.00    +0.000 HD
ENDBRANCH   8  18
ENDBRANCH   1  11
BRANCH   4  20
ATOM     20  C   UNL     1       2.769   5.895  19.748  0.00  0.00    +0.000 C 
ATOM     21  O   UNL     1       3.963   5.651  19.862  0.00  0.00    +0.000 OA
ATOM     22  N   UNL     1       1.796   4.915  19.859  0.00  0.00    +0.000 N 
ATOM     23  H   UNL     1       0.817   5.172  19.921  0.00  0.00    +0.000 HD
BRANCH  22  24
ATOM     24  C   UNL     1       2.158   3.564  20.226  0.00  0.00    +0.000 C 
ATOM     25  C   UNL     1       1.184   2.742  21.054  0.00  0.00    +0.000 C 
ATOM     26  C   UNL     1       2.440   3.241  21.685  0.00  0.00    +0.000 C 
BRANCH  24  27
ATOM     27  C   UNL     1       2.963   2.860  19.242  0.00  0.00    +0.000 C 
ATOM     28  N   UNL     1       3.626   2.273  18.488  0.00  0.00    +0.000 NA
ENDBRANCH  24  27
ENDBRANCH  22  24
ENDBRANCH   4  20
BRANCH   3  29
ATOM     29  O   UNL     1       3.058   7.345  17.085  0.00  0.00    +0.000 OA
ATOM     30  C   UNL     1       4.479   7.280  17.071  0.00  0.00    +0.000 C 
ENDBRANCH   3  29
TORSDOF 6
ENDMDL
MODEL 9
REMARK VINA RESULT:      -6.7      4.527      6.381
REMARK  Name = 
REMARK  8 active torsions:
REMARK  status: ('A' for Active; 'I' for Inactive)
REMARK    1  A    between atoms: C_1  and  N_2
REMARK    2  A    between atoms: N_2  and  C_3
REMARK    3  A    between atoms: N_6  and  C_7
REMARK    4  A    between atoms: C_9  and  O_10
REMARK    5  A    between atoms: O_10  and  C_11
REMARK    6  A    between atoms: C_12  and  C_13
REMARK    7  A    between atoms: N_15  and  C_16
REMARK    8  A    between atoms: C_16  and  C_17
REMARK                            x       y       z     vdW  Elec       q    Type
REMARK                         _______ _______ _______ _____ _____    ______ ____
ROOT
ATOM      1  C   UNL     1       0.746   9.895  20.149  0.00  0.00    +0.000 A 
ATOM      2  C   UNL     1       1.347   9.416  18.975  0.00  0.00    +0.000 A 
ATOM      3  C   UNL     1       1.911   8.135  18.871  0.00  0.00    +0.000 A 
ATOM      4  C   UNL     1       1.902   7.290  19.988  0.00  0.00    +0.000 A 
ATOM      5  C   UNL     1       1.325   7.755  21.184  0.00  0.00    +0.000 A 
ATOM      6  C   UNL     1       0.748   9.033  21.256  0.00  0.00    +0.000 A 
ATOM      7 CL   UNL     1      -0.026   9.491  22.735  0.00  0.00    +0.000 Cl
ENDROOT
BRANCH   1  11
ATOM      8  C   UNL     1       2.040  13.690  18.567  0.00  0.00    +0.000 A 
ATOM      9  N   UNL     1       1.655  12.499  19.054  0.00  0.00    +0.000 NA
ATOM     10  C   UNL     1       0.509  12.391  19.740  0.00  0.00    +0.000 A 
ATOM     11  N   UNL     1       0.090  11.139  20.187  0.00  0.00    +0.000 N 
ATOM     12  N   UNL     1      -0.297  13.435  19.981  0.00  0.00    +0.000 NA
ATOM     13  C   UNL     1       0.123  14.635  19.523  0.00  0.00    +0.000 A 
ATOM     14  C   UNL     1       1.281  14.825  18.802  0.00  0.00    +0.000 A 
ATOM     15 CL   UNL     1       1.710  16.386  18.225  0.00  0.00    +0.000 Cl
ATOM     16  H   UNL     1      -0.882  11.148  20.454  0.00  0.00    +0.000 HD
BRANCH   8  18
ATOM     17  C   UNL     1       4.347  14.410  18.564  0.00  0.00    +0.000 C 
ATOM     18  N   UNL     1       3.253  13.762  17.850  0.00  0.00    +0.000 N 
ATOM     19  H   UNL     1       3.501  12.836  17.511  0.00  0.00    +0.000 HD
ENDBRANCH   8  18
ENDBRANCH   1  11
BRANCH   4  20
ATOM     20  C   UNL     1       2.317   5.864  19.918  0.00  0.00    +0.000 C 
ATOM     21  O   UNL     1       3.501   5.557  19.978  0.00  0.00    +0.000 OA
ATOM     22  N   UNL     1       1.312   4.924  19.758  0.00  0.00    +0.000 N 
ATOM     23  H   UNL     1       0.341   5.190  19.873  0.00  0.00    +0.000 HD
BRANCH  22  24
ATOM     24  C   UNL     1       1.625   3.512  19.764  0.00  0.00    +0.000 C 
ATOM     25  C   UNL     1       2.416   2.929  18.605  0.00  0.00    +0.000 C 
ATOM     26  C   UNL     1       0.967   2.601  18.739  0.00  0.00    +0.000 C 
BRANCH  24  27
ATOM     27  C   UNL     1       1.849   2.944  21.083  0.00  0.00    +0.000 C 
ATOM     28  N   UNL     1       1.990   2.464  22.133  0.00  0.00    +0.000 NA
ENDBRANCH  24  27
ENDBRANCH  22  24
ENDBRANCH   4  20
BRANCH   3  29
ATOM     29  O   UNL     1       2.286   7.829  17.591  0.00  0.00    +0.000 OA
ATOM     30  C   UNL     1       3.681   7.764  17.323  0.00  0.00    +0.000 C 
ENDBRANCH   3  29
TORSDOF 6
ENDMDL
