MODEL 1
REMARK VINA RESULT:      -7.4      0.000      0.000
REMARK  Name = 
REMARK  12 active torsions:
REMARK  status: ('A' for Active; 'I' for Inactive)
REMARK    1  A    between atoms: C_1  and  C_2
REMARK    2  A    between atoms: C_2  and  C_3
REMARK    3  A    between atoms: C_3  and  C_4
REMARK    4  A    between atoms: C_4  and  C_5
REMARK    5  A    between atoms: C_6  and  C_7
REMARK    6  A    between atoms: C_6  and  C_8
REMARK    7  A    between atoms: C_9  and  C_10
REMARK    8  A    between atoms: N_15  and  C_16
REMARK    9  A    between atoms: C_16  and  C_17
REMARK   10  A    between atoms: C_17  and  C_18
REMARK   11  A    between atoms: C_21  and  C_22
REMARK   12  A    between atoms: C_22  and  O_24
REMARK                            x       y       z     vdW  Elec       q    Type
REMARK                         _______ _______ _______ _____ _____    ______ ____
ROOT
ATOM      1  C   UNL     1       5.906   7.010  16.926  0.00  0.00    +0.000 C 
ATOM      2  C   UNL     1       7.152   7.623  17.560  0.00  0.00    +0.000 C 
ATOM      3  C   UNL     1       7.823   6.456  18.269  0.00  0.00    +0.000 C 
ATOM      4  C   UNL     1       7.436   5.290  17.398  0.00  0.00    +0.000 C 
ATOM      5  O   UNL     1       8.058   4.243  17.338  0.00  0.00    +0.000 OA
ATOM      6  N   UNL     1       6.257   5.616  16.735  0.00  0.00    +0.000 N 
ENDROOT
BRANCH   1   8
ATOM      7  C   UNL     1       3.538   7.635  17.515  0.00  0.00    +0.000 C 
ATOM      8  C   UNL     1       4.723   7.096  17.848  0.00  0.00    +0.000 C 
BRANCH   7  10
ATOM      9  C   UNL     1       2.389   7.141  19.594  0.00  0.00    +0.000 C 
ATOM     10  C   UNL     1       2.407   7.817  18.427  0.00  0.00    +0.000 C 
ATOM     11  C   UNL     1       1.281   8.715  17.976  0.00  0.00    +0.000 C 
BRANCH   9  12
ATOM     12  C   UNL     1       1.315   7.198  20.646  0.00  0.00    +0.000 C 
BRANCH  12  13
ATOM     13  C   UNL     1       1.393   8.485  21.470  0.00  0.00    +0.000 C 
BRANCH  13  15
ATOM     14  C   UNL     1      -0.121   9.535  23.195  0.00  0.00    +0.000 C 
ATOM     15  C   UNL     1      -0.004   9.033  21.765  0.00  0.00    +0.000 C 
ENDBRANCH  13  15
ENDBRANCH  12  13
ENDBRANCH   9  12
ENDBRANCH   7  10
ENDBRANCH   1   8
BRANCH   6  16
ATOM     16  C   UNL     1       5.641   4.830  15.669  0.00  0.00    +0.000 C 
BRANCH  16  17
ATOM     17  C   UNL     1       5.151   3.434  16.075  0.00  0.00    +0.000 C 
BRANCH  17  18
ATOM     18  C   UNL     1       4.261   3.472  17.298  0.00  0.00    +0.000 A 
ATOM     19  C   UNL     1       2.899   3.776  17.164  0.00  0.00    +0.000 A 
ATOM     20  C   UNL     1       2.065   3.803  18.282  0.00  0.00    +0.000 A 
ATOM     21  C   UNL     1       2.581   3.532  19.554  0.00  0.00    +0.000 A 
ATOM     22  C   UNL     1       3.938   3.210  19.694  0.00  0.00    +0.000 A 
ATOM     23  C   UNL     1       4.774   3.193  18.572  0.00  0.00    +0.000 A 
BRANCH  21  24
ATOM     24  C   UNL     1       1.640   3.557  20.703  0.00  0.00    +0.000 C 
ATOM     25  O   UNL     1       0.431   3.620  20.569  0.00  0.00    +0.000 OA
BRANCH  24  26
ATOM     26  O   UNL     1       2.243   3.557  21.913  0.00  0.00    +0.000 OA
ATOM     27  H   UNL     1       2.093   4.354  22.449  0.00  0.00    +0.000 HD
ENDBRANCH  24  26
ENDBRANCH  21  24
ENDBRANCH  17  18
ENDBRANCH  16  17
ENDBRANCH   6  16
TORSDOF 10
ENDMDL
MODEL 2
REMARK VINA RESULT:      -7.3      0.832      1.470
REMARK  Name = 
REMARK  12 active torsions:
REMARK  status: ('A' for Active; 'I' for Inactive)
REMARK    1  A    between atoms: C_1  and  C_2
REMARK    2  A    between atoms: C_2  and  C_3
REMARK    3  A    between atoms: C_3  and  C_4
REMARK    4  A    between atoms: C_4  and  C_5
REMARK    5  A    between atoms: C_6  and  C_7
REMARK    6  A    between atoms: C_6  and  C_8
REMARK    7  A    between atoms: C_9  and  C_10
REMARK    8  A    between atoms: N_15  and  C_16
REMARK    9  A    between atoms: C_16  and  C_17
REMARK   10  A    between atoms: C_17  and  C_18
REMARK   11  A    between atoms: C_21  and  C_22
REMARK   12  A    between atoms: C_22  and  O_24
REMARK                            x       y       z     vdW  Elec       q    Type
REMARK                         _______ _______ _______ _____ _____    ______ ____
ROOT
ATOM      1  C   UNL     1       6.194   6.598  16.494  0.00  0.00    +0.000 C 
ATOM      2  C   UNL     1       7.303   7.472  17.077  0.00  0.00    +0.000 C 
ATOM      3  C   UNL     1       7.729   6.741  18.341  0.00  0.00    +0.000 C 
ATOM      4  C   UNL     1       7.477   5.302  17.976  0.00  0.00    +0.000 C 
ATOM      5  O   UNL     1       8.034   4.354  18.504  0.00  0.00    +0.000 OA
ATOM      6  N   UNL     1       6.496   5.270  16.990  0.00  0.00    +0.000 N 
ENDROOT
BRANCH   1   8
ATOM      7  C   UNL     1       4.401   6.800  18.252  0.00  0.00    +0.000 C 
ATOM      8  C   UNL     1       4.844   7.016  17.001  0.00  0.00    +0.000 C 
BRANCH   7  10
ATOM      9  C   UNL     1       2.672   6.656  19.948  0.00  0.00    +0.000 C 
ATOM     10  C   UNL     1       3.056   7.111  18.737  0.00  0.00    +0.000 C 
ATOM     11  C   UNL     1       2.141   7.882  17.818  0.00  0.00    +0.000 C 
BRANCH   9  12
ATOM     12  C   UNL     1       1.335   6.871  20.604  0.00  0.00    +0.000 C 
BRANCH  12  13
ATOM     13  C   UNL     1       1.274   8.210  21.343  0.00  0.00    +0.000 C 
BRANCH  13  15
ATOM     14  C   UNL     1      -0.228   9.959  20.314  0.00  0.00    +0.000 C 
ATOM     15  C   UNL     1      -0.136   8.800  21.293  0.00  0.00    +0.000 C 
ENDBRANCH  13  15
ENDBRANCH  12  13
ENDBRANCH   9  12
ENDBRANCH   7  10
ENDBRANCH   1   8
BRANCH   6  16
ATOM     16  C   UNL     1       6.087   4.083  16.243  0.00  0.00    +0.000 C 
BRANCH  16  17
ATOM     17  C   UNL     1       4.575   3.910  16.052  0.00  0.00    +0.000 C 
BRANCH  17  18
ATOM     18  C   UNL     1       3.863   3.608  17.352  0.00  0.00    +0.000 A 
ATOM     19  C   UNL     1       4.604   3.265  18.492  0.00  0.00    +0.000 A 
ATOM     20  C   UNL     1       3.960   2.996  19.701  0.00  0.00    +0.000 A 
ATOM     21  C   UNL     1       2.565   3.061  19.787  0.00  0.00    +0.000 A 
ATOM     22  C   UNL     1       1.820   3.422  18.656  0.00  0.00    +0.000 A 
ATOM     23  C   UNL     1       2.467   3.681  17.443  0.00  0.00    +0.000 A 
BRANCH  21  24
ATOM     24  C   UNL     1       1.939   2.783  21.105  0.00  0.00    +0.000 C 
ATOM     25  O   UNL     1       2.584   2.505  22.100  0.00  0.00    +0.000 OA
BRANCH  24  26
ATOM     26  O   UNL     1       0.588   2.813  21.094  0.00  0.00    +0.000 OA
ATOM     27  H   UNL     1       0.178   3.240  21.865  0.00  0.00    +0.000 HD
ENDBRANCH  24  26
ENDBRANCH  21  24
ENDBRANCH  17  18
ENDBRANCH  16  17
ENDBRANCH   6  16
TORSDOF 10
ENDMDL
MODEL 3
REMARK VINA RESULT:      -7.2      0.890      1.368
REMARK  Name = 
REMARK  12 active torsions:
REMARK  status: ('A' for Active; 'I' for Inactive)
REMARK    1  A    between atoms: C_1  and  C_2
REMARK    2  A    between atoms: C_2  and  C_3
REMARK    3  A    between atoms: C_3  and  C_4
REMARK    4  A    between atoms: C_4  and  C_5
REMARK    5  A    between atoms: C_6  and  C_7
REMARK    6  A    between atoms: C_6  and  C_8
REMARK    7  A    between atoms: C_9  and  C_10
REMARK    8  A    between atoms: N_15  and  C_16
REMARK    9  A    between atoms: C_16  and  C_17
REMARK   10  A    between atoms: C_17  and  C_18
REMARK   11  A    between atoms: C_21  and  C_22
REMARK   12  A    between atoms: C_22  and  O_24
REMARK                            x       y       z     vdW  Elec       q    Type
REMARK                         _______ _______ _______ _____ _____    ______ ____
ROOT
ATOM      1  C   UNL     1       6.017   6.758  16.894  0.00  0.00    +0.000 C 
ATOM      2  C   UNL     1       7.199   7.564  17.429  0.00  0.00    +0.000 C 
ATOM      3  C   UNL     1       7.875   6.625  18.417  0.00  0.00    +0.000 C 
ATOM      4  C   UNL     1       7.587   5.273  17.819  0.00  0.00    +0.000 C 
ATOM      5  O   UNL     1       8.254   4.274  18.030  0.00  0.00    +0.000 OA
ATOM      6  N   UNL     1       6.435   5.378  17.045  0.00  0.00    +0.000 N 
ENDROOT
BRANCH   1   8
ATOM      7  C   UNL     1       3.713   7.691  17.300  0.00  0.00    +0.000 C 
ATOM      8  C   UNL     1       4.781   6.988  17.716  0.00  0.00    +0.000 C 
BRANCH   7  10
ATOM      9  C   UNL     1       1.758   9.049  17.767  0.00  0.00    +0.000 C 
ATOM     10  C   UNL     1       2.542   8.009  18.119  0.00  0.00    +0.000 C 
ATOM     11  C   UNL     1       2.309   7.184  19.359  0.00  0.00    +0.000 C 
BRANCH   9  12
ATOM     12  C   UNL     1       0.524   9.525  18.485  0.00  0.00    +0.000 C 
BRANCH  12  13
ATOM     13  C   UNL     1       0.830  10.686  19.434  0.00  0.00    +0.000 C 
BRANCH  13  15
ATOM     14  C   UNL     1      -0.199   9.277  21.257  0.00  0.00    +0.000 C 
ATOM     15  C   UNL     1       0.949  10.198  20.878  0.00  0.00    +0.000 C 
ENDBRANCH  13  15
ENDBRANCH  12  13
ENDBRANCH   9  12
ENDBRANCH   7  10
ENDBRANCH   1   8
BRANCH   6  16
ATOM     16  C   UNL     1       5.915   4.338  16.160  0.00  0.00    +0.000 C 
BRANCH  16  17
ATOM     17  C   UNL     1       4.386   4.229  16.096  0.00  0.00    +0.000 C 
BRANCH  17  18
ATOM     18  C   UNL     1       3.782   3.842  17.428  0.00  0.00    +0.000 A 
ATOM     19  C   UNL     1       2.401   3.969  17.634  0.00  0.00    +0.000 A 
ATOM     20  C   UNL     1       1.830   3.605  18.854  0.00  0.00    +0.000 A 
ATOM     21  C   UNL     1       2.632   3.112  19.889  0.00  0.00    +0.000 A 
ATOM     22  C   UNL     1       4.010   2.965  19.684  0.00  0.00    +0.000 A 
ATOM     23  C   UNL     1       4.581   3.341  18.463  0.00  0.00    +0.000 A 
BRANCH  21  24
ATOM     24  C   UNL     1       1.963   2.723  21.157  0.00  0.00    +0.000 C 
ATOM     25  O   UNL     1       0.757   2.774  21.314  0.00  0.00    +0.000 OA
BRANCH  24  26
ATOM     26  O   UNL     1       2.814   2.356  22.141  0.00  0.00    +0.000 OA
ATOM     27  H   UNL     1       3.420   1.630  21.915  0.00  0.00    +0.000 HD
ENDBRANCH  24  26
ENDBRANCH  21  24
ENDBRANCH  17  18
ENDBRANCH  16  17
ENDBRANCH   6  16
TORSDOF 10
ENDMDL
MODEL 4
REMARK VINA RESULT:      -7.1      2.288      5.512
REMARK  Name = 
REMARK  12 active torsions:
REMARK  status: ('A' for Active; 'I' for Inactive)
REMARK    1  A    between atoms: C_1  and  C_2
REMARK    2  A    between atoms: C_2  and  C_3
REMARK    3  A    between atoms: C_3  and  C_4
REMARK    4  A    between atoms: C_4  and  C_5
REMARK    5  A    between atoms: C_6  and  C_7
REMARK    6  A    between atoms: C_6  and  C_8
REMARK    7  A    between atoms: C_9  and  C_10
REMARK    8  A    between atoms: N_15  and  C_16
REMARK    9  A    between atoms: C_16  and  C_17
REMARK   10  A    between atoms: C_17  and  C_18
REMARK   11  A    between atoms: C_21  and  C_22
REMARK   12  A    between atoms: C_22  and  O_24
REMARK                            x       y       z     vdW  Elec       q    Type
REMARK                         _______ _______ _______ _____ _____    ______ ____
ROOT
ATOM      1  C   UNL     1       2.029   3.891  20.343  0.00  0.00    +0.000 C 
ATOM      2  C   UNL     1       0.760   3.056  20.186  0.00  0.00    +0.000 C 
ATOM      3  C   UNL     1       0.865   2.479  18.782  0.00  0.00    +0.000 C 
ATOM      4  C   UNL     1       2.355   2.345  18.603  0.00  0.00    +0.000 C 
ATOM      5  O   UNL     1       2.885   1.573  17.823  0.00  0.00    +0.000 OA
ATOM      6  N   UNL     1       2.976   3.267  19.441  0.00  0.00    +0.000 N 
ENDROOT
BRANCH   1   8
ATOM      7  C   UNL     1       1.990   6.384  20.705  0.00  0.00    +0.000 C 
ATOM      8  C   UNL     1       1.805   5.313  19.914  0.00  0.00    +0.000 C 
BRANCH   7  10
ATOM      9  C   UNL     1       1.901   8.173  19.068  0.00  0.00    +0.000 C 
ATOM     10  C   UNL     1       1.685   7.768  20.337  0.00  0.00    +0.000 C 
ATOM     11  C   UNL     1       1.199   8.691  21.427  0.00  0.00    +0.000 C 
BRANCH   9  12
ATOM     12  C   UNL     1       1.653   9.549  18.513  0.00  0.00    +0.000 C 
BRANCH  12  13
ATOM     13  C   UNL     1       0.311   9.634  17.782  0.00  0.00    +0.000 C 
BRANCH  13  15
ATOM     14  C   UNL     1      -2.064  10.474  17.941  0.00  0.00    +0.000 C 
ATOM     15  C   UNL     1      -0.781  10.182  18.702  0.00  0.00    +0.000 C 
ENDBRANCH  13  15
ENDBRANCH  12  13
ENDBRANCH   9  12
ENDBRANCH   7  10
ENDBRANCH   1   8
BRANCH   6  16
ATOM     16  C   UNL     1       4.413   3.343  19.696  0.00  0.00    +0.000 C 
BRANCH  16  17
ATOM     17  C   UNL     1       5.089   4.656  19.284  0.00  0.00    +0.000 C 
BRANCH  17  18
ATOM     18  C   UNL     1       5.609   4.613  17.864  0.00  0.00    +0.000 A 
ATOM     19  C   UNL     1       4.714   4.465  16.795  0.00  0.00    +0.000 A 
ATOM     20  C   UNL     1       5.179   4.435  15.479  0.00  0.00    +0.000 A 
ATOM     21  C   UNL     1       6.548   4.549  15.213  0.00  0.00    +0.000 A 
ATOM     22  C   UNL     1       7.446   4.716  16.275  0.00  0.00    +0.000 A 
ATOM     23  C   UNL     1       6.978   4.735  17.593  0.00  0.00    +0.000 A 
BRANCH  21  24
ATOM     24  C   UNL     1       6.980   4.530  13.791  0.00  0.00    +0.000 C 
ATOM     25  O   UNL     1       7.687   5.393  13.302  0.00  0.00    +0.000 OA
BRANCH  24  26
ATOM     26  O   UNL     1       6.479   3.501  13.073  0.00  0.00    +0.000 OA
ATOM     27  H   UNL     1       5.573   3.630  12.743  0.00  0.00    +0.000 HD
ENDBRANCH  24  26
ENDBRANCH  21  24
ENDBRANCH  17  18
ENDBRANCH  16  17
ENDBRANCH   6  16
TORSDOF 10
ENDMDL
MODEL 5
REMARK VINA RESULT:      -7.0      2.128      4.751
REMARK  Name = 
REMARK  12 active torsions:
REMARK  status: ('A' for Active; 'I' for Inactive)
REMARK    1  A    between atoms: C_1  and  C_2
REMARK    2  A    between atoms: C_2  and  C_3
REMARK    3  A    between atoms: C_3  and  C_4
REMARK    4  A    between atoms: C_4  and  C_5
REMARK    5  A    between atoms: C_6  and  C_7
REMARK    6  A    between atoms: C_6  and  C_8
REMARK    7  A    between atoms: C_9  and  C_10
REMARK    8  A    between atoms: N_15  and  C_16
REMARK    9  A    between atoms: C_16  and  C_17
REMARK   10  A    between atoms: C_17  and  C_18
REMARK   11  A    between atoms: C_21  and  C_22
REMARK   12  A    between atoms: C_22  and  O_24
REMARK                            x       y       z     vdW  Elec       q    Type
REMARK                         _______ _______ _______ _____ _____    ______ ____
ROOT
ATOM      1  C   UNL     1       6.281   5.273  18.300  0.00  0.00    +0.000 C 
ATOM      2  C   UNL     1       7.561   4.557  17.874  0.00  0.00    +0.000 C 
ATOM      3  C   UNL     1       7.396   4.357  16.375  0.00  0.00    +0.000 C 
ATOM      4  C   UNL     1       6.568   5.554  15.984  0.00  0.00    +0.000 C 
ATOM      5  O   UNL     1       6.532   6.025  14.860  0.00  0.00    +0.000 OA
ATOM      6  N   UNL     1       5.852   5.969  17.103  0.00  0.00    +0.000 N 
ENDROOT
BRANCH   1   8
ATOM      7  C   UNL     1       4.395   3.665  17.850  0.00  0.00    +0.000 C 
ATOM      8  C   UNL     1       5.216   4.296  18.707  0.00  0.00    +0.000 C 
BRANCH   7  10
ATOM      9  C   UNL     1       2.039   3.290  18.290  0.00  0.00    +0.000 C 
ATOM     10  C   UNL     1       3.289   2.785  18.232  0.00  0.00    +0.000 C 
ATOM     11  C   UNL     1       3.623   1.362  18.604  0.00  0.00    +0.000 C 
BRANCH   9  12
ATOM     12  C   UNL     1       0.789   2.542  18.666  0.00  0.00    +0.000 C 
BRANCH  12  13
ATOM     13  C   UNL     1       0.451   2.709  20.149  0.00  0.00    +0.000 C 
BRANCH  13  15
ATOM     14  C   UNL     1       2.247   3.355  21.801  0.00  0.00    +0.000 C 
ATOM     15  C   UNL     1       1.251   3.856  20.768  0.00  0.00    +0.000 C 
ENDBRANCH  13  15
ENDBRANCH  12  13
ENDBRANCH   9  12
ENDBRANCH   7  10
ENDBRANCH   1   8
BRANCH   6  16
ATOM     16  C   UNL     1       5.065   7.197  17.193  0.00  0.00    +0.000 C 
BRANCH  16  17
ATOM     17  C   UNL     1       3.552   7.027  17.001  0.00  0.00    +0.000 C 
BRANCH  17  18
ATOM     18  C   UNL     1       2.760   7.583  18.164  0.00  0.00    +0.000 A 
ATOM     19  C   UNL     1       2.103   8.816  18.038  0.00  0.00    +0.000 A 
ATOM     20  C   UNL     1       1.360   9.334  19.099  0.00  0.00    +0.000 A 
ATOM     21  C   UNL     1       1.266   8.630  20.305  0.00  0.00    +0.000 A 
ATOM     22  C   UNL     1       1.904   7.389  20.431  0.00  0.00    +0.000 A 
ATOM     23  C   UNL     1       2.657   6.877  19.369  0.00  0.00    +0.000 A 
BRANCH  21  24
ATOM     24  C   UNL     1       0.444   9.224  21.391  0.00  0.00    +0.000 C 
ATOM     25  O   UNL     1      -0.530   8.667  21.866  0.00  0.00    +0.000 OA
BRANCH  24  26
ATOM     26  O   UNL     1       0.837  10.459  21.771  0.00  0.00    +0.000 OA
ATOM     27  H   UNL     1       0.247  11.183  21.501  0.00  0.00    +0.000 HD
ENDBRANCH  24  26
ENDBRANCH  21  24
ENDBRANCH  17  18
ENDBRANCH  16  17
ENDBRANCH   6  16
TORSDOF 10
ENDMDL
MODEL 6
REMARK VINA RESULT:      -7.0      1.345      1.993
REMARK  Name = 
REMARK  12 active torsions:
REMARK  status: ('A' for Active; 'I' for Inactive)
REMARK    1  A    between atoms: C_1  and  C_2
REMARK    2  A    between atoms: C_2  and  C_3
REMARK    3  A    between atoms: C_3  and  C_4
REMARK    4  A    between atoms: C_4  and  C_5
REMARK    5  A    between atoms: C_6  and  C_7
REMARK    6  A    between atoms: C_6  and  C_8
REMARK    7  A    between atoms: C_9  and  C_10
REMARK    8  A    between atoms: N_15  and  C_16
REMARK    9  A    between atoms: C_16  and  C_17
REMARK   10  A    between atoms: C_17  and  C_18
REMARK   11  A    between atoms: C_21  and  C_22
REMARK   12  A    between atoms: C_22  and  O_24
REMARK                            x       y       z     vdW  Elec       q    Type
REMARK                         _______ _______ _______ _____ _____    ______ ____
ROOT
ATOM      1  C   UNL     1       5.996   6.664  16.872  0.00  0.00    +0.000 C 
ATOM      2  C   UNL     1       7.224   7.443  17.339  0.00  0.00    +0.000 C 
ATOM      3  C   UNL     1       7.953   6.476  18.259  0.00  0.00    +0.000 C 
ATOM      4  C   UNL     1       7.604   5.140  17.656  0.00  0.00    +0.000 C 
ATOM      5  O   UNL     1       8.269   4.128  17.801  0.00  0.00    +0.000 OA
ATOM      6  N   UNL     1       6.403   5.276  16.966  0.00  0.00    +0.000 N 
ENDROOT
BRANCH   1   8
ATOM      7  C   UNL     1       3.703   7.548  17.427  0.00  0.00    +0.000 C 
ATOM      8  C   UNL     1       4.823   6.894  17.782  0.00  0.00    +0.000 C 
BRANCH   7  10
ATOM      9  C   UNL     1       1.863   8.980  18.098  0.00  0.00    +0.000 C 
ATOM     10  C   UNL     1       2.592   7.867  18.325  0.00  0.00    +0.000 C 
ATOM     11  C   UNL     1       2.359   6.955  19.504  0.00  0.00    +0.000 C 
BRANCH   9  12
ATOM     12  C   UNL     1       0.696   9.468  18.912  0.00  0.00    +0.000 C 
BRANCH  12  13
ATOM     13  C   UNL     1       0.037  10.697  18.282  0.00  0.00    +0.000 C 
BRANCH  13  15
ATOM     14  C   UNL     1      -2.081   9.839  17.211  0.00  0.00    +0.000 C 
ATOM     15  C   UNL     1      -1.487  10.612  18.376  0.00  0.00    +0.000 C 
ENDBRANCH  13  15
ENDBRANCH  12  13
ENDBRANCH   9  12
ENDBRANCH   7  10
ENDBRANCH   1   8
BRANCH   6  16
ATOM     16  C   UNL     1       5.807   4.262  16.099  0.00  0.00    +0.000 C 
BRANCH  16  17
ATOM     17  C   UNL     1       4.274   4.234  16.072  0.00  0.00    +0.000 C 
BRANCH  17  18
ATOM     18  C   UNL     1       3.684   3.841  17.409  0.00  0.00    +0.000 A 
ATOM     19  C   UNL     1       2.295   3.713  17.551  0.00  0.00    +0.000 A 
ATOM     20  C   UNL     1       1.739   3.340  18.776  0.00  0.00    +0.000 A 
ATOM     21  C   UNL     1       2.563   3.093  19.879  0.00  0.00    +0.000 A 
ATOM     22  C   UNL     1       3.953   3.200  19.739  0.00  0.00    +0.000 A 
ATOM     23  C   UNL     1       4.507   3.585  18.513  0.00  0.00    +0.000 A 
BRANCH  21  24
ATOM     24  C   UNL     1       1.914   2.680  21.150  0.00  0.00    +0.000 C 
ATOM     25  O   UNL     1       0.710   2.728  21.325  0.00  0.00    +0.000 OA
BRANCH  24  26
ATOM     26  O   UNL     1       2.779   2.296  22.114  0.00  0.00    +0.000 OA
ATOM     27  H   UNL     1       2.898   2.932  22.840  0.00  0.00    +0.000 HD
ENDBRANCH  24  26
ENDBRANCH  21  24
ENDBRANCH  17  18
ENDBRANCH  16  17
ENDBRANCH   6  16
TORSDOF 10
ENDMDL
MODEL 7
REMARK VINA RESULT:      -7.0      2.188      5.254
REMARK  Name = 
REMARK  12 active torsions:
REMARK  status: ('A' for Active; 'I' for Inactive)
REMARK    1  A    between atoms: C_1  and  C_2
REMARK    2  A    between atoms: C_2  and  C_3
REMARK    3  A    between atoms: C_3  and  C_4
REMARK    4  A    between atoms: C_4  and  C_5
REMARK    5  A    between atoms: C_6  and  C_7
REMARK    6  A    between atoms: C_6  and  C_8
REMARK    7  A    between atoms: C_9  and  C_10
REMARK    8  A    between atoms: N_15  and  C_16
REMARK    9  A    between atoms: C_16  and  C_17
REMARK   10  A    between atoms: C_17  and  C_18
REMARK   11  A    between atoms: C_21  and  C_22
REMARK   12  A    between atoms: C_22  and  O_24
REMARK                            x       y       z     vdW  Elec       q    Type
REMARK                         _______ _______ _______ _____ _____    ______ ____
ROOT
ATOM      1  C   UNL     1       2.366   3.953  20.574  0.00  0.00    +0.000 C 
ATOM      2  C   UNL     1       1.025   3.227  20.506  0.00  0.00    +0.000 C 
ATOM      3  C   UNL     1       0.914   2.781  19.056  0.00  0.00    +0.000 C 
ATOM      4  C   UNL     1       2.356   2.563  18.680  0.00  0.00    +0.000 C 
ATOM      5  O   UNL     1       2.725   1.834  17.774  0.00  0.00    +0.000 OA
ATOM      6  N   UNL     1       3.145   3.355  19.508  0.00  0.00    +0.000 N 
ENDROOT
BRANCH   1   8
ATOM      7  C   UNL     1       2.343   5.988  19.090  0.00  0.00    +0.000 C 
ATOM      8  C   UNL     1       2.208   5.421  20.301  0.00  0.00    +0.000 C 
BRANCH   7  10
ATOM      9  C   UNL     1       1.452   8.199  19.542  0.00  0.00    +0.000 C 
ATOM     10  C   UNL     1       2.289   7.426  18.819  0.00  0.00    +0.000 C 
ATOM     11  C   UNL     1       3.138   7.959  17.693  0.00  0.00    +0.000 C 
BRANCH   9  12
ATOM     12  C   UNL     1       1.260   9.685  19.401  0.00  0.00    +0.000 C 
BRANCH  12  13
ATOM     13  C   UNL     1       0.949  10.347  20.746  0.00  0.00    +0.000 C 
BRANCH  13  15
ATOM     14  C   UNL     1      -0.014   9.359  22.860  0.00  0.00    +0.000 C 
ATOM     15  C   UNL     1      -0.274   9.707  21.403  0.00  0.00    +0.000 C 
ENDBRANCH  13  15
ENDBRANCH  12  13
ENDBRANCH   9  12
ENDBRANCH   7  10
ENDBRANCH   1   8
BRANCH   6  16
ATOM     16  C   UNL     1       4.604   3.306  19.585  0.00  0.00    +0.000 C 
BRANCH  16  17
ATOM     17  C   UNL     1       5.329   4.604  19.211  0.00  0.00    +0.000 C 
BRANCH  17  18
ATOM     18  C   UNL     1       5.789   4.610  17.770  0.00  0.00    +0.000 A 
ATOM     19  C   UNL     1       4.849   4.511  16.735  0.00  0.00    +0.000 A 
ATOM     20  C   UNL     1       5.259   4.527  15.401  0.00  0.00    +0.000 A 
ATOM     21  C   UNL     1       6.616   4.636  15.081  0.00  0.00    +0.000 A 
ATOM     22  C   UNL     1       7.560   4.755  16.110  0.00  0.00    +0.000 A 
ATOM     23  C   UNL     1       7.147   4.728  17.447  0.00  0.00    +0.000 A 
BRANCH  21  24
ATOM     24  C   UNL     1       6.989   4.668  13.643  0.00  0.00    +0.000 C 
ATOM     25  O   UNL     1       7.771   5.477  13.178  0.00  0.00    +0.000 OA
BRANCH  24  26
ATOM     26  O   UNL     1       6.345   3.753  12.885  0.00  0.00    +0.000 OA
ATOM     27  H   UNL     1       6.359   3.926  11.928  0.00  0.00    +0.000 HD
ENDBRANCH  24  26
ENDBRANCH  21  24
ENDBRANCH  17  18
ENDBRANCH  16  17
ENDBRANCH   6  16
TORSDOF 10
ENDMDL
MODEL 8
REMARK VINA RESULT:      -6.9      1.106      1.979
REMARK  Name = 
REMARK  12 active torsions:
REMARK  status: ('A' for Active; 'I' for Inactive)
REMARK    1  A    between atoms: C_1  and  C_2
REMARK    2  A    between atoms: C_2  and  C_3
REMARK    3  A    between atoms: C_3  and  C_4
REMARK    4  A    between atoms: C_4  and  C_5
REMARK    5  A    between atoms: C_6  and  C_7
REMARK    6  A    between atoms: C_6  and  C_8
REMARK    7  A    between atoms: C_9  and  C_10
REMARK    8  A    between atoms: N_15  and  C_16
REMARK    9  A    between atoms: C_16  and  C_17
REMARK   10  A    between atoms: C_17  and  C_18
REMARK   11  A    between atoms: C_21  and  C_22
REMARK   12  A    between atoms: C_22  and  O_24
REMARK                            x       y       z     vdW  Elec       q    Type
REMARK                         _______ _______ _______ _____ _____    ______ ____
ROOT
ATOM      1  C   UNL     1       5.864   6.920  16.782  0.00  0.00    +0.000 C 
ATOM      2  C   UNL     1       7.068   7.579  17.453  0.00  0.00    +0.000 C 
ATOM      3  C   UNL     1       7.724   6.450  18.234  0.00  0.00    +0.000 C 
ATOM      4  C   UNL     1       7.400   5.247  17.387  0.00  0.00    +0.000 C 
ATOM      5  O   UNL     1       8.042   4.210  17.395  0.00  0.00    +0.000 OA
ATOM      6  N   UNL     1       6.248   5.528  16.658  0.00  0.00    +0.000 N 
ENDROOT
BRANCH   1   8
ATOM      7  C   UNL     1       3.621   7.869  17.426  0.00  0.00    +0.000 C 
ATOM      8  C   UNL     1       4.637   7.016  17.643  0.00  0.00    +0.000 C 
BRANCH   7  10
ATOM      9  C   UNL     1       1.552   8.994  18.008  0.00  0.00    +0.000 C 
ATOM     10  C   UNL     1       2.464   8.046  18.306  0.00  0.00    +0.000 C 
ATOM     11  C   UNL     1       2.389   7.188  19.544  0.00  0.00    +0.000 C 
BRANCH   9  12
ATOM     12  C   UNL     1       0.311   9.320  18.793  0.00  0.00    +0.000 C 
BRANCH  12  13
ATOM     13  C   UNL     1      -0.652  10.203  17.994  0.00  0.00    +0.000 C 
BRANCH  13  15
ATOM     14  C   UNL     1      -0.675  11.268  20.283  0.00  0.00    +0.000 C 
ATOM     15  C   UNL     1      -1.184  11.350  18.853  0.00  0.00    +0.000 C 
ENDBRANCH  13  15
ENDBRANCH  12  13
ENDBRANCH   9  12
ENDBRANCH   7  10
ENDBRANCH   1   8
BRANCH   6  16
ATOM     16  C   UNL     1       5.699   4.693  15.592  0.00  0.00    +0.000 C 
BRANCH  16  17
ATOM     17  C   UNL     1       5.187   3.315  16.029  0.00  0.00    +0.000 C 
BRANCH  17  18
ATOM     18  C   UNL     1       4.187   3.407  17.161  0.00  0.00    +0.000 A 
ATOM     19  C   UNL     1       4.581   3.096  18.470  0.00  0.00    +0.000 A 
ATOM     20  C   UNL     1       3.672   3.188  19.525  0.00  0.00    +0.000 A 
ATOM     21  C   UNL     1       2.353   3.588  19.286  0.00  0.00    +0.000 A 
ATOM     22  C   UNL     1       1.957   3.918  17.984  0.00  0.00    +0.000 A 
ATOM     23  C   UNL     1       2.868   3.815  16.927  0.00  0.00    +0.000 A 
BRANCH  21  24
ATOM     24  C   UNL     1       1.437   3.686  20.453  0.00  0.00    +0.000 C 
ATOM     25  O   UNL     1       1.743   4.244  21.490  0.00  0.00    +0.000 OA
BRANCH  24  26
ATOM     26  O   UNL     1       0.254   3.055  20.282  0.00  0.00    +0.000 OA
ATOM     27  H   UNL     1       0.267   2.315  19.652  0.00  0.00    +0.000 HD
ENDBRANCH  24  26
ENDBRANCH  21  24
ENDBRANCH  17  18
ENDBRANCH  16  17
ENDBRANCH   6  16
TORSDOF 10
ENDMDL
MODEL 9
REMARK VINA RESULT:      -6.9      2.378      5.426
REMARK  Name = 
REMARK  12 active torsions:
REMARK  status: ('A' for Active; 'I' for Inactive)
REMARK    1  A    between atoms: C_1  and  C_2
REMARK    2  A    between atoms: C_2  and  C_3
REMARK    3  A    between atoms: C_3  and  C_4
REMARK    4  A    between atoms: C_4  and  C_5
REMARK    5  A    between atoms: C_6  and  C_7
REMARK    6  A    between atoms: C_6  and  C_8
REMARK    7  A    between atoms: C_9  and  C_10
REMARK    8  A    between atoms: N_15  and  C_16
REMARK    9  A    between atoms: C_16  and  C_17
REMARK   10  A    between atoms: C_17  and  C_18
REMARK   11  A    between atoms: C_21  and  C_22
REMARK   12  A    between atoms: C_22  and  O_24
REMARK                            x       y       z     vdW  Elec       q    Type
REMARK                         _______ _______ _______ _____ _____    ______ ____
ROOT
ATOM      1  C   UNL     1       2.294   4.797  20.142  0.00  0.00    +0.000 C 
ATOM      2  C   UNL     1       2.218   3.859  21.345  0.00  0.00    +0.000 C 
ATOM      3  C   UNL     1       1.005   2.985  21.061  0.00  0.00    +0.000 C 
ATOM      4  C   UNL     1       1.005   2.922  19.555  0.00  0.00    +0.000 C 
ATOM      5  O   UNL     1       0.481   2.031  18.907  0.00  0.00    +0.000 OA
ATOM      6  N   UNL     1       1.656   4.053  19.074  0.00  0.00    +0.000 N 
ENDROOT
BRANCH   1   8
ATOM      7  C   UNL     1       2.036   7.300  20.267  0.00  0.00    +0.000 C 
ATOM      8  C   UNL     1       1.523   6.063  20.385  0.00  0.00    +0.000 C 
BRANCH   7  10
ATOM      9  C   UNL     1       0.793   9.272  19.595  0.00  0.00    +0.000 C 
ATOM     10  C   UNL     1       1.331   8.541  20.593  0.00  0.00    +0.000 C 
ATOM     11  C   UNL     1       1.299   8.969  22.039  0.00  0.00    +0.000 C 
BRANCH   9  12
ATOM     12  C   UNL     1       0.043  10.569  19.738  0.00  0.00    +0.000 C 
BRANCH  12  13
ATOM     13  C   UNL     1      -1.077  10.695  18.702  0.00  0.00    +0.000 C 
BRANCH  13  15
ATOM     14  C   UNL     1      -0.476  13.116  19.087  0.00  0.00    +0.000 C 
ATOM     15  C   UNL     1      -1.518  12.151  18.547  0.00  0.00    +0.000 C 
ENDBRANCH  13  15
ENDBRANCH  12  13
ENDBRANCH   9  12
ENDBRANCH   7  10
ENDBRANCH   1   8
BRANCH   6  16
ATOM     16  C   UNL     1       2.021   4.287  17.678  0.00  0.00    +0.000 C 
BRANCH  16  17
ATOM     17  C   UNL     1       3.373   3.708  17.242  0.00  0.00    +0.000 C 
BRANCH  17  18
ATOM     18  C   UNL     1       4.504   4.697  17.417  0.00  0.00    +0.000 A 
ATOM     19  C   UNL     1       5.407   4.548  18.480  0.00  0.00    +0.000 A 
ATOM     20  C   UNL     1       6.461   5.446  18.646  0.00  0.00    +0.000 A 
ATOM     21  C   UNL     1       6.627   6.511  17.755  0.00  0.00    +0.000 A 
ATOM     22  C   UNL     1       5.741   6.656  16.679  0.00  0.00    +0.000 A 
ATOM     23  C   UNL     1       4.678   5.759  16.521  0.00  0.00    +0.000 A 
BRANCH  21  24
ATOM     24  C   UNL     1       7.780   7.423  17.972  0.00  0.00    +0.000 C 
ATOM     25  O   UNL     1       8.018   8.375  17.251  0.00  0.00    +0.000 OA
BRANCH  24  26
ATOM     26  O   UNL     1       8.574   7.075  19.009  0.00  0.00    +0.000 OA
ATOM     27  H   UNL     1       8.242   6.343  19.556  0.00  0.00    +0.000 HD
ENDBRANCH  24  26
ENDBRANCH  21  24
ENDBRANCH  17  18
ENDBRANCH  16  17
ENDBRANCH   6  16
TORSDOF 10
ENDMDL
