MODEL 1
REMARK VINA RESULT:      -9.1      0.000      0.000
REMARK  Name = 
REMARK  6 active torsions:
REMARK  status: ('A' for Active; 'I' for Inactive)
REMARK    1  A    between atoms: C_1  and  C_2
REMARK    2  A    between atoms: C_2  and  N_3
REMARK    3  A    between atoms: C_2  and  C_24
REMARK    4  A    between atoms: C_12  and  O_13
REMARK    5  A    between atoms: O_13  and  C_14
REMARK    6  A    between atoms: C_14  and  C_15
REMARK                            x       y       z     vdW  Elec       q    Type
REMARK                         _______ _______ _______ _____ _____    ______ ____
ROOT
ATOM      1  N   UNL     1       9.439   9.638  18.959  0.00  0.00    +0.000 N 
ATOM      2  C   UNL     1       8.407   8.889  18.446  0.00  0.00    +0.000 C 
ATOM      3  O   UNL     1       7.524   9.376  17.740  0.00  0.00    +0.000 OA
ATOM      4  N   UNL     1       8.507   7.556  18.767  0.00  0.00    +0.000 N 
ATOM      5  C   UNL     1       7.496   6.682  18.337  0.00  0.00    +0.000 A 
ATOM      6  C   UNL     1       7.311   6.498  16.969  0.00  0.00    +0.000 A 
ATOM      7  C   UNL     1       6.419   5.481  16.627  0.00  0.00    +0.000 A 
ATOM      8  N   UNL     1       6.064   4.959  15.420  0.00  0.00    +0.000 N 
ATOM      9  N   UNL     1       5.183   3.945  15.508  0.00  0.00    +0.000 NA
ATOM     10  C   UNL     1       4.964   3.825  16.801  0.00  0.00    +0.000 A 
ATOM     11  C   UNL     1       5.717   4.746  17.586  0.00  0.00    +0.000 A 
ATOM     12  C   UNL     1       5.911   5.063  18.926  0.00  0.00    +0.000 A 
ATOM     13  N   UNL     1       6.834   5.998  19.295  0.00  0.00    +0.000 NA
ATOM     14  H   UNL     1       9.919   9.265  19.762  0.00  0.00    +0.000 HD
ATOM     15  H   UNL     1       8.929   7.333  19.652  0.00  0.00    +0.000 HD
ATOM     16  H   UNL     1       6.392   5.211  14.500  0.00  0.00    +0.000 HD
ENDROOT
BRANCH   1  18
ATOM     17  C   UNL     1      10.736  11.447  17.890  0.00  0.00    +0.000 C 
ATOM     18  C   UNL     1       9.487  11.075  18.704  0.00  0.00    +0.000 C 
BRANCH  18  19
ATOM     19  C   UNL     1       9.433  11.885  19.990  0.00  0.00    +0.000 A 
ATOM     20  C   UNL     1       8.998  11.327  21.207  0.00  0.00    +0.000 A 
ATOM     21  C   UNL     1       8.931  12.112  22.365  0.00  0.00    +0.000 A 
ATOM     22  C   UNL     1       9.318  13.449  22.331  0.00  0.00    +0.000 A 
ATOM     23  C   UNL     1       9.769  14.007  21.138  0.00  0.00    +0.000 A 
ATOM     24  C   UNL     1       9.811  13.236  19.978  0.00  0.00    +0.000 A 
ENDBRANCH  18  19
ENDBRANCH   1  18
BRANCH  10  25
ATOM     25  O   UNL     1       4.127   2.840  17.235  0.00  0.00    +0.000 OA
BRANCH  25  26
ATOM     26  C   UNL     1       2.812   3.341  17.551  0.00  0.00    +0.000 C 
BRANCH  26  27
ATOM     27  C   UNL     1       2.045   2.321  18.410  0.00  0.00    +0.000 C 
ATOM     28  C   UNL     1       0.726   2.853  18.978  0.00  0.00    +0.000 C 
ATOM     29  C   UNL     1       0.930   3.844  20.120  0.00  0.00    +0.000 C 
ATOM     30  C   UNL     1       1.956   3.336  21.129  0.00  0.00    +0.000 C 
ATOM     31  C   UNL     1       3.189   2.714  20.486  0.00  0.00    +0.000 C 
ATOM     32  O   UNL     1       2.848   1.778  19.467  0.00  0.00    +0.000 OA
ENDBRANCH  26  27
ENDBRANCH  25  26
ENDBRANCH  10  25
TORSDOF 5
ENDMDL
MODEL 2
REMARK VINA RESULT:      -8.4      6.821      7.818
REMARK  Name = 
REMARK  6 active torsions:
REMARK  status: ('A' for Active; 'I' for Inactive)
REMARK    1  A    between atoms: C_1  and  C_2
REMARK    2  A    between atoms: C_2  and  N_3
REMARK    3  A    between atoms: C_2  and  C_24
REMARK    4  A    between atoms: C_12  and  O_13
REMARK    5  A    between atoms: O_13  and  C_14
REMARK    6  A    between atoms: C_14  and  C_15
REMARK                            x       y       z     vdW  Elec       q    Type
REMARK                         _______ _______ _______ _____ _____    ______ ____
ROOT
ATOM      1  N   UNL     1      -0.104  13.367  19.085  0.00  0.00    +0.000 N 
ATOM      2  C   UNL     1       0.681  12.269  19.343  0.00  0.00    +0.000 C 
ATOM      3  O   UNL     1       1.526  12.257  20.237  0.00  0.00    +0.000 OA
ATOM      4  N   UNL     1       0.381  11.199  18.534  0.00  0.00    +0.000 N 
ATOM      5  C   UNL     1       1.134  10.022  18.667  0.00  0.00    +0.000 A 
ATOM      6  C   UNL     1       1.078   9.326  19.873  0.00  0.00    +0.000 A 
ATOM      7  C   UNL     1       1.702   8.079  19.863  0.00  0.00    +0.000 A 
ATOM      8  N   UNL     1       1.771   7.095  20.803  0.00  0.00    +0.000 N 
ATOM      9  N   UNL     1       2.449   6.006  20.396  0.00  0.00    +0.000 NA
ATOM     10  C   UNL     1       2.829   6.306  19.171  0.00  0.00    +0.000 A 
ATOM     11  C   UNL     1       2.386   7.592  18.745  0.00  0.00    +0.000 A 
ATOM     12  C   UNL     1       2.455   8.400  17.616  0.00  0.00    +0.000 A 
ATOM     13  N   UNL     1       1.788   9.590  17.568  0.00  0.00    +0.000 NA
ATOM     14  H   UNL     1      -0.523  13.425  18.170  0.00  0.00    +0.000 HD
ATOM     15  H   UNL     1       0.058  11.407  17.605  0.00  0.00    +0.000 HD
ATOM     16  H   UNL     1       1.364   7.072  21.726  0.00  0.00    +0.000 HD
ENDROOT
BRANCH   1  18
ATOM     17  C   UNL     1      -1.183  14.930  20.663  0.00  0.00    +0.000 C 
ATOM     18  C   UNL     1       0.082  14.589  19.860  0.00  0.00    +0.000 C 
BRANCH  18  19
ATOM     19  C   UNL     1       0.485  15.766  18.986  0.00  0.00    +0.000 A 
ATOM     20  C   UNL     1      -0.466  16.649  18.438  0.00  0.00    +0.000 A 
ATOM     21  C   UNL     1      -0.061  17.704  17.610  0.00  0.00    +0.000 A 
ATOM     22  C   UNL     1       1.289  17.908  17.339  0.00  0.00    +0.000 A 
ATOM     23  C   UNL     1       2.240  17.053  17.891  0.00  0.00    +0.000 A 
ATOM     24  C   UNL     1       1.839  15.986  18.693  0.00  0.00    +0.000 A 
ENDBRANCH  18  19
ENDBRANCH   1  18
BRANCH  10  25
ATOM     25  O   UNL     1       3.519   5.376  18.453  0.00  0.00    +0.000 OA
BRANCH  25  26
ATOM     26  C   UNL     1       4.930   5.394  18.751  0.00  0.00    +0.000 C 
BRANCH  26  27
ATOM     27  C   UNL     1       5.687   6.222  17.697  0.00  0.00    +0.000 C 
ATOM     28  C   UNL     1       5.094   6.127  16.289  0.00  0.00    +0.000 C 
ATOM     29  C   UNL     1       5.377   4.787  15.616  0.00  0.00    +0.000 C 
ATOM     30  C   UNL     1       6.838   4.377  15.774  0.00  0.00    +0.000 C 
ATOM     31  C   UNL     1       7.391   4.611  17.175  0.00  0.00    +0.000 C 
ATOM     32  O   UNL     1       7.088   5.916  17.659  0.00  0.00    +0.000 OA
ENDBRANCH  26  27
ENDBRANCH  25  26
ENDBRANCH  10  25
TORSDOF 5
ENDMDL
MODEL 3
REMARK VINA RESULT:      -8.4      6.803      7.882
REMARK  Name = 
REMARK  6 active torsions:
REMARK  status: ('A' for Active; 'I' for Inactive)
REMARK    1  A    between atoms: C_1  and  C_2
REMARK    2  A    between atoms: C_2  and  N_3
REMARK    3  A    between atoms: C_2  and  C_24
REMARK    4  A    between atoms: C_12  and  O_13
REMARK    5  A    between atoms: O_13  and  C_14
REMARK    6  A    between atoms: C_14  and  C_15
REMARK                            x       y       z     vdW  Elec       q    Type
REMARK                         _______ _______ _______ _____ _____    ______ ____
ROOT
ATOM      1  N   UNL     1      -0.145  13.250  19.014  0.00  0.00    +0.000 N 
ATOM      2  C   UNL     1       0.644  12.166  19.315  0.00  0.00    +0.000 C 
ATOM      3  O   UNL     1       1.415  12.156  20.275  0.00  0.00    +0.000 OA
ATOM      4  N   UNL     1       0.436  11.106  18.466  0.00  0.00    +0.000 N 
ATOM      5  C   UNL     1       1.206   9.944  18.638  0.00  0.00    +0.000 A 
ATOM      6  C   UNL     1       1.070   9.223  19.822  0.00  0.00    +0.000 A 
ATOM      7  C   UNL     1       1.724   7.991  19.839  0.00  0.00    +0.000 A 
ATOM      8  N   UNL     1       1.742   6.990  20.764  0.00  0.00    +0.000 N 
ATOM      9  N   UNL     1       2.477   5.926  20.393  0.00  0.00    +0.000 NA
ATOM     10  C   UNL     1       2.947   6.260  19.208  0.00  0.00    +0.000 A 
ATOM     11  C   UNL     1       2.508   7.544  18.772  0.00  0.00    +0.000 A 
ATOM     12  C   UNL     1       2.647   8.375  17.667  0.00  0.00    +0.000 A 
ATOM     13  N   UNL     1       1.957   9.550  17.587  0.00  0.00    +0.000 NA
ATOM     14  H   UNL     1      -0.490  13.317  18.070  0.00  0.00    +0.000 HD
ATOM     15  H   UNL     1       0.184  11.325  17.518  0.00  0.00    +0.000 HD
ATOM     16  H   UNL     1       1.263   6.939  21.650  0.00  0.00    +0.000 HD
ENDROOT
BRANCH   1  18
ATOM     17  C   UNL     1      -1.382  14.748  20.539  0.00  0.00    +0.000 C 
ATOM     18  C   UNL     1      -0.052  14.461  19.825  0.00  0.00    +0.000 C 
BRANCH  18  19
ATOM     19  C   UNL     1       0.378  15.667  19.005  0.00  0.00    +0.000 A 
ATOM     20  C   UNL     1      -0.552  16.592  18.494  0.00  0.00    +0.000 A 
ATOM     21  C   UNL     1      -0.123  17.675  17.715  0.00  0.00    +0.000 A 
ATOM     22  C   UNL     1       1.232  17.862  17.458  0.00  0.00    +0.000 A 
ATOM     23  C   UNL     1       2.163  16.965  17.974  0.00  0.00    +0.000 A 
ATOM     24  C   UNL     1       1.737  15.872  18.726  0.00  0.00    +0.000 A 
ENDBRANCH  18  19
ENDBRANCH   1  18
BRANCH  10  25
ATOM     25  O   UNL     1       3.716   5.361  18.532  0.00  0.00    +0.000 OA
BRANCH  25  26
ATOM     26  C   UNL     1       5.020   5.202  19.126  0.00  0.00    +0.000 C 
BRANCH  26  27
ATOM     27  C   UNL     1       6.070   4.913  18.038  0.00  0.00    +0.000 C 
ATOM     28  C   UNL     1       7.517   5.064  18.515  0.00  0.00    +0.000 C 
ATOM     29  C   UNL     1       7.931   6.521  18.698  0.00  0.00    +0.000 C 
ATOM     30  C   UNL     1       7.507   7.379  17.509  0.00  0.00    +0.000 C 
ATOM     31  C   UNL     1       6.094   7.088  17.018  0.00  0.00    +0.000 C 
ATOM     32  O   UNL     1       5.862   5.692  16.852  0.00  0.00    +0.000 OA
ENDBRANCH  26  27
ENDBRANCH  25  26
ENDBRANCH  10  25
TORSDOF 5
ENDMDL
MODEL 4
REMARK VINA RESULT:      -8.3      6.695      7.247
REMARK  Name = 
REMARK  6 active torsions:
REMARK  status: ('A' for Active; 'I' for Inactive)
REMARK    1  A    between atoms: C_1  and  C_2
REMARK    2  A    between atoms: C_2  and  N_3
REMARK    3  A    between atoms: C_2  and  C_24
REMARK    4  A    between atoms: C_12  and  O_13
REMARK    5  A    between atoms: O_13  and  C_14
REMARK    6  A    between atoms: C_14  and  C_15
REMARK                            x       y       z     vdW  Elec       q    Type
REMARK                         _______ _______ _______ _____ _____    ______ ____
ROOT
ATOM      1  N   UNL     1      -0.260  13.058  19.028  0.00  0.00    +0.000 N 
ATOM      2  C   UNL     1       0.584  12.012  19.317  0.00  0.00    +0.000 C 
ATOM      3  O   UNL     1       1.352  12.029  20.278  0.00  0.00    +0.000 OA
ATOM      4  N   UNL     1       0.432  10.953  18.453  0.00  0.00    +0.000 N 
ATOM      5  C   UNL     1       1.259   9.830  18.613  0.00  0.00    +0.000 A 
ATOM      6  C   UNL     1       1.159   9.088  19.787  0.00  0.00    +0.000 A 
ATOM      7  C   UNL     1       1.875   7.892  19.790  0.00  0.00    +0.000 A 
ATOM      8  N   UNL     1       1.942   6.881  20.702  0.00  0.00    +0.000 N 
ATOM      9  N   UNL     1       2.731   5.860  20.320  0.00  0.00    +0.000 NA
ATOM     10  C   UNL     1       3.185   6.233  19.141  0.00  0.00    +0.000 A 
ATOM     11  C   UNL     1       2.682   7.498  18.720  0.00  0.00    +0.000 A 
ATOM     12  C   UNL     1       2.780   8.349  17.626  0.00  0.00    +0.000 A 
ATOM     13  N   UNL     1       2.031   9.489  17.559  0.00  0.00    +0.000 NA
ATOM     14  H   UNL     1      -0.606  13.120  18.083  0.00  0.00    +0.000 HD
ATOM     15  H   UNL     1       0.171  11.172  17.507  0.00  0.00    +0.000 HD
ATOM     16  H   UNL     1       1.465   6.794  21.587  0.00  0.00    +0.000 HD
ENDROOT
BRANCH   1  18
ATOM     17  C   UNL     1      -1.629  14.590  20.397  0.00  0.00    +0.000 C 
ATOM     18  C   UNL     1      -0.230  14.261  19.854  0.00  0.00    +0.000 C 
BRANCH  18  19
ATOM     19  C   UNL     1       0.339  15.456  19.104  0.00  0.00    +0.000 A 
ATOM     20  C   UNL     1      -0.473  16.520  18.669  0.00  0.00    +0.000 A 
ATOM     21  C   UNL     1       0.081  17.590  17.953  0.00  0.00    +0.000 A 
ATOM     22  C   UNL     1       1.446  17.625  17.686  0.00  0.00    +0.000 A 
ATOM     23  C   UNL     1       2.263  16.587  18.128  0.00  0.00    +0.000 A 
ATOM     24  C   UNL     1       1.711  15.509  18.817  0.00  0.00    +0.000 A 
ENDBRANCH  18  19
ENDBRANCH   1  18
BRANCH  10  25
ATOM     25  O   UNL     1       4.000   5.383  18.455  0.00  0.00    +0.000 OA
BRANCH  25  26
ATOM     26  C   UNL     1       4.133   4.106  19.111  0.00  0.00    +0.000 C 
BRANCH  26  27
ATOM     27  C   UNL     1       3.639   2.978  18.188  0.00  0.00    +0.000 C 
ATOM     28  C   UNL     1       2.535   3.408  17.217  0.00  0.00    +0.000 C 
ATOM     29  C   UNL     1       1.186   3.603  17.904  0.00  0.00    +0.000 C 
ATOM     30  C   UNL     1       0.861   2.444  18.842  0.00  0.00    +0.000 C 
ATOM     31  C   UNL     1       2.044   1.997  19.692  0.00  0.00    +0.000 C 
ATOM     32  O   UNL     1       3.224   1.814  18.915  0.00  0.00    +0.000 OA
ENDBRANCH  26  27
ENDBRANCH  25  26
ENDBRANCH  10  25
TORSDOF 5
ENDMDL
MODEL 5
REMARK VINA RESULT:      -8.2      0.832      1.431
REMARK  Name = 
REMARK  6 active torsions:
REMARK  status: ('A' for Active; 'I' for Inactive)
REMARK    1  A    between atoms: C_1  and  C_2
REMARK    2  A    between atoms: C_2  and  N_3
REMARK    3  A    between atoms: C_2  and  C_24
REMARK    4  A    between atoms: C_12  and  O_13
REMARK    5  A    between atoms: O_13  and  C_14
REMARK    6  A    between atoms: C_14  and  C_15
REMARK                            x       y       z     vdW  Elec       q    Type
REMARK                         _______ _______ _______ _____ _____    ______ ____
ROOT
ATOM      1  N   UNL     1       9.575   9.948  18.808  0.00  0.00    +0.000 N 
ATOM      2  C   UNL     1       8.524   9.161  18.401  0.00  0.00    +0.000 C 
ATOM      3  O   UNL     1       7.565   9.612  17.776  0.00  0.00    +0.000 OA
ATOM      4  N   UNL     1       8.695   7.837  18.724  0.00  0.00    +0.000 N 
ATOM      5  C   UNL     1       7.677   6.926  18.399  0.00  0.00    +0.000 A 
ATOM      6  C   UNL     1       7.372   6.720  17.055  0.00  0.00    +0.000 A 
ATOM      7  C   UNL     1       6.484   5.673  16.808  0.00  0.00    +0.000 A 
ATOM      8  N   UNL     1       6.035   5.124  15.644  0.00  0.00    +0.000 N 
ATOM      9  N   UNL     1       5.198   4.086  15.823  0.00  0.00    +0.000 NA
ATOM     10  C   UNL     1       5.105   3.975  17.133  0.00  0.00    +0.000 A 
ATOM     11  C   UNL     1       5.898   4.928  17.835  0.00  0.00    +0.000 A 
ATOM     12  C   UNL     1       6.205   5.267  19.147  0.00  0.00    +0.000 A 
ATOM     13  N   UNL     1       7.129   6.234  19.420  0.00  0.00    +0.000 NA
ATOM     14  H   UNL     1      10.140   9.600  19.567  0.00  0.00    +0.000 HD
ATOM     15  H   UNL     1       9.205   7.637  19.568  0.00  0.00    +0.000 HD
ATOM     16  H   UNL     1       6.269   5.375  14.695  0.00  0.00    +0.000 HD
ENDROOT
BRANCH   1  18
ATOM     17  C   UNL     1      10.769  11.800  17.694  0.00  0.00    +0.000 C 
ATOM     18  C   UNL     1       9.554  11.382  18.537  0.00  0.00    +0.000 C 
BRANCH  18  19
ATOM     19  C   UNL     1       9.489  12.205  19.814  0.00  0.00    +0.000 A 
ATOM     20  C   UNL     1       9.732  13.591  19.822  0.00  0.00    +0.000 A 
ATOM     21  C   UNL     1       9.695  14.313  21.022  0.00  0.00    +0.000 A 
ATOM     22  C   UNL     1       9.393  13.670  22.219  0.00  0.00    +0.000 A 
ATOM     23  C   UNL     1       9.132  12.302  22.222  0.00  0.00    +0.000 A 
ATOM     24  C   UNL     1       9.194  11.577  21.033  0.00  0.00    +0.000 A 
ENDBRANCH  18  19
ENDBRANCH   1  18
BRANCH  10  25
ATOM     25  O   UNL     1       4.344   2.971  17.652  0.00  0.00    +0.000 OA
BRANCH  25  26
ATOM     26  C   UNL     1       3.009   2.958  17.104  0.00  0.00    +0.000 C 
BRANCH  26  27
ATOM     27  C   UNL     1       2.125   3.987  17.832  0.00  0.00    +0.000 C 
ATOM     28  C   UNL     1       2.667   4.416  19.199  0.00  0.00    +0.000 C 
ATOM     29  C   UNL     1       2.502   3.337  20.266  0.00  0.00    +0.000 C 
ATOM     30  C   UNL     1       1.102   2.733  20.243  0.00  0.00    +0.000 C 
ATOM     31  C   UNL     1       0.585   2.442  18.839  0.00  0.00    +0.000 C 
ATOM     32  O   UNL     1       0.765   3.550  17.961  0.00  0.00    +0.000 OA
ENDBRANCH  26  27
ENDBRANCH  25  26
ENDBRANCH  10  25
TORSDOF 5
ENDMDL
MODEL 6
REMARK VINA RESULT:      -8.1      6.083      7.571
REMARK  Name = 
REMARK  6 active torsions:
REMARK  status: ('A' for Active; 'I' for Inactive)
REMARK    1  A    between atoms: C_1  and  C_2
REMARK    2  A    between atoms: C_2  and  N_3
REMARK    3  A    between atoms: C_2  and  C_24
REMARK    4  A    between atoms: C_12  and  O_13
REMARK    5  A    between atoms: O_13  and  C_14
REMARK    6  A    between atoms: C_14  and  C_15
REMARK                            x       y       z     vdW  Elec       q    Type
REMARK                         _______ _______ _______ _____ _____    ______ ____
ROOT
ATOM      1  N   UNL     1      -0.037  11.178  19.499  0.00  0.00    +0.000 N 
ATOM      2  C   UNL     1       0.483  10.065  18.884  0.00  0.00    +0.000 C 
ATOM      3  O   UNL     1       0.143   9.715  17.754  0.00  0.00    +0.000 OA
ATOM      4  N   UNL     1       1.439   9.435  19.644  0.00  0.00    +0.000 N 
ATOM      5  C   UNL     1       2.027   8.260  19.150  0.00  0.00    +0.000 A 
ATOM      6  C   UNL     1       2.781   8.332  17.980  0.00  0.00    +0.000 A 
ATOM      7  C   UNL     1       3.480   7.169  17.658  0.00  0.00    +0.000 A 
ATOM      8  N   UNL     1       4.374   6.897  16.666  0.00  0.00    +0.000 N 
ATOM      9  N   UNL     1       4.865   5.645  16.710  0.00  0.00    +0.000 NA
ATOM     10  C   UNL     1       4.263   5.103  17.748  0.00  0.00    +0.000 A 
ATOM     11  C   UNL     1       3.381   6.000  18.418  0.00  0.00    +0.000 A 
ATOM     12  C   UNL     1       2.537   6.006  19.522  0.00  0.00    +0.000 A 
ATOM     13  N   UNL     1       1.901   7.150  19.908  0.00  0.00    +0.000 NA
ATOM     14  H   UNL     1       0.032  11.220  20.504  0.00  0.00    +0.000 HD
ATOM     15  H   UNL     1       1.329   9.481  20.642  0.00  0.00    +0.000 HD
ATOM     16  H   UNL     1       4.724   7.509  15.944  0.00  0.00    +0.000 HD
ENDROOT
BRANCH   1  18
ATOM     17  C   UNL     1      -0.482  13.291  18.300  0.00  0.00    +0.000 C 
ATOM     18  C   UNL     1      -1.062  11.967  18.823  0.00  0.00    +0.000 C 
BRANCH  18  19
ATOM     19  C   UNL     1      -2.262  12.233  19.718  0.00  0.00    +0.000 A 
ATOM     20  C   UNL     1      -3.580  12.221  19.224  0.00  0.00    +0.000 A 
ATOM     21  C   UNL     1      -4.660  12.502  20.071  0.00  0.00    +0.000 A 
ATOM     22  C   UNL     1      -4.443  12.773  21.419  0.00  0.00    +0.000 A 
ATOM     23  C   UNL     1      -3.145  12.770  21.924  0.00  0.00    +0.000 A 
ATOM     24  C   UNL     1      -2.067  12.517  21.078  0.00  0.00    +0.000 A 
ENDBRANCH  18  19
ENDBRANCH   1  18
BRANCH  10  25
ATOM     25  O   UNL     1       4.577   3.822  18.092  0.00  0.00    +0.000 OA
BRANCH  25  26
ATOM     26  C   UNL     1       4.617   3.635  19.522  0.00  0.00    +0.000 C 
BRANCH  26  27
ATOM     27  C   UNL     1       4.004   2.274  19.898  0.00  0.00    +0.000 C 
ATOM     28  C   UNL     1       2.861   1.831  18.980  0.00  0.00    +0.000 C 
ATOM     29  C   UNL     1       1.573   2.615  19.217  0.00  0.00    +0.000 C 
ATOM     30  C   UNL     1       1.252   2.730  20.704  0.00  0.00    +0.000 C 
ATOM     31  C   UNL     1       2.464   3.058  21.568  0.00  0.00    +0.000 C 
ATOM     32  O   UNL     1       3.578   2.222  21.267  0.00  0.00    +0.000 OA
ENDBRANCH  26  27
ENDBRANCH  25  26
ENDBRANCH  10  25
TORSDOF 5
ENDMDL
MODEL 7
REMARK VINA RESULT:      -8.0      6.903      7.430
REMARK  Name = 
REMARK  6 active torsions:
REMARK  status: ('A' for Active; 'I' for Inactive)
REMARK    1  A    between atoms: C_1  and  C_2
REMARK    2  A    between atoms: C_2  and  N_3
REMARK    3  A    between atoms: C_2  and  C_24
REMARK    4  A    between atoms: C_12  and  O_13
REMARK    5  A    between atoms: O_13  and  C_14
REMARK    6  A    between atoms: C_14  and  C_15
REMARK                            x       y       z     vdW  Elec       q    Type
REMARK                         _______ _______ _______ _____ _____    ______ ____
ROOT
ATOM      1  N   UNL     1       0.342  13.776  18.788  0.00  0.00    +0.000 N 
ATOM      2  C   UNL     1       0.991  12.620  19.152  0.00  0.00    +0.000 C 
ATOM      3  O   UNL     1       1.801  12.579  20.077  0.00  0.00    +0.000 OA
ATOM      4  N   UNL     1       0.596  11.533  18.408  0.00  0.00    +0.000 N 
ATOM      5  C   UNL     1       1.208  10.293  18.650  0.00  0.00    +0.000 A 
ATOM      6  C   UNL     1       1.036   9.697  19.898  0.00  0.00    +0.000 A 
ATOM      7  C   UNL     1       1.516   8.392  19.997  0.00  0.00    +0.000 A 
ATOM      8  N   UNL     1       1.444   7.476  21.005  0.00  0.00    +0.000 N 
ATOM      9  N   UNL     1       2.007   6.293  20.701  0.00  0.00    +0.000 NA
ATOM     10  C   UNL     1       2.456   6.459  19.473  0.00  0.00    +0.000 A 
ATOM     11  C   UNL     1       2.175   7.753  18.943  0.00  0.00    +0.000 A 
ATOM     12  C   UNL     1       2.368   8.463  17.765  0.00  0.00    +0.000 A 
ATOM     13  N   UNL     1       1.842   9.713  17.610  0.00  0.00    +0.000 NA
ATOM     14  H   UNL     1      -0.039  13.813  17.856  0.00  0.00    +0.000 HD
ATOM     15  H   UNL     1       0.328  11.708  17.455  0.00  0.00    +0.000 HD
ATOM     16  H   UNL     1       1.009   7.566  21.911  0.00  0.00    +0.000 HD
ENDROOT
BRANCH   1  18
ATOM     17  C   UNL     1      -0.382  15.290  20.600  0.00  0.00    +0.000 C 
ATOM     18  C   UNL     1       0.642  15.023  19.485  0.00  0.00    +0.000 C 
BRANCH  18  19
ATOM     19  C   UNL     1       0.707  16.208  18.534  0.00  0.00    +0.000 A 
ATOM     20  C   UNL     1       1.923  16.667  17.995  0.00  0.00    +0.000 A 
ATOM     21  C   UNL     1       1.950  17.782  17.147  0.00  0.00    +0.000 A 
ATOM     22  C   UNL     1       0.768  18.434  16.807  0.00  0.00    +0.000 A 
ATOM     23  C   UNL     1      -0.444  17.979  17.319  0.00  0.00    +0.000 A 
ATOM     24  C   UNL     1      -0.470  16.886  18.185  0.00  0.00    +0.000 A 
ENDBRANCH  18  19
ENDBRANCH   1  18
BRANCH  10  25
ATOM     25  O   UNL     1       3.059   5.409  18.848  0.00  0.00    +0.000 OA
BRANCH  25  26
ATOM     26  C   UNL     1       2.192   4.776  17.886  0.00  0.00    +0.000 C 
BRANCH  26  27
ATOM     27  C   UNL     1       2.241   3.246  18.049  0.00  0.00    +0.000 C 
ATOM     28  C   UNL     1       1.011   2.655  18.745  0.00  0.00    +0.000 C 
ATOM     29  C   UNL     1       0.987   2.937  20.245  0.00  0.00    +0.000 C 
ATOM     30  C   UNL     1       2.341   2.657  20.891  0.00  0.00    +0.000 C 
ATOM     31  C   UNL     1       3.523   3.174  20.079  0.00  0.00    +0.000 C 
ATOM     32  O   UNL     1       3.435   2.801  18.707  0.00  0.00    +0.000 OA
ENDBRANCH  26  27
ENDBRANCH  25  26
ENDBRANCH  10  25
TORSDOF 5
ENDMDL
MODEL 8
REMARK VINA RESULT:      -8.0      7.837     10.794
REMARK  Name = 
REMARK  6 active torsions:
REMARK  status: ('A' for Active; 'I' for Inactive)
REMARK    1  A    between atoms: C_1  and  C_2
REMARK    2  A    between atoms: C_2  and  N_3
REMARK    3  A    between atoms: C_2  and  C_24
REMARK    4  A    between atoms: C_12  and  O_13
REMARK    5  A    between atoms: O_13  and  C_14
REMARK    6  A    between atoms: C_14  and  C_15
REMARK                            x       y       z     vdW  Elec       q    Type
REMARK                         _______ _______ _______ _____ _____    ______ ____
ROOT
ATOM      1  N   UNL     1       2.830   7.203  18.868  0.00  0.00    +0.000 N 
ATOM      2  C   UNL     1       1.902   7.994  19.502  0.00  0.00    +0.000 C 
ATOM      3  O   UNL     1       1.529   7.782  20.655  0.00  0.00    +0.000 OA
ATOM      4  N   UNL     1       1.489   9.052  18.727  0.00  0.00    +0.000 N 
ATOM      5  C   UNL     1       0.512   9.921  19.240  0.00  0.00    +0.000 A 
ATOM      6  C   UNL     1       0.814  10.669  20.376  0.00  0.00    +0.000 A 
ATOM      7  C   UNL     1      -0.132  11.637  20.711  0.00  0.00    +0.000 A 
ATOM      8  N   UNL     1      -0.138  12.599  21.676  0.00  0.00    +0.000 N 
ATOM      9  N   UNL     1      -1.236  13.377  21.658  0.00  0.00    +0.000 NA
ATOM     10  C   UNL     1      -1.951  12.894  20.663  0.00  0.00    +0.000 A 
ATOM     11  C   UNL     1      -1.323  11.802  19.997  0.00  0.00    +0.000 A 
ATOM     12  C   UNL     1      -1.568  10.950  18.927  0.00  0.00    +0.000 A 
ATOM     13  N   UNL     1      -0.628  10.045  18.526  0.00  0.00    +0.000 NA
ATOM     14  H   UNL     1       2.844   7.231  17.861  0.00  0.00    +0.000 HD
ATOM     15  H   UNL     1       1.463   8.906  17.733  0.00  0.00    +0.000 HD
ATOM     16  H   UNL     1       0.571  12.811  22.363  0.00  0.00    +0.000 HD
ENDROOT
BRANCH   1  18
ATOM     17  C   UNL     1       4.758   5.665  18.992  0.00  0.00    +0.000 C 
ATOM     18  C   UNL     1       3.377   6.038  19.556  0.00  0.00    +0.000 C 
BRANCH  18  19
ATOM     19  C   UNL     1       2.440   4.842  19.489  0.00  0.00    +0.000 A 
ATOM     20  C   UNL     1       1.901   4.251  20.648  0.00  0.00    +0.000 A 
ATOM     21  C   UNL     1       1.065   3.131  20.551  0.00  0.00    +0.000 A 
ATOM     22  C   UNL     1       0.738   2.604  19.305  0.00  0.00    +0.000 A 
ATOM     23  C   UNL     1       1.249   3.191  18.151  0.00  0.00    +0.000 A 
ATOM     24  C   UNL     1       2.102   4.290  18.245  0.00  0.00    +0.000 A 
ENDBRANCH  18  19
ENDBRANCH   1  18
BRANCH  10  25
ATOM     25  O   UNL     1      -3.133  13.499  20.352  0.00  0.00    +0.000 OA
BRANCH  25  26
ATOM     26  C   UNL     1      -4.267  12.644  20.607  0.00  0.00    +0.000 C 
BRANCH  26  27
ATOM     27  C   UNL     1      -5.414  12.979  19.637  0.00  0.00    +0.000 C 
ATOM     28  C   UNL     1      -6.806  12.644  20.182  0.00  0.00    +0.000 C 
ATOM     29  C   UNL     1      -7.091  11.144  20.195  0.00  0.00    +0.000 C 
ATOM     30  C   UNL     1      -6.693  10.485  18.878  0.00  0.00    +0.000 C 
ATOM     31  C   UNL     1      -5.348  10.958  18.340  0.00  0.00    +0.000 C 
ATOM     32  O   UNL     1      -5.237  12.378  18.347  0.00  0.00    +0.000 OA
ENDBRANCH  26  27
ENDBRANCH  25  26
ENDBRANCH  10  25
TORSDOF 5
ENDMDL
MODEL 9
REMARK VINA RESULT:      -7.9      8.496     11.086
REMARK  Name = 
REMARK  6 active torsions:
REMARK  status: ('A' for Active; 'I' for Inactive)
REMARK    1  A    between atoms: C_1  and  C_2
REMARK    2  A    between atoms: C_2  and  N_3
REMARK    3  A    between atoms: C_2  and  C_24
REMARK    4  A    between atoms: C_12  and  O_13
REMARK    5  A    between atoms: O_13  and  C_14
REMARK    6  A    between atoms: C_14  and  C_15
REMARK                            x       y       z     vdW  Elec       q    Type
REMARK                         _______ _______ _______ _____ _____    ______ ____
ROOT
ATOM      1  N   UNL     1       2.165   7.956  17.829  0.00  0.00    +0.000 N 
ATOM      2  C   UNL     1       1.526   8.853  18.652  0.00  0.00    +0.000 C 
ATOM      3  O   UNL     1       1.707   8.880  19.868  0.00  0.00    +0.000 OA
ATOM      4  N   UNL     1       0.719   9.726  17.960  0.00  0.00    +0.000 N 
ATOM      5  C   UNL     1      -0.023  10.673  18.683  0.00  0.00    +0.000 A 
ATOM      6  C   UNL     1       0.662  11.641  19.414  0.00  0.00    +0.000 A 
ATOM      7  C   UNL     1      -0.138  12.650  19.950  0.00  0.00    +0.000 A 
ATOM      8  N   UNL     1       0.177  13.790  20.627  0.00  0.00    +0.000 N 
ATOM      9  N   UNL     1      -0.893  14.538  20.953  0.00  0.00    +0.000 NA
ATOM     10  C   UNL     1      -1.915  13.855  20.480  0.00  0.00    +0.000 A 
ATOM     11  C   UNL     1      -1.529  12.654  19.816  0.00  0.00    +0.000 A 
ATOM     12  C   UNL     1      -2.125  11.598  19.136  0.00  0.00    +0.000 A 
ATOM     13  N   UNL     1      -1.365  10.638  18.534  0.00  0.00    +0.000 NA
ATOM     14  H   UNL     1       1.743   7.776  16.932  0.00  0.00    +0.000 HD
ATOM     15  H   UNL     1       0.284   9.377  17.124  0.00  0.00    +0.000 HD
ATOM     16  H   UNL     1       1.087  14.144  20.880  0.00  0.00    +0.000 HD
ENDROOT
BRANCH   1  18
ATOM     17  C   UNL     1       4.198   6.614  17.426  0.00  0.00    +0.000 C 
ATOM     18  C   UNL     1       3.065   6.962  18.405  0.00  0.00    +0.000 C 
BRANCH  18  19
ATOM     19  C   UNL     1       2.328   5.700  18.828  0.00  0.00    +0.000 A 
ATOM     20  C   UNL     1       1.988   5.450  20.171  0.00  0.00    +0.000 A 
ATOM     21  C   UNL     1       1.337   4.262  20.529  0.00  0.00    +0.000 A 
ATOM     22  C   UNL     1       0.997   3.326  19.557  0.00  0.00    +0.000 A 
ATOM     23  C   UNL     1       1.311   3.571  18.223  0.00  0.00    +0.000 A 
ATOM     24  C   UNL     1       1.982   4.740  17.867  0.00  0.00    +0.000 A 
ENDBRANCH  18  19
ENDBRANCH   1  18
BRANCH  10  25
ATOM     25  O   UNL     1      -3.169  14.373  20.616  0.00  0.00    +0.000 OA
BRANCH  25  26
ATOM     26  C   UNL     1      -3.718  14.134  21.928  0.00  0.00    +0.000 C 
BRANCH  26  27
ATOM     27  C   UNL     1      -4.286  12.706  22.016  0.00  0.00    +0.000 C 
ATOM     28  C   UNL     1      -5.457  12.443  21.065  0.00  0.00    +0.000 C 
ATOM     29  C   UNL     1      -6.750  13.117  21.516  0.00  0.00    +0.000 C 
ATOM     30  C   UNL     1      -7.011  12.892  23.003  0.00  0.00    +0.000 C 
ATOM     31  C   UNL     1      -5.770  13.058  23.873  0.00  0.00    +0.000 C 
ATOM     32  O   UNL     1      -4.653  12.342  23.354  0.00  0.00    +0.000 OA
ENDBRANCH  26  27
ENDBRANCH  25  26
ENDBRANCH  10  25
TORSDOF 5
ENDMDL
