MODEL 1
REMARK VINA RESULT:      -7.8      0.000      0.000
REMARK  Name = 
REMARK  3 active torsions:
REMARK  status: ('A' for Active; 'I' for Inactive)
REMARK    1  A    between atoms: O_1  and  C_2
REMARK    2  A    between atoms: N_15  and  C_16
REMARK    3  A    between atoms: C_16  and  C_17
REMARK                            x       y       z     vdW  Elec       q    Type
REMARK                         _______ _______ _______ _____ _____    ______ ____
ROOT
ATOM      1  C   UNL     1       6.039   5.592  17.497  0.00  0.00    +0.000 A 
ATOM      2  C   UNL     1       6.281   5.241  16.227  0.00  0.00    +0.000 A 
ATOM      3  N   UNL     1       7.298   5.650  15.397  0.00  0.00    +0.000 NA
ATOM      4  C   UNL     1       7.049   4.993  14.300  0.00  0.00    +0.000 A 
ATOM      5  C   UNL     1       7.816   5.039  13.035  0.00  0.00    +0.000 A 
ATOM      6  C   UNL     1       7.397   4.286  12.002  0.00  0.00    +0.000 A 
ATOM      7  C   UNL     1       6.229   3.428  12.075  0.00  0.00    +0.000 A 
ATOM      8  F   UNL     1       5.912   2.713  10.978  0.00  0.00    +0.000 F 
ATOM      9  C   UNL     1       5.476   3.331  13.181  0.00  0.00    +0.000 A 
ATOM     10  C   UNL     1       5.858   4.109  14.316  0.00  0.00    +0.000 A 
ATOM     11  C   UNL     1       5.404   4.304  15.551  0.00  0.00    +0.000 A 
ATOM     12  N   UNL     1       4.306   3.771  16.183  0.00  0.00    +0.000 NA
ATOM     13  C   UNL     1       4.146   4.162  17.415  0.00  0.00    +0.000 A 
ATOM     14  N   UNL     1       4.937   5.045  18.148  0.00  0.00    +0.000 N 
ENDROOT
BRANCH   1  15
ATOM     15  O   UNL     1       6.858   6.483  18.158  0.00  0.00    +0.000 OA
ATOM     16  H   UNL     1       7.765   6.164  17.966  0.00  0.00    +0.000 HD
ENDBRANCH   1  15
BRANCH  14  17
ATOM     17  C   UNL     1       4.630   5.337  19.546  0.00  0.00    +0.000 C 
BRANCH  17  18
ATOM     18  C   UNL     1       3.401   4.589  20.009  0.00  0.00    +0.000 A 
ATOM     19  C   UNL     1       2.155   5.225  20.052  0.00  0.00    +0.000 A 
ATOM     20  C   UNL     1       1.058   4.516  20.512  0.00  0.00    +0.000 A 
ATOM     21  N   UNL     1       1.112   3.231  20.922  0.00  0.00    +0.000 NA
ATOM     22  C   UNL     1       2.322   2.633  20.876  0.00  0.00    +0.000 A 
ATOM     23  C   UNL     1       3.478   3.259  20.436  0.00  0.00    +0.000 A 
ENDBRANCH  17  18
ENDBRANCH  14  17
TORSDOF 3
ENDMDL
MODEL 2
REMARK VINA RESULT:      -7.7      0.042      1.002
REMARK  Name = 
REMARK  3 active torsions:
REMARK  status: ('A' for Active; 'I' for Inactive)
REMARK    1  A    between atoms: O_1  and  C_2
REMARK    2  A    between atoms: N_15  and  C_16
REMARK    3  A    between atoms: C_16  and  C_17
REMARK                            x       y       z     vdW  Elec       q    Type
REMARK                         _______ _______ _______ _____ _____    ______ ____
ROOT
ATOM      1  C   UNL     1       6.039   5.586  17.503  0.00  0.00    +0.000 A 
ATOM      2  C   UNL     1       6.275   5.233  16.232  0.00  0.00    +0.000 A 
ATOM      3  N   UNL     1       7.289   5.640  15.397  0.00  0.00    +0.000 NA
ATOM      4  C   UNL     1       7.034   4.983  14.302  0.00  0.00    +0.000 A 
ATOM      5  C   UNL     1       7.795   5.027  13.033  0.00  0.00    +0.000 A 
ATOM      6  C   UNL     1       7.371   4.273  12.002  0.00  0.00    +0.000 A 
ATOM      7  C   UNL     1       6.201   3.418  12.082  0.00  0.00    +0.000 A 
ATOM      8  F   UNL     1       5.878   2.702  10.986  0.00  0.00    +0.000 F 
ATOM      9  C   UNL     1       5.453   3.323  13.191  0.00  0.00    +0.000 A 
ATOM     10  C   UNL     1       5.841   4.101  14.324  0.00  0.00    +0.000 A 
ATOM     11  C   UNL     1       5.394   4.298  15.561  0.00  0.00    +0.000 A 
ATOM     12  N   UNL     1       4.297   3.767  16.198  0.00  0.00    +0.000 NA
ATOM     13  C   UNL     1       4.144   4.159  17.431  0.00  0.00    +0.000 A 
ATOM     14  N   UNL     1       4.939   5.042  18.159  0.00  0.00    +0.000 N 
ENDROOT
BRANCH   1  15
ATOM     15  O   UNL     1       6.863   6.476  18.160  0.00  0.00    +0.000 OA
ATOM     16  H   UNL     1       7.208   5.966  18.923  0.00  0.00    +0.000 HD
ENDBRANCH   1  15
BRANCH  14  17
ATOM     17  C   UNL     1       4.640   5.334  19.559  0.00  0.00    +0.000 C 
BRANCH  17  18
ATOM     18  C   UNL     1       3.394   4.612  20.020  0.00  0.00    +0.000 A 
ATOM     19  C   UNL     1       3.447   3.263  20.385  0.00  0.00    +0.000 A 
ATOM     20  C   UNL     1       2.278   2.628  20.771  0.00  0.00    +0.000 A 
ATOM     21  N   UNL     1       1.075   3.238  20.824  0.00  0.00    +0.000 NA
ATOM     22  C   UNL     1       1.041   4.539  20.466  0.00  0.00    +0.000 A 
ATOM     23  C   UNL     1       2.155   5.260  20.062  0.00  0.00    +0.000 A 
ENDBRANCH  17  18
ENDBRANCH  14  17
TORSDOF 3
ENDMDL
MODEL 3
REMARK VINA RESULT:      -7.7      4.585      7.832
REMARK  Name = 
REMARK  3 active torsions:
REMARK  status: ('A' for Active; 'I' for Inactive)
REMARK    1  A    between atoms: O_1  and  C_2
REMARK    2  A    between atoms: N_15  and  C_16
REMARK    3  A    between atoms: C_16  and  C_17
REMARK                            x       y       z     vdW  Elec       q    Type
REMARK                         _______ _______ _______ _____ _____    ______ ____
ROOT
ATOM      1  C   UNL     1       2.544   5.997  20.036  0.00  0.00    +0.000 A 
ATOM      2  C   UNL     1       1.976   7.210  20.070  0.00  0.00    +0.000 A 
ATOM      3  N   UNL     1       1.258   7.800  21.084  0.00  0.00    +0.000 NA
ATOM      4  C   UNL     1       0.960   8.963  20.581  0.00  0.00    +0.000 A 
ATOM      5  C   UNL     1       0.179  10.044  21.223  0.00  0.00    +0.000 A 
ATOM      6  C   UNL     1      -0.028  11.183  20.537  0.00  0.00    +0.000 A 
ATOM      7  C   UNL     1       0.484  11.398  19.197  0.00  0.00    +0.000 A 
ATOM      8  F   UNL     1       0.220  12.584  18.613  0.00  0.00    +0.000 F 
ATOM      9  C   UNL     1       1.197  10.470  18.541  0.00  0.00    +0.000 A 
ATOM     10  C   UNL     1       1.450   9.233  19.207  0.00  0.00    +0.000 A 
ATOM     11  C   UNL     1       2.080   8.096  18.926  0.00  0.00    +0.000 A 
ATOM     12  N   UNL     1       2.743   7.712  17.784  0.00  0.00    +0.000 NA
ATOM     13  C   UNL     1       3.268   6.521  17.837  0.00  0.00    +0.000 A 
ATOM     14  N   UNL     1       3.229   5.608  18.889  0.00  0.00    +0.000 N 
ENDROOT
BRANCH   1  15
ATOM     15  O   UNL     1       2.456   5.139  21.111  0.00  0.00    +0.000 OA
ATOM     16  H   UNL     1       1.889   5.616  21.754  0.00  0.00    +0.000 HD
ENDBRANCH   1  15
BRANCH  14  17
ATOM     17  C   UNL     1       3.919   4.324  18.788  0.00  0.00    +0.000 C 
BRANCH  17  18
ATOM     18  C   UNL     1       5.209   4.450  18.009  0.00  0.00    +0.000 A 
ATOM     19  C   UNL     1       5.266   4.078  16.662  0.00  0.00    +0.000 A 
ATOM     20  C   UNL     1       6.473   4.178  15.991  0.00  0.00    +0.000 A 
ATOM     21  N   UNL     1       7.614   4.623  16.560  0.00  0.00    +0.000 NA
ATOM     22  C   UNL     1       7.542   4.975  17.861  0.00  0.00    +0.000 A 
ATOM     23  C   UNL     1       6.382   4.908  18.619  0.00  0.00    +0.000 A 
ENDBRANCH  17  18
ENDBRANCH  14  17
TORSDOF 3
ENDMDL
MODEL 4
REMARK VINA RESULT:      -7.7      4.586      7.819
REMARK  Name = 
REMARK  3 active torsions:
REMARK  status: ('A' for Active; 'I' for Inactive)
REMARK    1  A    between atoms: O_1  and  C_2
REMARK    2  A    between atoms: N_15  and  C_16
REMARK    3  A    between atoms: C_16  and  C_17
REMARK                            x       y       z     vdW  Elec       q    Type
REMARK                         _______ _______ _______ _____ _____    ______ ____
ROOT
ATOM      1  C   UNL     1       2.549   6.008  20.035  0.00  0.00    +0.000 A 
ATOM      2  C   UNL     1       1.991   7.226  20.061  0.00  0.00    +0.000 A 
ATOM      3  N   UNL     1       1.280   7.830  21.072  0.00  0.00    +0.000 NA
ATOM      4  C   UNL     1       0.990   8.991  20.560  0.00  0.00    +0.000 A 
ATOM      5  C   UNL     1       0.220  10.083  21.196  0.00  0.00    +0.000 A 
ATOM      6  C   UNL     1       0.019  11.218  20.501  0.00  0.00    +0.000 A 
ATOM      7  C   UNL     1       0.529  11.418  19.157  0.00  0.00    +0.000 A 
ATOM      8  F   UNL     1       0.272  12.601  18.564  0.00  0.00    +0.000 F 
ATOM      9  C   UNL     1       1.232  10.479  18.507  0.00  0.00    +0.000 A 
ATOM     10  C   UNL     1       1.478   9.245  19.182  0.00  0.00    +0.000 A 
ATOM     11  C   UNL     1       2.097   8.101  18.908  0.00  0.00    +0.000 A 
ATOM     12  N   UNL     1       2.753   7.702  17.768  0.00  0.00    +0.000 NA
ATOM     13  C   UNL     1       3.269   6.507  17.829  0.00  0.00    +0.000 A 
ATOM     14  N   UNL     1       3.227   5.603  18.889  0.00  0.00    +0.000 N 
ENDROOT
BRANCH   1  15
ATOM     15  O   UNL     1       2.457   5.160  21.118  0.00  0.00    +0.000 OA
ATOM     16  H   UNL     1       3.360   4.788  21.209  0.00  0.00    +0.000 HD
ENDBRANCH   1  15
BRANCH  14  17
ATOM     17  C   UNL     1       3.906   4.313  18.797  0.00  0.00    +0.000 C 
BRANCH  17  18
ATOM     18  C   UNL     1       5.208   4.428  18.038  0.00  0.00    +0.000 A 
ATOM     19  C   UNL     1       6.354   4.932  18.662  0.00  0.00    +0.000 A 
ATOM     20  C   UNL     1       7.521   5.051  17.924  0.00  0.00    +0.000 A 
ATOM     21  N   UNL     1       7.625   4.703  16.624  0.00  0.00    +0.000 NA
ATOM     22  C   UNL     1       6.510   4.220  16.037  0.00  0.00    +0.000 A 
ATOM     23  C   UNL     1       5.295   4.066  16.689  0.00  0.00    +0.000 A 
ENDBRANCH  17  18
ENDBRANCH  14  17
TORSDOF 3
ENDMDL
MODEL 5
REMARK VINA RESULT:      -7.6      5.253      8.745
REMARK  Name = 
REMARK  3 active torsions:
REMARK  status: ('A' for Active; 'I' for Inactive)
REMARK    1  A    between atoms: O_1  and  C_2
REMARK    2  A    between atoms: N_15  and  C_16
REMARK    3  A    between atoms: C_16  and  C_17
REMARK                            x       y       z     vdW  Elec       q    Type
REMARK                         _______ _______ _______ _____ _____    ______ ____
ROOT
ATOM      1  C   UNL     1       2.337   6.731  19.824  0.00  0.00    +0.000 A 
ATOM      2  C   UNL     1       1.657   7.749  20.370  0.00  0.00    +0.000 A 
ATOM      3  N   UNL     1       1.130   7.855  21.636  0.00  0.00    +0.000 NA
ATOM      4  C   UNL     1       0.593   9.041  21.620  0.00  0.00    +0.000 A 
ATOM      5  C   UNL     1      -0.138   9.708  22.721  0.00  0.00    +0.000 A 
ATOM      6  C   UNL     1      -0.627  10.944  22.512  0.00  0.00    +0.000 A 
ATOM      7  C   UNL     1      -0.466  11.652  21.255  0.00  0.00    +0.000 A 
ATOM      8  F   UNL     1      -0.993  12.890  21.167  0.00  0.00    +0.000 F 
ATOM      9  C   UNL     1       0.177  11.118  20.206  0.00  0.00    +0.000 A 
ATOM     10  C   UNL     1       0.718   9.805  20.355  0.00  0.00    +0.000 A 
ATOM     11  C   UNL     1       1.391   8.946  19.595  0.00  0.00    +0.000 A 
ATOM     12  N   UNL     1       1.812   9.060  18.292  0.00  0.00    +0.000 NA
ATOM     13  C   UNL     1       2.468   8.029  17.841  0.00  0.00    +0.000 A 
ATOM     14  N   UNL     1       2.778   6.846  18.509  0.00  0.00    +0.000 N 
ENDROOT
BRANCH   1  15
ATOM     15  O   UNL     1       2.598   5.583  20.541  0.00  0.00    +0.000 OA
ATOM     16  H   UNL     1       2.609   5.880  21.476  0.00  0.00    +0.000 HD
ENDBRANCH   1  15
BRANCH  14  17
ATOM     17  C   UNL     1       3.569   5.806  17.856  0.00  0.00    +0.000 C 
BRANCH  17  18
ATOM     18  C   UNL     1       5.050   6.030  18.057  0.00  0.00    +0.000 A 
ATOM     19  C   UNL     1       5.766   6.869  17.198  0.00  0.00    +0.000 A 
ATOM     20  C   UNL     1       7.129   7.025  17.395  0.00  0.00    +0.000 A 
ATOM     21  N   UNL     1       7.818   6.413  18.382  0.00  0.00    +0.000 NA
ATOM     22  C   UNL     1       7.113   5.605  19.201  0.00  0.00    +0.000 A 
ATOM     23  C   UNL     1       5.749   5.383  19.082  0.00  0.00    +0.000 A 
ENDBRANCH  17  18
ENDBRANCH  14  17
TORSDOF 3
ENDMDL
MODEL 6
REMARK VINA RESULT:      -7.6      5.217      8.745
REMARK  Name = 
REMARK  3 active torsions:
REMARK  status: ('A' for Active; 'I' for Inactive)
REMARK    1  A    between atoms: O_1  and  C_2
REMARK    2  A    between atoms: N_15  and  C_16
REMARK    3  A    between atoms: C_16  and  C_17
REMARK                            x       y       z     vdW  Elec       q    Type
REMARK                         _______ _______ _______ _____ _____    ______ ____
ROOT
ATOM      1  C   UNL     1       2.374   6.687  19.783  0.00  0.00    +0.000 A 
ATOM      2  C   UNL     1       1.694   7.702  20.335  0.00  0.00    +0.000 A 
ATOM      3  N   UNL     1       1.159   7.797  21.599  0.00  0.00    +0.000 NA
ATOM      4  C   UNL     1       0.626   8.986  21.591  0.00  0.00    +0.000 A 
ATOM      5  C   UNL     1      -0.109   9.645  22.693  0.00  0.00    +0.000 A 
ATOM      6  C   UNL     1      -0.592  10.884  22.493  0.00  0.00    +0.000 A 
ATOM      7  C   UNL     1      -0.420  11.604  21.245  0.00  0.00    +0.000 A 
ATOM      8  F   UNL     1      -0.942  12.844  21.165  0.00  0.00    +0.000 F 
ATOM      9  C   UNL     1       0.228  11.078  20.195  0.00  0.00    +0.000 A 
ATOM     10  C   UNL     1       0.762   9.761  20.334  0.00  0.00    +0.000 A 
ATOM     11  C   UNL     1       1.438   8.907  19.571  0.00  0.00    +0.000 A 
ATOM     12  N   UNL     1       1.867   9.033  18.271  0.00  0.00    +0.000 NA
ATOM     13  C   UNL     1       2.523   8.004  17.814  0.00  0.00    +0.000 A 
ATOM     14  N   UNL     1       2.824   6.813  18.473  0.00  0.00    +0.000 N 
ENDROOT
BRANCH   1  15
ATOM     15  O   UNL     1       2.626   5.531  20.491  0.00  0.00    +0.000 OA
ATOM     16  H   UNL     1       3.507   5.683  20.895  0.00  0.00    +0.000 HD
ENDBRANCH   1  15
BRANCH  14  17
ATOM     17  C   UNL     1       3.615   5.776  17.814  0.00  0.00    +0.000 C 
BRANCH  17  18
ATOM     18  C   UNL     1       5.097   6.001  18.015  0.00  0.00    +0.000 A 
ATOM     19  C   UNL     1       5.779   5.364  19.056  0.00  0.00    +0.000 A 
ATOM     20  C   UNL     1       7.130   5.620  19.226  0.00  0.00    +0.000 A 
ATOM     21  N   UNL     1       7.841   6.453  18.438  0.00  0.00    +0.000 NA
ATOM     22  C   UNL     1       7.167   7.062  17.439  0.00  0.00    +0.000 A 
ATOM     23  C   UNL     1       5.815   6.873  17.190  0.00  0.00    +0.000 A 
ENDBRANCH  17  18
ENDBRANCH  14  17
TORSDOF 3
ENDMDL
MODEL 7
REMARK VINA RESULT:      -7.6      5.299      7.515
REMARK  Name = 
REMARK  3 active torsions:
REMARK  status: ('A' for Active; 'I' for Inactive)
REMARK    1  A    between atoms: O_1  and  C_2
REMARK    2  A    between atoms: N_15  and  C_16
REMARK    3  A    between atoms: C_16  and  C_17
REMARK                            x       y       z     vdW  Elec       q    Type
REMARK                         _______ _______ _______ _____ _____    ______ ____
ROOT
ATOM      1  C   UNL     1       2.141   8.315  18.385  0.00  0.00    +0.000 A 
ATOM      2  C   UNL     1       2.377   7.056  18.778  0.00  0.00    +0.000 A 
ATOM      3  N   UNL     1       2.992   6.036  18.089  0.00  0.00    +0.000 NA
ATOM      4  C   UNL     1       2.954   5.054  18.944  0.00  0.00    +0.000 A 
ATOM      5  C   UNL     1       3.469   3.680  18.753  0.00  0.00    +0.000 A 
ATOM      6  C   UNL     1       3.333   2.797  19.759  0.00  0.00    +0.000 A 
ATOM      7  C   UNL     1       2.707   3.135  21.024  0.00  0.00    +0.000 A 
ATOM      8  F   UNL     1       2.636   2.168  21.960  0.00  0.00    +0.000 F 
ATOM      9  C   UNL     1       2.210   4.354  21.277  0.00  0.00    +0.000 A 
ATOM     10  C   UNL     1       2.314   5.342  20.251  0.00  0.00    +0.000 A 
ATOM     11  C   UNL     1       1.960   6.614  20.095  0.00  0.00    +0.000 A 
ATOM     12  N   UNL     1       1.308   7.462  20.959  0.00  0.00    +0.000 NA
ATOM     13  C   UNL     1       1.123   8.667  20.500  0.00  0.00    +0.000 A 
ATOM     14  N   UNL     1       1.494   9.183  19.259  0.00  0.00    +0.000 N 
ENDROOT
BRANCH   1  15
ATOM     15  O   UNL     1       2.526   8.754  17.136  0.00  0.00    +0.000 OA
ATOM     16  H   UNL     1       3.459   8.463  17.055  0.00  0.00    +0.000 HD
ENDBRANCH   1  15
BRANCH  14  17
ATOM     17  C   UNL     1       1.244  10.584  18.929  0.00  0.00    +0.000 C 
BRANCH  17  18
ATOM     18  C   UNL     1      -0.232  10.853  18.744  0.00  0.00    +0.000 A 
ATOM     19  C   UNL     1      -0.883  11.816  19.522  0.00  0.00    +0.000 A 
ATOM     20  C   UNL     1      -2.242  12.012  19.345  0.00  0.00    +0.000 A 
ATOM     21  N   UNL     1      -2.990  11.326  18.455  0.00  0.00    +0.000 NA
ATOM     22  C   UNL     1      -2.347  10.398  17.714  0.00  0.00    +0.000 A 
ATOM     23  C   UNL     1      -0.991  10.127  17.820  0.00  0.00    +0.000 A 
ENDBRANCH  17  18
ENDBRANCH  14  17
TORSDOF 3
ENDMDL
MODEL 8
REMARK VINA RESULT:      -7.6      5.300      7.545
REMARK  Name = 
REMARK  3 active torsions:
REMARK  status: ('A' for Active; 'I' for Inactive)
REMARK    1  A    between atoms: O_1  and  C_2
REMARK    2  A    between atoms: N_15  and  C_16
REMARK    3  A    between atoms: C_16  and  C_17
REMARK                            x       y       z     vdW  Elec       q    Type
REMARK                         _______ _______ _______ _____ _____    ______ ____
ROOT
ATOM      1  C   UNL     1       2.145   8.294  18.384  0.00  0.00    +0.000 A 
ATOM      2  C   UNL     1       2.379   7.035  18.776  0.00  0.00    +0.000 A 
ATOM      3  N   UNL     1       2.991   6.014  18.086  0.00  0.00    +0.000 NA
ATOM      4  C   UNL     1       2.952   5.032  18.940  0.00  0.00    +0.000 A 
ATOM      5  C   UNL     1       3.464   3.657  18.747  0.00  0.00    +0.000 A 
ATOM      6  C   UNL     1       3.327   2.773  19.753  0.00  0.00    +0.000 A 
ATOM      7  C   UNL     1       2.704   3.112  21.019  0.00  0.00    +0.000 A 
ATOM      8  F   UNL     1       2.632   2.144  21.955  0.00  0.00    +0.000 F 
ATOM      9  C   UNL     1       2.210   4.332  21.274  0.00  0.00    +0.000 A 
ATOM     10  C   UNL     1       2.314   5.320  20.248  0.00  0.00    +0.000 A 
ATOM     11  C   UNL     1       1.963   6.593  20.094  0.00  0.00    +0.000 A 
ATOM     12  N   UNL     1       1.314   7.442  20.959  0.00  0.00    +0.000 NA
ATOM     13  C   UNL     1       1.131   8.648  20.500  0.00  0.00    +0.000 A 
ATOM     14  N   UNL     1       1.501   9.163  19.260  0.00  0.00    +0.000 N 
ENDROOT
BRANCH   1  15
ATOM     15  O   UNL     1       2.529   8.734  17.134  0.00  0.00    +0.000 OA
ATOM     16  H   UNL     1       1.697   8.743  16.616  0.00  0.00    +0.000 HD
ENDBRANCH   1  15
BRANCH  14  17
ATOM     17  C   UNL     1       1.254  10.565  18.930  0.00  0.00    +0.000 C 
BRANCH  17  18
ATOM     18  C   UNL     1      -0.225  10.847  18.794  0.00  0.00    +0.000 A 
ATOM     19  C   UNL     1      -0.998  10.158  17.853  0.00  0.00    +0.000 A 
ATOM     20  C   UNL     1      -2.343  10.468  17.737  0.00  0.00    +0.000 A 
ATOM     21  N   UNL     1      -2.966  11.401  18.487  0.00  0.00    +0.000 NA
ATOM     22  C   UNL     1      -2.205  12.058  19.388  0.00  0.00    +0.000 A 
ATOM     23  C   UNL     1      -0.852  11.823  19.577  0.00  0.00    +0.000 A 
ENDBRANCH  17  18
ENDBRANCH  14  17
TORSDOF 3
ENDMDL
MODEL 9
REMARK VINA RESULT:      -7.5      5.340      8.724
REMARK  Name = 
REMARK  3 active torsions:
REMARK  status: ('A' for Active; 'I' for Inactive)
REMARK    1  A    between atoms: O_1  and  C_2
REMARK    2  A    between atoms: N_15  and  C_16
REMARK    3  A    between atoms: C_16  and  C_17
REMARK                            x       y       z     vdW  Elec       q    Type
REMARK                         _______ _______ _______ _____ _____    ______ ____
ROOT
ATOM      1  C   UNL     1       2.430   7.981  18.262  0.00  0.00    +0.000 A 
ATOM      2  C   UNL     1       1.691   8.734  19.088  0.00  0.00    +0.000 A 
ATOM      3  N   UNL     1       1.223  10.014  18.903  0.00  0.00    +0.000 NA
ATOM      4  C   UNL     1       0.568  10.237  20.007  0.00  0.00    +0.000 A 
ATOM      5  C   UNL     1      -0.154  11.473  20.385  0.00  0.00    +0.000 A 
ATOM      6  C   UNL     1      -0.773  11.515  21.579  0.00  0.00    +0.000 A 
ATOM      7  C   UNL     1      -0.766  10.402  22.510  0.00  0.00    +0.000 A 
ATOM      8  F   UNL     1      -1.429  10.559  23.673  0.00  0.00    +0.000 F 
ATOM      9  C   UNL     1      -0.131   9.250  22.247  0.00  0.00    +0.000 A 
ATOM     10  C   UNL     1       0.553   9.135  21.000  0.00  0.00    +0.000 A 
ATOM     11  C   UNL     1       1.279   8.212  20.377  0.00  0.00    +0.000 A 
ATOM     12  N   UNL     1       1.645   6.952  20.786  0.00  0.00    +0.000 NA
ATOM     13  C   UNL     1       2.358   6.286  19.922  0.00  0.00    +0.000 A 
ATOM     14  N   UNL     1       2.791   6.698  18.664  0.00  0.00    +0.000 N 
ENDROOT
BRANCH   1  15
ATOM     15  O   UNL     1       2.834   8.458  17.033  0.00  0.00    +0.000 OA
ATOM     16  H   UNL     1       3.098   7.654  16.537  0.00  0.00    +0.000 HD
ENDBRANCH   1  15
BRANCH  14  17
ATOM     17  C   UNL     1       3.552   5.795  17.803  0.00  0.00    +0.000 C 
BRANCH  17  18
ATOM     18  C   UNL     1       5.040   5.955  18.013  0.00  0.00    +0.000 A 
ATOM     19  C   UNL     1       5.679   5.331  19.090  0.00  0.00    +0.000 A 
ATOM     20  C   UNL     1       7.039   5.528  19.267  0.00  0.00    +0.000 A 
ATOM     21  N   UNL     1       7.799   6.290  18.453  0.00  0.00    +0.000 NA
ATOM     22  C   UNL     1       7.167   6.887  17.420  0.00  0.00    +0.000 A 
ATOM     23  C   UNL     1       5.811   6.754  17.161  0.00  0.00    +0.000 A 
ENDBRANCH  17  18
ENDBRANCH  14  17
TORSDOF 3
ENDMDL
