MODEL 1
REMARK VINA RESULT:      -8.2      0.000      0.000
REMARK  Name = 
REMARK  5 active torsions:
REMARK  status: ('A' for Active; 'I' for Inactive)
REMARK    1  A    between atoms: C_1  and  C_2
REMARK    2  A    between atoms: C_5  and  C_7
REMARK    3  A    between atoms: C_12  and  N_13
REMARK    4  A    between atoms: C_18  and  O_19
REMARK    5  A    between atoms: C_18  and  C_20
REMARK                            x       y       z     vdW  Elec       q    Type
REMARK                         _______ _______ _______ _____ _____    ______ ____
ROOT
ATOM      1  C   UNL     1       8.056   6.704  18.575  0.00  0.00    +0.000 C 
ATOM      2  C   UNL     1       6.944   5.840  18.092  0.00  0.00    +0.000 C 
ATOM      3  N   UNL     1       5.711   6.056  18.423  0.00  0.00    +0.000 NA
ATOM      4  N   UNL     1       4.949   5.176  17.687  0.00  0.00    +0.000 N 
ATOM      5  C   UNL     1       3.552   5.228  17.663  0.00  0.00    +0.000 C 
ATOM      6  O   UNL     1       2.901   4.505  16.911  0.00  0.00    +0.000 OA
ATOM      7  C   UNL     1       5.758   4.448  16.685  0.00  0.00    +0.000 C 
ATOM      8  C   UNL     1       7.172   4.635  17.246  0.00  0.00    +0.000 C 
ENDROOT
BRANCH   5   9
ATOM      9  C   UNL     1       2.861   6.235  18.546  0.00  0.00    +0.000 A 
ATOM     10  C   UNL     1       2.866   7.576  18.102  0.00  0.00    +0.000 A 
ATOM     11  C   UNL     1       2.233   8.595  18.813  0.00  0.00    +0.000 A 
ATOM     12  C   UNL     1       1.503   8.286  19.949  0.00  0.00    +0.000 A 
ATOM     13  C   UNL     1       1.413   6.959  20.369  0.00  0.00    +0.000 A 
ATOM     14  C   UNL     1       2.100   5.923  19.690  0.00  0.00    +0.000 A 
BRANCH  14  15
ATOM     15  N   UNL     1       2.026   4.628  20.278  0.00  0.00    +0.000 N 
ATOM     16  C   UNL     1       1.190   3.605  19.856  0.00  0.00    +0.000 A 
ATOM     17  C   UNL     1       1.268   2.557  20.745  0.00  0.00    +0.000 A 
ATOM     18  C   UNL     1       2.178   2.938  21.752  0.00  0.00    +0.000 A 
ATOM     19  C   UNL     1       2.640   4.199  21.437  0.00  0.00    +0.000 A 
ENDBRANCH  14  15
ENDBRANCH   5   9
BRANCH   7  20
ATOM     20  C   UNL     1       5.627   5.040  15.240  0.00  0.00    +0.000 C 
ATOM     21  F   UNL     1       6.811   5.117  14.590  0.00  0.00    +0.000 F 
ATOM     22  F   UNL     1       4.808   4.295  14.454  0.00  0.00    +0.000 F 
ATOM     23  F   UNL     1       5.103   6.290  15.267  0.00  0.00    +0.000 F 
ENDBRANCH   7  20
BRANCH   7  24
ATOM     24  O   UNL     1       5.439   3.053  16.759  0.00  0.00    +0.000 OA
ATOM     25  H   UNL     1       5.562   2.812  17.700  0.00  0.00    +0.000 HD
ENDBRANCH   7  24
TORSDOF 4
ENDMDL
MODEL 2
REMARK VINA RESULT:      -8.0      0.318      1.054
REMARK  Name = 
REMARK  5 active torsions:
REMARK  status: ('A' for Active; 'I' for Inactive)
REMARK    1  A    between atoms: C_1  and  C_2
REMARK    2  A    between atoms: C_5  and  C_7
REMARK    3  A    between atoms: C_12  and  N_13
REMARK    4  A    between atoms: C_18  and  O_19
REMARK    5  A    between atoms: C_18  and  C_20
REMARK                            x       y       z     vdW  Elec       q    Type
REMARK                         _______ _______ _______ _____ _____    ______ ____
ROOT
ATOM      1  C   UNL     1       8.002   6.472  18.786  0.00  0.00    +0.000 C 
ATOM      2  C   UNL     1       6.858   5.680  18.255  0.00  0.00    +0.000 C 
ATOM      3  N   UNL     1       5.631   5.951  18.568  0.00  0.00    +0.000 NA
ATOM      4  N   UNL     1       4.840   5.132  17.791  0.00  0.00    +0.000 N 
ATOM      5  C   UNL     1       3.449   5.258  17.741  0.00  0.00    +0.000 C 
ATOM      6  O   UNL     1       2.777   4.591  16.956  0.00  0.00    +0.000 OA
ATOM      7  C   UNL     1       5.632   4.393  16.784  0.00  0.00    +0.000 C 
ATOM      8  C   UNL     1       7.042   4.490  17.378  0.00  0.00    +0.000 C 
ENDROOT
BRANCH   5   9
ATOM      9  C   UNL     1       2.792   6.272  18.640  0.00  0.00    +0.000 A 
ATOM     10  C   UNL     1       2.763   7.606  18.175  0.00  0.00    +0.000 A 
ATOM     11  C   UNL     1       2.155   8.631  18.900  0.00  0.00    +0.000 A 
ATOM     12  C   UNL     1       1.484   8.335  20.074  0.00  0.00    +0.000 A 
ATOM     13  C   UNL     1       1.426   7.014  20.519  0.00  0.00    +0.000 A 
ATOM     14  C   UNL     1       2.089   5.973  19.824  0.00  0.00    +0.000 A 
BRANCH  14  15
ATOM     15  N   UNL     1       2.056   4.687  20.436  0.00  0.00    +0.000 N 
ATOM     16  C   UNL     1       3.158   4.017  20.946  0.00  0.00    +0.000 A 
ATOM     17  C   UNL     1       2.786   2.744  21.315  0.00  0.00    +0.000 A 
ATOM     18  C   UNL     1       1.412   2.616  21.025  0.00  0.00    +0.000 A 
ATOM     19  C   UNL     1       0.985   3.820  20.505  0.00  0.00    +0.000 A 
ENDBRANCH  14  15
ENDBRANCH   5   9
BRANCH   7  20
ATOM     20  C   UNL     1       5.563   5.032  15.355  0.00  0.00    +0.000 C 
ATOM     21  F   UNL     1       4.886   4.270  14.466  0.00  0.00    +0.000 F 
ATOM     22  F   UNL     1       4.948   6.243  15.365  0.00  0.00    +0.000 F 
ATOM     23  F   UNL     1       6.804   5.235  14.847  0.00  0.00    +0.000 F 
ENDBRANCH   7  20
BRANCH   7  24
ATOM     24  O   UNL     1       5.240   3.014  16.810  0.00  0.00    +0.000 OA
ATOM     25  H   UNL     1       5.892   2.552  16.242  0.00  0.00    +0.000 HD
ENDBRANCH   7  24
TORSDOF 4
ENDMDL
MODEL 3
REMARK VINA RESULT:      -7.6      1.318      3.311
REMARK  Name = 
REMARK  5 active torsions:
REMARK  status: ('A' for Active; 'I' for Inactive)
REMARK    1  A    between atoms: C_1  and  C_2
REMARK    2  A    between atoms: C_5  and  C_7
REMARK    3  A    between atoms: C_12  and  N_13
REMARK    4  A    between atoms: C_18  and  O_19
REMARK    5  A    between atoms: C_18  and  C_20
REMARK                            x       y       z     vdW  Elec       q    Type
REMARK                         _______ _______ _______ _____ _____    ______ ____
ROOT
ATOM      1  C   UNL     1       8.115   5.574  19.945  0.00  0.00    +0.000 C 
ATOM      2  C   UNL     1       7.208   4.962  18.936  0.00  0.00    +0.000 C 
ATOM      3  N   UNL     1       6.015   4.559  19.238  0.00  0.00    +0.000 NA
ATOM      4  N   UNL     1       5.414   4.197  18.052  0.00  0.00    +0.000 N 
ATOM      5  C   UNL     1       4.060   3.861  17.968  0.00  0.00    +0.000 C 
ATOM      6  O   UNL     1       3.522   3.651  16.881  0.00  0.00    +0.000 OA
ATOM      7  C   UNL     1       6.243   4.553  16.880  0.00  0.00    +0.000 C 
ATOM      8  C   UNL     1       7.624   4.717  17.526  0.00  0.00    +0.000 C 
ENDROOT
BRANCH   5   9
ATOM      9  C   UNL     1       3.256   3.813  19.241  0.00  0.00    +0.000 A 
ATOM     10  C   UNL     1       3.275   2.595  19.956  0.00  0.00    +0.000 A 
ATOM     11  C   UNL     1       2.598   2.433  21.165  0.00  0.00    +0.000 A 
ATOM     12  C   UNL     1       1.951   3.516  21.737  0.00  0.00    +0.000 A 
ATOM     13  C   UNL     1       1.982   4.754  21.095  0.00  0.00    +0.000 A 
ATOM     14  C   UNL     1       2.615   4.916  19.839  0.00  0.00    +0.000 A 
BRANCH  14  15
ATOM     15  N   UNL     1       2.482   6.196  19.228  0.00  0.00    +0.000 N 
ATOM     16  C   UNL     1       2.256   7.385  19.905  0.00  0.00    +0.000 A 
ATOM     17  C   UNL     1       2.025   8.391  18.995  0.00  0.00    +0.000 A 
ATOM     18  C   UNL     1       2.107   7.812  17.712  0.00  0.00    +0.000 A 
ATOM     19  C   UNL     1       2.403   6.475  17.879  0.00  0.00    +0.000 A 
ENDBRANCH  14  15
ENDBRANCH   5   9
BRANCH   7  20
ATOM     20  C   UNL     1       5.777   5.870  16.172  0.00  0.00    +0.000 C 
ATOM     21  F   UNL     1       4.844   5.657  15.217  0.00  0.00    +0.000 F 
ATOM     22  F   UNL     1       5.233   6.757  17.046  0.00  0.00    +0.000 F 
ATOM     23  F   UNL     1       6.819   6.504  15.580  0.00  0.00    +0.000 F 
ENDBRANCH   7  20
BRANCH   7  24
ATOM     24  O   UNL     1       6.304   3.424  15.998  0.00  0.00    +0.000 OA
ATOM     25  H   UNL     1       5.882   3.726  15.167  0.00  0.00    +0.000 HD
ENDBRANCH   7  24
TORSDOF 4
ENDMDL
MODEL 4
REMARK VINA RESULT:      -7.4      0.684      1.013
REMARK  Name = 
REMARK  5 active torsions:
REMARK  status: ('A' for Active; 'I' for Inactive)
REMARK    1  A    between atoms: C_1  and  C_2
REMARK    2  A    between atoms: C_5  and  C_7
REMARK    3  A    between atoms: C_12  and  N_13
REMARK    4  A    between atoms: C_18  and  O_19
REMARK    5  A    between atoms: C_18  and  C_20
REMARK                            x       y       z     vdW  Elec       q    Type
REMARK                         _______ _______ _______ _____ _____    ______ ____
ROOT
ATOM      1  C   UNL     1       7.866   8.056  17.637  0.00  0.00    +0.000 C 
ATOM      2  C   UNL     1       6.943   6.895  17.508  0.00  0.00    +0.000 C 
ATOM      3  N   UNL     1       5.723   6.936  17.939  0.00  0.00    +0.000 NA
ATOM      4  N   UNL     1       5.123   5.767  17.523  0.00  0.00    +0.000 N 
ATOM      5  C   UNL     1       3.753   5.532  17.669  0.00  0.00    +0.000 C 
ATOM      6  O   UNL     1       3.224   4.530  17.190  0.00  0.00    +0.000 OA
ATOM      7  C   UNL     1       5.994   4.992  16.613  0.00  0.00    +0.000 C 
ATOM      8  C   UNL     1       7.369   5.589  16.930  0.00  0.00    +0.000 C 
ENDROOT
BRANCH   5   9
ATOM      9  C   UNL     1       2.924   6.566  18.387  0.00  0.00    +0.000 A 
ATOM     10  C   UNL     1       2.942   7.873  17.853  0.00  0.00    +0.000 A 
ATOM     11  C   UNL     1       2.192   8.911  18.407  0.00  0.00    +0.000 A 
ATOM     12  C   UNL     1       1.336   8.649  19.464  0.00  0.00    +0.000 A 
ATOM     13  C   UNL     1       1.236   7.350  19.962  0.00  0.00    +0.000 A 
ATOM     14  C   UNL     1       2.035   6.300  19.448  0.00  0.00    +0.000 A 
BRANCH  14  15
ATOM     15  N   UNL     1       1.930   5.045  20.113  0.00  0.00    +0.000 N 
ATOM     16  C   UNL     1       2.850   4.543  21.022  0.00  0.00    +0.000 A 
ATOM     17  C   UNL     1       2.513   3.248  21.343  0.00  0.00    +0.000 A 
ATOM     18  C   UNL     1       1.350   2.932  20.611  0.00  0.00    +0.000 A 
ATOM     19  C   UNL     1       1.004   4.050  19.880  0.00  0.00    +0.000 A 
ENDBRANCH  14  15
ENDBRANCH   5   9
BRANCH   7  20
ATOM     20  C   UNL     1       5.621   5.171  15.102  0.00  0.00    +0.000 C 
ATOM     21  F   UNL     1       6.695   5.126  14.282  0.00  0.00    +0.000 F 
ATOM     22  F   UNL     1       4.769   4.207  14.667  0.00  0.00    +0.000 F 
ATOM     23  F   UNL     1       5.001   6.357  14.887  0.00  0.00    +0.000 F 
ENDBRANCH   7  20
BRANCH   7  24
ATOM     24  O   UNL     1       6.003   3.622  17.038  0.00  0.00    +0.000 OA
ATOM     25  H   UNL     1       6.928   3.445  17.309  0.00  0.00    +0.000 HD
ENDBRANCH   7  24
TORSDOF 4
ENDMDL
MODEL 5
REMARK VINA RESULT:      -7.3      2.860      5.842
REMARK  Name = 
REMARK  5 active torsions:
REMARK  status: ('A' for Active; 'I' for Inactive)
REMARK    1  A    between atoms: C_1  and  C_2
REMARK    2  A    between atoms: C_5  and  C_7
REMARK    3  A    between atoms: C_12  and  N_13
REMARK    4  A    between atoms: C_18  and  O_19
REMARK    5  A    between atoms: C_18  and  C_20
REMARK                            x       y       z     vdW  Elec       q    Type
REMARK                         _______ _______ _______ _____ _____    ______ ____
ROOT
ATOM      1  C   UNL     1       4.648   1.292  19.815  0.00  0.00    +0.000 C 
ATOM      2  C   UNL     1       4.296   2.700  19.485  0.00  0.00    +0.000 C 
ATOM      3  N   UNL     1       4.770   3.302  18.442  0.00  0.00    +0.000 NA
ATOM      4  N   UNL     1       4.125   4.517  18.365  0.00  0.00    +0.000 N 
ATOM      5  C   UNL     1       4.266   5.375  17.270  0.00  0.00    +0.000 C 
ATOM      6  O   UNL     1       3.593   6.400  17.174  0.00  0.00    +0.000 OA
ATOM      7  C   UNL     1       3.032   4.626  19.355  0.00  0.00    +0.000 C 
ATOM      8  C   UNL     1       3.424   3.536  20.359  0.00  0.00    +0.000 C 
ENDROOT
BRANCH   5   9
ATOM      9  C   UNL     1       5.228   4.985  16.178  0.00  0.00    +0.000 A 
ATOM     10  C   UNL     1       4.676   4.345  15.046  0.00  0.00    +0.000 A 
ATOM     11  C   UNL     1       5.456   3.964  13.954  0.00  0.00    +0.000 A 
ATOM     12  C   UNL     1       6.802   4.290  13.928  0.00  0.00    +0.000 A 
ATOM     13  C   UNL     1       7.361   4.993  14.996  0.00  0.00    +0.000 A 
ATOM     14  C   UNL     1       6.592   5.333  16.136  0.00  0.00    +0.000 A 
BRANCH  14  15
ATOM     15  N   UNL     1       7.299   5.947  17.210  0.00  0.00    +0.000 N 
ATOM     16  C   UNL     1       7.687   5.309  18.379  0.00  0.00    +0.000 A 
ATOM     17  C   UNL     1       8.204   6.236  19.255  0.00  0.00    +0.000 A 
ATOM     18  C   UNL     1       8.133   7.490  18.614  0.00  0.00    +0.000 A 
ATOM     19  C   UNL     1       7.592   7.286  17.361  0.00  0.00    +0.000 A 
ENDBRANCH  14  15
ENDBRANCH   5   9
BRANCH   7  20
ATOM     20  C   UNL     1       1.615   4.364  18.741  0.00  0.00    +0.000 C 
ATOM     21  F   UNL     1       1.147   5.410  18.023  0.00  0.00    +0.000 F 
ATOM     22  F   UNL     1       1.609   3.294  17.904  0.00  0.00    +0.000 F 
ATOM     23  F   UNL     1       0.702   4.101  19.709  0.00  0.00    +0.000 F 
ENDBRANCH   7  20
BRANCH   7  24
ATOM     24  O   UNL     1       3.138   5.892  20.021  0.00  0.00    +0.000 OA
ATOM     25  H   UNL     1       2.735   6.539  19.406  0.00  0.00    +0.000 HD
ENDBRANCH   7  24
TORSDOF 4
ENDMDL
MODEL 6
REMARK VINA RESULT:      -7.2      1.325      3.156
REMARK  Name = 
REMARK  5 active torsions:
REMARK  status: ('A' for Active; 'I' for Inactive)
REMARK    1  A    between atoms: C_1  and  C_2
REMARK    2  A    between atoms: C_5  and  C_7
REMARK    3  A    between atoms: C_12  and  N_13
REMARK    4  A    between atoms: C_18  and  O_19
REMARK    5  A    between atoms: C_18  and  C_20
REMARK                            x       y       z     vdW  Elec       q    Type
REMARK                         _______ _______ _______ _____ _____    ______ ____
ROOT
ATOM      1  C   UNL     1       8.043   5.714  19.705  0.00  0.00    +0.000 C 
ATOM      2  C   UNL     1       7.134   5.020  18.752  0.00  0.00    +0.000 C 
ATOM      3  N   UNL     1       5.981   4.556  19.115  0.00  0.00    +0.000 NA
ATOM      4  N   UNL     1       5.354   4.124  17.966  0.00  0.00    +0.000 N 
ATOM      5  C   UNL     1       4.021   3.706  17.949  0.00  0.00    +0.000 C 
ATOM      6  O   UNL     1       3.453   3.433  16.893  0.00  0.00    +0.000 OA
ATOM      7  C   UNL     1       6.112   4.495  16.751  0.00  0.00    +0.000 C 
ATOM      8  C   UNL     1       7.505   4.759  17.333  0.00  0.00    +0.000 C 
ENDROOT
BRANCH   5   9
ATOM      9  C   UNL     1       3.275   3.648  19.257  0.00  0.00    +0.000 A 
ATOM     10  C   UNL     1       3.428   2.470  20.021  0.00  0.00    +0.000 A 
ATOM     11  C   UNL     1       2.816   2.306  21.264  0.00  0.00    +0.000 A 
ATOM     12  C   UNL     1       2.099   3.354  21.817  0.00  0.00    +0.000 A 
ATOM     13  C   UNL     1       1.996   4.559  21.122  0.00  0.00    +0.000 A 
ATOM     14  C   UNL     1       2.563   4.718  19.834  0.00  0.00    +0.000 A 
BRANCH  14  15
ATOM     15  N   UNL     1       2.293   5.952  19.175  0.00  0.00    +0.000 N 
ATOM     16  C   UNL     1       1.662   6.081  17.947  0.00  0.00    +0.000 A 
ATOM     17  C   UNL     1       1.711   7.396  17.545  0.00  0.00    +0.000 A 
ATOM     18  C   UNL     1       2.395   8.108  18.552  0.00  0.00    +0.000 A 
ATOM     19  C   UNL     1       2.727   7.209  19.544  0.00  0.00    +0.000 A 
ENDBRANCH  14  15
ENDBRANCH   5   9
BRANCH   7  20
ATOM     20  C   UNL     1       5.538   5.761  16.029  0.00  0.00    +0.000 C 
ATOM     21  F   UNL     1       6.475   6.707  15.794  0.00  0.00    +0.000 F 
ATOM     22  F   UNL     1       4.989   5.460  14.824  0.00  0.00    +0.000 F 
ATOM     23  F   UNL     1       4.557   6.343  16.764  0.00  0.00    +0.000 F 
ENDBRANCH   7  20
BRANCH   7  24
ATOM     24  O   UNL     1       6.205   3.347  15.897  0.00  0.00    +0.000 OA
ATOM     25  H   UNL     1       6.642   2.659  16.440  0.00  0.00    +0.000 HD
ENDBRANCH   7  24
TORSDOF 4
ENDMDL
MODEL 7
REMARK VINA RESULT:      -7.2      2.880      5.908
REMARK  Name = 
REMARK  5 active torsions:
REMARK  status: ('A' for Active; 'I' for Inactive)
REMARK    1  A    between atoms: C_1  and  C_2
REMARK    2  A    between atoms: C_5  and  C_7
REMARK    3  A    between atoms: C_12  and  N_13
REMARK    4  A    between atoms: C_18  and  O_19
REMARK    5  A    between atoms: C_18  and  C_20
REMARK                            x       y       z     vdW  Elec       q    Type
REMARK                         _______ _______ _______ _____ _____    ______ ____
ROOT
ATOM      1  C   UNL     1       4.782   1.127  19.906  0.00  0.00    +0.000 C 
ATOM      2  C   UNL     1       4.354   2.523  19.616  0.00  0.00    +0.000 C 
ATOM      3  N   UNL     1       4.800   3.181  18.594  0.00  0.00    +0.000 NA
ATOM      4  N   UNL     1       4.089   4.360  18.549  0.00  0.00    +0.000 N 
ATOM      5  C   UNL     1       4.188   5.257  17.481  0.00  0.00    +0.000 C 
ATOM      6  O   UNL     1       3.460   6.246  17.411  0.00  0.00    +0.000 OA
ATOM      7  C   UNL     1       2.986   4.379  19.534  0.00  0.00    +0.000 C 
ATOM      8  C   UNL     1       3.431   3.282  20.507  0.00  0.00    +0.000 C 
ENDROOT
BRANCH   5   9
ATOM      9  C   UNL     1       5.176   4.955  16.385  0.00  0.00    +0.000 A 
ATOM     10  C   UNL     1       4.692   4.217  15.282  0.00  0.00    +0.000 A 
ATOM     11  C   UNL     1       5.500   3.901  14.189  0.00  0.00    +0.000 A 
ATOM     12  C   UNL     1       6.795   4.388  14.131  0.00  0.00    +0.000 A 
ATOM     13  C   UNL     1       7.277   5.186  15.168  0.00  0.00    +0.000 A 
ATOM     14  C   UNL     1       6.487   5.466  16.311  0.00  0.00    +0.000 A 
BRANCH  14  15
ATOM     15  N   UNL     1       7.126   6.194  17.355  0.00  0.00    +0.000 N 
ATOM     16  C   UNL     1       7.461   7.539  17.301  0.00  0.00    +0.000 A 
ATOM     17  C   UNL     1       8.202   7.869  18.413  0.00  0.00    +0.000 A 
ATOM     18  C   UNL     1       8.335   6.695  19.181  0.00  0.00    +0.000 A 
ATOM     19  C   UNL     1       7.657   5.690  18.524  0.00  0.00    +0.000 A 
ENDBRANCH  14  15
ENDBRANCH   5   9
BRANCH   7  20
ATOM     20  C   UNL     1       1.589   4.058  18.902  0.00  0.00    +0.000 C 
ATOM     21  F   UNL     1       0.698   3.581  19.800  0.00  0.00    +0.000 F 
ATOM     22  F   UNL     1       1.016   5.153  18.340  0.00  0.00    +0.000 F 
ATOM     23  F   UNL     1       1.698   3.133  17.916  0.00  0.00    +0.000 F 
ENDBRANCH   7  20
BRANCH   7  24
ATOM     24  O   UNL     1       3.017   5.628  20.238  0.00  0.00    +0.000 OA
ATOM     25  H   UNL     1       2.729   5.415  21.150  0.00  0.00    +0.000 HD
ENDBRANCH   7  24
TORSDOF 4
ENDMDL
MODEL 8
REMARK VINA RESULT:      -7.2      2.558      5.773
REMARK  Name = 
REMARK  5 active torsions:
REMARK  status: ('A' for Active; 'I' for Inactive)
REMARK    1  A    between atoms: C_1  and  C_2
REMARK    2  A    between atoms: C_5  and  C_7
REMARK    3  A    between atoms: C_12  and  N_13
REMARK    4  A    between atoms: C_18  and  O_19
REMARK    5  A    between atoms: C_18  and  C_20
REMARK                            x       y       z     vdW  Elec       q    Type
REMARK                         _______ _______ _______ _____ _____    ______ ____
ROOT
ATOM      1  C   UNL     1       3.051   8.318  17.671  0.00  0.00    +0.000 C 
ATOM      2  C   UNL     1       3.066   6.829  17.704  0.00  0.00    +0.000 C 
ATOM      3  N   UNL     1       3.837   6.131  16.932  0.00  0.00    +0.000 NA
ATOM      4  N   UNL     1       3.704   4.819  17.332  0.00  0.00    +0.000 N 
ATOM      5  C   UNL     1       4.512   3.795  16.828  0.00  0.00    +0.000 C 
ATOM      6  O   UNL     1       4.449   2.654  17.283  0.00  0.00    +0.000 OA
ATOM      7  C   UNL     1       2.901   4.696  18.568  0.00  0.00    +0.000 C 
ATOM      8  C   UNL     1       2.157   6.036  18.579  0.00  0.00    +0.000 C 
ENDROOT
BRANCH   5   9
ATOM      9  C   UNL     1       5.503   4.135  15.746  0.00  0.00    +0.000 A 
ATOM     10  C   UNL     1       5.179   3.718  14.436  0.00  0.00    +0.000 A 
ATOM     11  C   UNL     1       5.998   4.000  13.343  0.00  0.00    +0.000 A 
ATOM     12  C   UNL     1       7.127   4.783  13.518  0.00  0.00    +0.000 A 
ATOM     13  C   UNL     1       7.432   5.277  14.786  0.00  0.00    +0.000 A 
ATOM     14  C   UNL     1       6.641   4.949  15.915  0.00  0.00    +0.000 A 
BRANCH  14  15
ATOM     15  N   UNL     1       7.116   5.417  17.174  0.00  0.00    +0.000 N 
ATOM     16  C   UNL     1       7.292   6.749  17.516  0.00  0.00    +0.000 A 
ATOM     17  C   UNL     1       7.910   6.826  18.744  0.00  0.00    +0.000 A 
ATOM     18  C   UNL     1       8.127   5.503  19.178  0.00  0.00    +0.000 A 
ATOM     19  C   UNL     1       7.619   4.660  18.211  0.00  0.00    +0.000 A 
ENDBRANCH  14  15
ENDBRANCH   5   9
BRANCH   7  20
ATOM     20  C   UNL     1       3.774   4.510  19.854  0.00  0.00    +0.000 C 
ATOM     21  F   UNL     1       4.176   3.232  20.042  0.00  0.00    +0.000 F 
ATOM     22  F   UNL     1       4.904   5.263  19.821  0.00  0.00    +0.000 F 
ATOM     23  F   UNL     1       3.095   4.884  20.967  0.00  0.00    +0.000 F 
ENDBRANCH   7  20
BRANCH   7  24
ATOM     24  O   UNL     1       1.929   3.658  18.384  0.00  0.00    +0.000 OA
ATOM     25  H   UNL     1       1.060   4.106  18.450  0.00  0.00    +0.000 HD
ENDBRANCH   7  24
TORSDOF 4
ENDMDL
MODEL 9
REMARK VINA RESULT:      -6.4      2.944      6.013
REMARK  Name = 
REMARK  5 active torsions:
REMARK  status: ('A' for Active; 'I' for Inactive)
REMARK    1  A    between atoms: C_1  and  C_2
REMARK    2  A    between atoms: C_5  and  C_7
REMARK    3  A    between atoms: C_12  and  N_13
REMARK    4  A    between atoms: C_18  and  O_19
REMARK    5  A    between atoms: C_18  and  C_20
REMARK                            x       y       z     vdW  Elec       q    Type
REMARK                         _______ _______ _______ _____ _____    ______ ____
ROOT
ATOM      1  C   UNL     1       1.665   6.928  20.992  0.00  0.00    +0.000 C 
ATOM      2  C   UNL     1       1.963   5.815  20.049  0.00  0.00    +0.000 C 
ATOM      3  N   UNL     1       3.130   5.665  19.507  0.00  0.00    +0.000 NA
ATOM      4  N   UNL     1       3.093   4.469  18.826  0.00  0.00    +0.000 N 
ATOM      5  C   UNL     1       4.231   3.898  18.247  0.00  0.00    +0.000 C 
ATOM      6  O   UNL     1       4.194   2.777  17.742  0.00  0.00    +0.000 OA
ATOM      7  C   UNL     1       1.846   3.719  19.091  0.00  0.00    +0.000 C 
ATOM      8  C   UNL     1       0.931   4.832  19.615  0.00  0.00    +0.000 C 
ENDROOT
BRANCH   5   9
ATOM      9  C   UNL     1       5.523   4.670  18.303  0.00  0.00    +0.000 A 
ATOM     10  C   UNL     1       6.003   5.010  19.588  0.00  0.00    +0.000 A 
ATOM     11  C   UNL     1       7.203   5.695  19.775  0.00  0.00    +0.000 A 
ATOM     12  C   UNL     1       8.002   5.987  18.681  0.00  0.00    +0.000 A 
ATOM     13  C   UNL     1       7.594   5.594  17.407  0.00  0.00    +0.000 A 
ATOM     14  C   UNL     1       6.350   4.950  17.197  0.00  0.00    +0.000 A 
BRANCH  14  15
ATOM     15  N   UNL     1       5.991   4.701  15.842  0.00  0.00    +0.000 N 
ATOM     16  C   UNL     1       6.394   3.602  15.097  0.00  0.00    +0.000 A 
ATOM     17  C   UNL     1       5.993   3.765  13.790  0.00  0.00    +0.000 A 
ATOM     18  C   UNL     1       5.323   5.003  13.718  0.00  0.00    +0.000 A 
ATOM     19  C   UNL     1       5.319   5.548  14.985  0.00  0.00    +0.000 A 
ENDBRANCH  14  15
ENDBRANCH   5   9
BRANCH   7  20
ATOM     20  C   UNL     1       2.027   2.575  20.146  0.00  0.00    +0.000 C 
ATOM     21  F   UNL     1       1.062   2.571  21.093  0.00  0.00    +0.000 F 
ATOM     22  F   UNL     1       2.006   1.343  19.575  0.00  0.00    +0.000 F 
ATOM     23  F   UNL     1       3.217   2.683  20.787  0.00  0.00    +0.000 F 
ENDBRANCH   7  20
BRANCH   7  24
ATOM     24  O   UNL     1       1.308   3.262  17.843  0.00  0.00    +0.000 OA
ATOM     25  H   UNL     1       2.058   2.829  17.384  0.00  0.00    +0.000 HD
ENDBRANCH   7  24
TORSDOF 4
ENDMDL
