MODEL 1
REMARK VINA RESULT:      -6.8      0.000      0.000
REMARK  Name = 
REMARK  14 active torsions:
REMARK  status: ('A' for Active; 'I' for Inactive)
REMARK    1  A    between atoms: C_1  and  C_2
REMARK    2  A    between atoms: C_2  and  C_3
REMARK    3  A    between atoms: C_2  and  C_4
REMARK    4  A    between atoms: C_2  and  C_5
REMARK    5  A    between atoms: C_7  and  C_8
REMARK    6  A    between atoms: C_8  and  N_9
REMARK    7  A    between atoms: N_12  and  C_13
REMARK    8  A    between atoms: C_13  and  C_14
REMARK    9  A    between atoms: C_14  and  C_15
REMARK   10  A    between atoms: C_20  and  C_21
REMARK   11  A    between atoms: C_21  and  C_22
REMARK   12  A    between atoms: C_21  and  C_23
REMARK   13  A    between atoms: C_21  and  C_24
REMARK   14  A    between atoms: C_25  and  O_26
REMARK                            x       y       z     vdW  Elec       q    Type
REMARK                         _______ _______ _______ _____ _____    ______ ____
ROOT
ATOM      1  C   UNL     1       4.614   5.755  17.556  0.00  0.00    +0.000 A 
ATOM      2  C   UNL     1       3.985   7.002  17.804  0.00  0.00    +0.000 A 
ATOM      3  C   UNL     1       2.775   7.104  18.486  0.00  0.00    +0.000 A 
ATOM      4  C   UNL     1       2.218   5.915  19.011  0.00  0.00    +0.000 A 
ATOM      5  C   UNL     1       2.810   4.639  18.849  0.00  0.00    +0.000 A 
ATOM      6  C   UNL     1       3.972   4.595  18.049  0.00  0.00    +0.000 A 
ENDROOT
BRANCH   1   8
ATOM      7  C   UNL     1       6.625   7.158  17.049  0.00  0.00    +0.000 C 
ATOM      8  C   UNL     1       5.976   5.771  16.819  0.00  0.00    +0.000 C 
ATOM      9  C   UNL     1       5.743   5.537  15.308  0.00  0.00    +0.000 C 
ATOM     10  C   UNL     1       7.028   4.730  17.262  0.00  0.00    +0.000 C 
ENDBRANCH   1   8
BRANCH   5  11
ATOM     11  C   UNL     1       2.154   3.387  19.499  0.00  0.00    +0.000 C 
ATOM     12  C   UNL     1       1.609   2.475  18.385  0.00  0.00    +0.000 C 
ATOM     13  C   UNL     1       3.095   2.557  20.415  0.00  0.00    +0.000 C 
ATOM     14  C   UNL     1       0.964   3.759  20.422  0.00  0.00    +0.000 C 
ENDBRANCH   5  11
BRANCH   6  15
ATOM     15  O   UNL     1       4.460   3.371  17.698  0.00  0.00    +0.000 OA
ATOM     16  H   UNL     1       3.951   3.097  16.919  0.00  0.00    +0.000 HD
ENDBRANCH   6  15
BRANCH   3  17
ATOM     17  C   UNL     1       2.107   8.432  18.822  0.00  0.00    +0.000 C 
BRANCH  17  18
ATOM     18  N   UNL     1       1.635   9.303  17.716  0.00  0.00    +0.000 NA
ATOM     19  C   UNL     1       0.168   9.422  17.649  0.00  0.00    +0.000 C 
ATOM     20  C   UNL     1      -0.504  10.084  18.873  0.00  0.00    +0.000 C 
ATOM     21  N   UNL     1       0.175  11.228  19.514  0.00  0.00    +0.000 NA
ATOM     22  C   UNL     1       1.609  11.371  19.208  0.00  0.00    +0.000 C 
ATOM     23  C   UNL     1       2.127  10.689  17.921  0.00  0.00    +0.000 C 
BRANCH  21  24
ATOM     24  C   UNL     1      -0.558  12.492  19.406  0.00  0.00    +0.000 C 
BRANCH  24  25
ATOM     25  C   UNL     1      -1.635  12.652  20.480  0.00  0.00    +0.000 C 
BRANCH  25  26
ATOM     26  C   UNL     1      -1.070  12.332  21.784  0.00  0.00    +0.000 C 
ATOM     27  N   UNL     1      -0.594  12.106  22.815  0.00  0.00    +0.000 NA
ENDBRANCH  25  26
ENDBRANCH  24  25
ENDBRANCH  21  24
ENDBRANCH  17  18
ENDBRANCH   3  17
TORSDOF 8
ENDMDL
MODEL 2
REMARK VINA RESULT:      -6.7      1.065      1.629
REMARK  Name = 
REMARK  14 active torsions:
REMARK  status: ('A' for Active; 'I' for Inactive)
REMARK    1  A    between atoms: C_1  and  C_2
REMARK    2  A    between atoms: C_2  and  C_3
REMARK    3  A    between atoms: C_2  and  C_4
REMARK    4  A    between atoms: C_2  and  C_5
REMARK    5  A    between atoms: C_7  and  C_8
REMARK    6  A    between atoms: C_8  and  N_9
REMARK    7  A    between atoms: N_12  and  C_13
REMARK    8  A    between atoms: C_13  and  C_14
REMARK    9  A    between atoms: C_14  and  C_15
REMARK   10  A    between atoms: C_20  and  C_21
REMARK   11  A    between atoms: C_21  and  C_22
REMARK   12  A    between atoms: C_21  and  C_23
REMARK   13  A    between atoms: C_21  and  C_24
REMARK   14  A    between atoms: C_25  and  O_26
REMARK                            x       y       z     vdW  Elec       q    Type
REMARK                         _______ _______ _______ _____ _____    ______ ____
ROOT
ATOM      1  C   UNL     1       4.495   5.820  17.574  0.00  0.00    +0.000 A 
ATOM      2  C   UNL     1       3.880   7.070  17.841  0.00  0.00    +0.000 A 
ATOM      3  C   UNL     1       2.681   7.175  18.543  0.00  0.00    +0.000 A 
ATOM      4  C   UNL     1       2.124   5.987  19.068  0.00  0.00    +0.000 A 
ATOM      5  C   UNL     1       2.703   4.708  18.887  0.00  0.00    +0.000 A 
ATOM      6  C   UNL     1       3.852   4.661  18.069  0.00  0.00    +0.000 A 
ENDROOT
BRANCH   1   8
ATOM      7  C   UNL     1       6.535   7.190  17.091  0.00  0.00    +0.000 C 
ATOM      8  C   UNL     1       5.845   5.831  16.814  0.00  0.00    +0.000 C 
ATOM      9  C   UNL     1       5.581   5.668  15.300  0.00  0.00    +0.000 C 
ATOM     10  C   UNL     1       6.875   4.745  17.195  0.00  0.00    +0.000 C 
ENDBRANCH   1   8
BRANCH   5  11
ATOM     11  C   UNL     1       2.049   3.457  19.539  0.00  0.00    +0.000 C 
ATOM     12  C   UNL     1       0.896   3.915  20.450  0.00  0.00    +0.000 C 
ATOM     13  C   UNL     1       1.508   2.402  18.535  0.00  0.00    +0.000 C 
ATOM     14  C   UNL     1       3.049   2.661  20.418  0.00  0.00    +0.000 C 
ENDBRANCH   5  11
BRANCH   6  15
ATOM     15  O   UNL     1       4.324   3.436  17.701  0.00  0.00    +0.000 OA
ATOM     16  H   UNL     1       5.213   3.369  18.084  0.00  0.00    +0.000 HD
ENDBRANCH   6  15
BRANCH   3  17
ATOM     17  C   UNL     1       2.030   8.507  18.900  0.00  0.00    +0.000 C 
BRANCH  17  18
ATOM     18  N   UNL     1       1.526   9.380  17.810  0.00  0.00    +0.000 NA
ATOM     19  C   UNL     1       0.057   9.459  17.751  0.00  0.00    +0.000 C 
ATOM     20  C   UNL     1      -0.626  10.084  18.989  0.00  0.00    +0.000 C 
ATOM     21  N   UNL     1       0.024  11.237  19.642  0.00  0.00    +0.000 NA
ATOM     22  C   UNL     1       1.452  11.424  19.331  0.00  0.00    +0.000 C 
ATOM     23  C   UNL     1       1.982  10.775  18.031  0.00  0.00    +0.000 C 
BRANCH  21  24
ATOM     24  C   UNL     1      -0.744  12.482  19.557  0.00  0.00    +0.000 C 
BRANCH  24  25
ATOM     25  C   UNL     1      -0.358  13.340  18.351  0.00  0.00    +0.000 C 
BRANCH  25  26
ATOM     26  C   UNL     1      -0.235  14.731  18.766  0.00  0.00    +0.000 C 
ATOM     27  N   UNL     1      -0.174  15.833  19.113  0.00  0.00    +0.000 NA
ENDBRANCH  25  26
ENDBRANCH  24  25
ENDBRANCH  21  24
ENDBRANCH  17  18
ENDBRANCH   3  17
TORSDOF 8
ENDMDL
MODEL 3
REMARK VINA RESULT:      -6.7      0.839      1.252
REMARK  Name = 
REMARK  14 active torsions:
REMARK  status: ('A' for Active; 'I' for Inactive)
REMARK    1  A    between atoms: C_1  and  C_2
REMARK    2  A    between atoms: C_2  and  C_3
REMARK    3  A    between atoms: C_2  and  C_4
REMARK    4  A    between atoms: C_2  and  C_5
REMARK    5  A    between atoms: C_7  and  C_8
REMARK    6  A    between atoms: C_8  and  N_9
REMARK    7  A    between atoms: N_12  and  C_13
REMARK    8  A    between atoms: C_13  and  C_14
REMARK    9  A    between atoms: C_14  and  C_15
REMARK   10  A    between atoms: C_20  and  C_21
REMARK   11  A    between atoms: C_21  and  C_22
REMARK   12  A    between atoms: C_21  and  C_23
REMARK   13  A    between atoms: C_21  and  C_24
REMARK   14  A    between atoms: C_25  and  O_26
REMARK                            x       y       z     vdW  Elec       q    Type
REMARK                         _______ _______ _______ _____ _____    ______ ____
ROOT
ATOM      1  C   UNL     1       4.509   5.736  17.523  0.00  0.00    +0.000 A 
ATOM      2  C   UNL     1       3.914   6.993  17.801  0.00  0.00    +0.000 A 
ATOM      3  C   UNL     1       2.724   7.112  18.515  0.00  0.00    +0.000 A 
ATOM      4  C   UNL     1       2.155   5.929  19.040  0.00  0.00    +0.000 A 
ATOM      5  C   UNL     1       2.714   4.643  18.848  0.00  0.00    +0.000 A 
ATOM      6  C   UNL     1       3.854   4.584  18.018  0.00  0.00    +0.000 A 
ENDROOT
BRANCH   1   8
ATOM      7  C   UNL     1       6.560   7.082  17.021  0.00  0.00    +0.000 C 
ATOM      8  C   UNL     1       5.851   5.731  16.750  0.00  0.00    +0.000 C 
ATOM      9  C   UNL     1       5.571   5.573  15.238  0.00  0.00    +0.000 C 
ATOM     10  C   UNL     1       6.872   4.633  17.120  0.00  0.00    +0.000 C 
ENDBRANCH   1   8
BRANCH   5  11
ATOM     11  C   UNL     1       2.049   3.398  19.501  0.00  0.00    +0.000 C 
ATOM     12  C   UNL     1       0.922   3.869  20.437  0.00  0.00    +0.000 C 
ATOM     13  C   UNL     1       1.470   2.363  18.497  0.00  0.00    +0.000 C 
ATOM     14  C   UNL     1       3.050   2.574  20.353  0.00  0.00    +0.000 C 
ENDBRANCH   5  11
BRANCH   6  15
ATOM     15  O   UNL     1       4.306   3.354  17.640  0.00  0.00    +0.000 OA
ATOM     16  H   UNL     1       4.651   2.939  18.447  0.00  0.00    +0.000 HD
ENDBRANCH   6  15
BRANCH   3  17
ATOM     17  C   UNL     1       2.094   8.450  18.885  0.00  0.00    +0.000 C 
BRANCH  17  18
ATOM     18  N   UNL     1       1.527   9.303  17.809  0.00  0.00    +0.000 NA
ATOM     19  C   UNL     1       0.058   9.397  17.848  0.00  0.00    +0.000 C 
ATOM     20  C   UNL     1      -0.534  10.059  19.113  0.00  0.00    +0.000 C 
ATOM     21  N   UNL     1       0.171  11.221  19.693  0.00  0.00    +0.000 NA
ATOM     22  C   UNL     1       1.576  11.384  19.281  0.00  0.00    +0.000 C 
ATOM     23  C   UNL     1       2.010  10.698  17.965  0.00  0.00    +0.000 C 
BRANCH  21  24
ATOM     24  C   UNL     1      -0.590  12.472  19.628  0.00  0.00    +0.000 C 
BRANCH  24  25
ATOM     25  C   UNL     1      -2.045  12.265  19.207  0.00  0.00    +0.000 C 
BRANCH  25  26
ATOM     26  C   UNL     1      -2.928  12.800  20.236  0.00  0.00    +0.000 C 
ATOM     27  N   UNL     1      -3.646  13.189  21.056  0.00  0.00    +0.000 NA
ENDBRANCH  25  26
ENDBRANCH  24  25
ENDBRANCH  21  24
ENDBRANCH  17  18
ENDBRANCH   3  17
TORSDOF 8
ENDMDL
MODEL 4
REMARK VINA RESULT:      -6.7      0.723      1.115
REMARK  Name = 
REMARK  14 active torsions:
REMARK  status: ('A' for Active; 'I' for Inactive)
REMARK    1  A    between atoms: C_1  and  C_2
REMARK    2  A    between atoms: C_2  and  C_3
REMARK    3  A    between atoms: C_2  and  C_4
REMARK    4  A    between atoms: C_2  and  C_5
REMARK    5  A    between atoms: C_7  and  C_8
REMARK    6  A    between atoms: C_8  and  N_9
REMARK    7  A    between atoms: N_12  and  C_13
REMARK    8  A    between atoms: C_13  and  C_14
REMARK    9  A    between atoms: C_14  and  C_15
REMARK   10  A    between atoms: C_20  and  C_21
REMARK   11  A    between atoms: C_21  and  C_22
REMARK   12  A    between atoms: C_21  and  C_23
REMARK   13  A    between atoms: C_21  and  C_24
REMARK   14  A    between atoms: C_25  and  O_26
REMARK                            x       y       z     vdW  Elec       q    Type
REMARK                         _______ _______ _______ _____ _____    ______ ____
ROOT
ATOM      1  C   UNL     1       4.530   5.736  17.545  0.00  0.00    +0.000 A 
ATOM      2  C   UNL     1       3.891   6.974  17.812  0.00  0.00    +0.000 A 
ATOM      3  C   UNL     1       2.699   7.057  18.528  0.00  0.00    +0.000 A 
ATOM      4  C   UNL     1       2.174   5.861  19.066  0.00  0.00    +0.000 A 
ATOM      5  C   UNL     1       2.779   4.593  18.886  0.00  0.00    +0.000 A 
ATOM      6  C   UNL     1       3.918   4.567  18.054  0.00  0.00    +0.000 A 
ENDROOT
BRANCH   1   8
ATOM      7  C   UNL     1       6.536   7.146  17.034  0.00  0.00    +0.000 C 
ATOM      8  C   UNL     1       5.870   5.773  16.769  0.00  0.00    +0.000 C 
ATOM      9  C   UNL     1       5.592   5.600  15.258  0.00  0.00    +0.000 C 
ATOM     10  C   UNL     1       6.927   4.708  17.140  0.00  0.00    +0.000 C 
ENDBRANCH   1   8
BRANCH   5  11
ATOM     11  C   UNL     1       2.160   3.332  19.552  0.00  0.00    +0.000 C 
ATOM     12  C   UNL     1       3.241   2.634  20.398  0.00  0.00    +0.000 C 
ATOM     13  C   UNL     1       0.920   3.605  20.447  0.00  0.00    +0.000 C 
ATOM     14  C   UNL     1       1.650   2.304  18.507  0.00  0.00    +0.000 C 
ENDBRANCH   5  11
BRANCH   6  15
ATOM     15  O   UNL     1       4.413   3.350  17.687  0.00  0.00    +0.000 OA
ATOM     16  H   UNL     1       5.331   3.508  17.416  0.00  0.00    +0.000 HD
ENDBRANCH   6  15
BRANCH   3  17
ATOM     17  C   UNL     1       2.022   8.376  18.886  0.00  0.00    +0.000 C 
BRANCH  17  18
ATOM     18  N   UNL     1       1.531   9.255  17.794  0.00  0.00    +0.000 NA
ATOM     19  C   UNL     1       0.072   9.460  17.817  0.00  0.00    +0.000 C 
ATOM     20  C   UNL     1      -0.480  10.181  19.068  0.00  0.00    +0.000 C 
ATOM     21  N   UNL     1       0.305  11.294  19.640  0.00  0.00    +0.000 NA
ATOM     22  C   UNL     1       1.723  11.345  19.241  0.00  0.00    +0.000 C 
ATOM     23  C   UNL     1       2.116  10.611  17.938  0.00  0.00    +0.000 C 
BRANCH  21  24
ATOM     24  C   UNL     1      -0.358  12.597  19.553  0.00  0.00    +0.000 C 
BRANCH  24  25
ATOM     25  C   UNL     1      -0.841  13.114  20.909  0.00  0.00    +0.000 C 
BRANCH  25  26
ATOM     26  C   UNL     1       0.263  13.763  21.602  0.00  0.00    +0.000 C 
ATOM     27  N   UNL     1       1.118  14.313  22.154  0.00  0.00    +0.000 NA
ENDBRANCH  25  26
ENDBRANCH  24  25
ENDBRANCH  21  24
ENDBRANCH  17  18
ENDBRANCH   3  17
TORSDOF 8
ENDMDL
MODEL 5
REMARK VINA RESULT:      -6.6      1.237      3.832
REMARK  Name = 
REMARK  14 active torsions:
REMARK  status: ('A' for Active; 'I' for Inactive)
REMARK    1  A    between atoms: C_1  and  C_2
REMARK    2  A    between atoms: C_2  and  C_3
REMARK    3  A    between atoms: C_2  and  C_4
REMARK    4  A    between atoms: C_2  and  C_5
REMARK    5  A    between atoms: C_7  and  C_8
REMARK    6  A    between atoms: C_8  and  N_9
REMARK    7  A    between atoms: N_12  and  C_13
REMARK    8  A    between atoms: C_13  and  C_14
REMARK    9  A    between atoms: C_14  and  C_15
REMARK   10  A    between atoms: C_20  and  C_21
REMARK   11  A    between atoms: C_21  and  C_22
REMARK   12  A    between atoms: C_21  and  C_23
REMARK   13  A    between atoms: C_21  and  C_24
REMARK   14  A    between atoms: C_25  and  O_26
REMARK                            x       y       z     vdW  Elec       q    Type
REMARK                         _______ _______ _______ _____ _____    ______ ____
ROOT
ATOM      1  C   UNL     1       3.163   4.183  18.959  0.00  0.00    +0.000 A 
ATOM      2  C   UNL     1       2.299   5.289  18.753  0.00  0.00    +0.000 A 
ATOM      3  C   UNL     1       2.772   6.545  18.381  0.00  0.00    +0.000 A 
ATOM      4  C   UNL     1       4.157   6.674  18.127  0.00  0.00    +0.000 A 
ATOM      5  C   UNL     1       5.077   5.607  18.263  0.00  0.00    +0.000 A 
ATOM      6  C   UNL     1       4.547   4.394  18.754  0.00  0.00    +0.000 A 
ENDROOT
BRANCH   1   8
ATOM      7  C   UNL     1       1.035   2.866  18.890  0.00  0.00    +0.000 C 
ATOM      8  C   UNL     1       2.518   2.827  19.336  0.00  0.00    +0.000 C 
ATOM      9  C   UNL     1       2.607   2.625  20.866  0.00  0.00    +0.000 C 
ATOM     10  C   UNL     1       3.122   1.558  18.695  0.00  0.00    +0.000 C 
ENDBRANCH   1   8
BRANCH   5  11
ATOM     11  C   UNL     1       6.578   5.822  17.918  0.00  0.00    +0.000 C 
ATOM     12  C   UNL     1       6.739   7.188  17.226  0.00  0.00    +0.000 C 
ATOM     13  C   UNL     1       7.546   5.755  19.131  0.00  0.00    +0.000 C 
ATOM     14  C   UNL     1       7.119   4.741  16.946  0.00  0.00    +0.000 C 
ENDBRANCH   5  11
BRANCH   6  15
ATOM     15  O   UNL     1       5.423   3.405  19.093  0.00  0.00    +0.000 OA
ATOM     16  H   UNL     1       4.963   2.859  19.750  0.00  0.00    +0.000 HD
ENDBRANCH   6  15
BRANCH   3  17
ATOM     17  C   UNL     1       1.864   7.735  18.091  0.00  0.00    +0.000 C 
BRANCH  17  18
ATOM     18  N   UNL     1       2.278   9.087  18.543  0.00  0.00    +0.000 NA
ATOM     19  C   UNL     1       1.512  10.177  17.915  0.00  0.00    +0.000 C 
ATOM     20  C   UNL     1      -0.001  10.195  18.229  0.00  0.00    +0.000 C 
ATOM     21  N   UNL     1      -0.439   9.847  19.596  0.00  0.00    +0.000 NA
ATOM     22  C   UNL     1       0.544   9.113  20.412  0.00  0.00    +0.000 C 
ATOM     23  C   UNL     1       2.030   9.228  20.000  0.00  0.00    +0.000 C 
BRANCH  21  24
ATOM     24  C   UNL     1      -1.066  10.955  20.320  0.00  0.00    +0.000 C 
BRANCH  24  25
ATOM     25  C   UNL     1      -0.552  11.098  21.754  0.00  0.00    +0.000 C 
BRANCH  25  26
ATOM     26  C   UNL     1      -1.627  11.586  22.608  0.00  0.00    +0.000 C 
ATOM     27  N   UNL     1      -2.460  11.961  23.318  0.00  0.00    +0.000 NA
ENDBRANCH  25  26
ENDBRANCH  24  25
ENDBRANCH  21  24
ENDBRANCH  17  18
ENDBRANCH   3  17
TORSDOF 8
ENDMDL
MODEL 6
REMARK VINA RESULT:      -6.6      1.521      2.041
REMARK  Name = 
REMARK  14 active torsions:
REMARK  status: ('A' for Active; 'I' for Inactive)
REMARK    1  A    between atoms: C_1  and  C_2
REMARK    2  A    between atoms: C_2  and  C_3
REMARK    3  A    between atoms: C_2  and  C_4
REMARK    4  A    between atoms: C_2  and  C_5
REMARK    5  A    between atoms: C_7  and  C_8
REMARK    6  A    between atoms: C_8  and  N_9
REMARK    7  A    between atoms: N_12  and  C_13
REMARK    8  A    between atoms: C_13  and  C_14
REMARK    9  A    between atoms: C_14  and  C_15
REMARK   10  A    between atoms: C_20  and  C_21
REMARK   11  A    between atoms: C_21  and  C_22
REMARK   12  A    between atoms: C_21  and  C_23
REMARK   13  A    between atoms: C_21  and  C_24
REMARK   14  A    between atoms: C_25  and  O_26
REMARK                            x       y       z     vdW  Elec       q    Type
REMARK                         _______ _______ _______ _____ _____    ______ ____
ROOT
ATOM      1  C   UNL     1       5.045   5.596  18.201  0.00  0.00    +0.000 A 
ATOM      2  C   UNL     1       4.212   6.722  17.976  0.00  0.00    +0.000 A 
ATOM      3  C   UNL     1       2.842   6.697  18.227  0.00  0.00    +0.000 A 
ATOM      4  C   UNL     1       2.303   5.524  18.803  0.00  0.00    +0.000 A 
ATOM      5  C   UNL     1       3.077   4.376  19.103  0.00  0.00    +0.000 A 
ATOM      6  C   UNL     1       4.433   4.429  18.716  0.00  0.00    +0.000 A 
ENDROOT
BRANCH   1   8
ATOM      7  C   UNL     1       6.786   7.162  17.314  0.00  0.00    +0.000 C 
ATOM      8  C   UNL     1       6.559   5.754  17.918  0.00  0.00    +0.000 C 
ATOM      9  C   UNL     1       7.009   4.667  16.915  0.00  0.00    +0.000 C 
ATOM     10  C   UNL     1       7.515   5.651  19.128  0.00  0.00    +0.000 C 
ENDBRANCH   1   8
BRANCH   5  11
ATOM     11  C   UNL     1       2.413   3.144  19.780  0.00  0.00    +0.000 C 
ATOM     12  C   UNL     1       2.295   2.010  18.745  0.00  0.00    +0.000 C 
ATOM     13  C   UNL     1       3.156   2.606  21.034  0.00  0.00    +0.000 C 
ATOM     14  C   UNL     1       0.983   3.455  20.296  0.00  0.00    +0.000 C 
ENDBRANCH   5  11
BRANCH   6  15
ATOM     15  O   UNL     1       5.165   3.281  18.797  0.00  0.00    +0.000 OA
ATOM     16  H   UNL     1       5.972   3.515  19.283  0.00  0.00    +0.000 HD
ENDBRANCH   6  15
BRANCH   3  17
ATOM     17  C   UNL     1       1.933   7.909  18.056  0.00  0.00    +0.000 C 
BRANCH  17  18
ATOM     18  N   UNL     1       2.260   9.164  18.780  0.00  0.00    +0.000 NA
ATOM     19  C   UNL     1       1.788  10.378  18.092  0.00  0.00    +0.000 C 
ATOM     20  C   UNL     1       0.256  10.502  17.933  0.00  0.00    +0.000 C 
ATOM     21  N   UNL     1      -0.604  10.056  19.048  0.00  0.00    +0.000 NA
ATOM     22  C   UNL     1       0.034   9.155  20.024  0.00  0.00    +0.000 C 
ATOM     23  C   UNL     1       1.578   9.176  20.099  0.00  0.00    +0.000 C 
BRANCH  21  24
ATOM     24  C   UNL     1      -1.364  11.136  19.682  0.00  0.00    +0.000 C 
BRANCH  24  25
ATOM     25  C   UNL     1      -2.178  11.960  18.684  0.00  0.00    +0.000 C 
BRANCH  25  26
ATOM     26  C   UNL     1      -3.278  11.154  18.173  0.00  0.00    +0.000 C 
ATOM     27  N   UNL     1      -4.131  10.480  17.775  0.00  0.00    +0.000 NA
ENDBRANCH  25  26
ENDBRANCH  24  25
ENDBRANCH  21  24
ENDBRANCH  17  18
ENDBRANCH   3  17
TORSDOF 8
ENDMDL
MODEL 7
REMARK VINA RESULT:      -6.6      1.057      1.614
REMARK  Name = 
REMARK  14 active torsions:
REMARK  status: ('A' for Active; 'I' for Inactive)
REMARK    1  A    between atoms: C_1  and  C_2
REMARK    2  A    between atoms: C_2  and  C_3
REMARK    3  A    between atoms: C_2  and  C_4
REMARK    4  A    between atoms: C_2  and  C_5
REMARK    5  A    between atoms: C_7  and  C_8
REMARK    6  A    between atoms: C_8  and  N_9
REMARK    7  A    between atoms: N_12  and  C_13
REMARK    8  A    between atoms: C_13  and  C_14
REMARK    9  A    between atoms: C_14  and  C_15
REMARK   10  A    between atoms: C_20  and  C_21
REMARK   11  A    between atoms: C_21  and  C_22
REMARK   12  A    between atoms: C_21  and  C_23
REMARK   13  A    between atoms: C_21  and  C_24
REMARK   14  A    between atoms: C_25  and  O_26
REMARK                            x       y       z     vdW  Elec       q    Type
REMARK                         _______ _______ _______ _____ _____    ______ ____
ROOT
ATOM      1  C   UNL     1       5.098   5.620  18.240  0.00  0.00    +0.000 A 
ATOM      2  C   UNL     1       4.272   6.745  17.986  0.00  0.00    +0.000 A 
ATOM      3  C   UNL     1       2.894   6.718  18.185  0.00  0.00    +0.000 A 
ATOM      4  C   UNL     1       2.336   5.542  18.737  0.00  0.00    +0.000 A 
ATOM      5  C   UNL     1       3.099   4.395  19.062  0.00  0.00    +0.000 A 
ATOM      6  C   UNL     1       4.469   4.450  18.728  0.00  0.00    +0.000 A 
ENDROOT
BRANCH   1   8
ATOM      7  C   UNL     1       7.075   4.687  17.017  0.00  0.00    +0.000 C 
ATOM      8  C   UNL     1       6.622   5.782  18.015  0.00  0.00    +0.000 C 
ATOM      9  C   UNL     1       7.359   5.609  19.363  0.00  0.00    +0.000 C 
ATOM     10  C   UNL     1       7.107   7.124  17.423  0.00  0.00    +0.000 C 
ENDBRANCH   1   8
BRANCH   5  11
ATOM     11  C   UNL     1       2.413   3.159  19.711  0.00  0.00    +0.000 C 
ATOM     12  C   UNL     1       2.320   2.035  18.663  0.00  0.00    +0.000 C 
ATOM     13  C   UNL     1       3.118   2.608  20.980  0.00  0.00    +0.000 C 
ATOM     14  C   UNL     1       0.970   3.471  20.188  0.00  0.00    +0.000 C 
ENDBRANCH   5  11
BRANCH   6  15
ATOM     15  O   UNL     1       5.200   3.304  18.834  0.00  0.00    +0.000 OA
ATOM     16  H   UNL     1       4.689   2.717  19.414  0.00  0.00    +0.000 HD
ENDBRANCH   6  15
BRANCH   3  17
ATOM     17  C   UNL     1       1.990   7.929  17.983  0.00  0.00    +0.000 C 
BRANCH  17  18
ATOM     18  N   UNL     1       2.339   9.209  18.649  0.00  0.00    +0.000 NA
ATOM     19  C   UNL     1       1.732  10.388  18.008  0.00  0.00    +0.000 C 
ATOM     20  C   UNL     1       0.188  10.438  18.032  0.00  0.00    +0.000 C 
ATOM     21  N   UNL     1      -0.512   9.972  19.246  0.00  0.00    +0.000 NA
ATOM     22  C   UNL     1       0.280   9.118  20.149  0.00  0.00    +0.000 C 
ATOM     23  C   UNL     1       1.819   9.211  20.039  0.00  0.00    +0.000 C 
BRANCH  21  24
ATOM     24  C   UNL     1      -1.242  11.025  19.955  0.00  0.00    +0.000 C 
BRANCH  24  25
ATOM     25  C   UNL     1      -0.321  12.076  20.577  0.00  0.00    +0.000 C 
BRANCH  25  26
ATOM     26  C   UNL     1      -0.586  12.167  22.007  0.00  0.00    +0.000 C 
ATOM     27  N   UNL     1      -0.800  12.199  23.144  0.00  0.00    +0.000 NA
ENDBRANCH  25  26
ENDBRANCH  24  25
ENDBRANCH  21  24
ENDBRANCH  17  18
ENDBRANCH   3  17
TORSDOF 8
ENDMDL
MODEL 8
REMARK VINA RESULT:      -6.5      1.022      3.776
REMARK  Name = 
REMARK  14 active torsions:
REMARK  status: ('A' for Active; 'I' for Inactive)
REMARK    1  A    between atoms: C_1  and  C_2
REMARK    2  A    between atoms: C_2  and  C_3
REMARK    3  A    between atoms: C_2  and  C_4
REMARK    4  A    between atoms: C_2  and  C_5
REMARK    5  A    between atoms: C_7  and  C_8
REMARK    6  A    between atoms: C_8  and  N_9
REMARK    7  A    between atoms: N_12  and  C_13
REMARK    8  A    between atoms: C_13  and  C_14
REMARK    9  A    between atoms: C_14  and  C_15
REMARK   10  A    between atoms: C_20  and  C_21
REMARK   11  A    between atoms: C_21  and  C_22
REMARK   12  A    between atoms: C_21  and  C_23
REMARK   13  A    between atoms: C_21  and  C_24
REMARK   14  A    between atoms: C_25  and  O_26
REMARK                            x       y       z     vdW  Elec       q    Type
REMARK                         _______ _______ _______ _____ _____    ______ ____
ROOT
ATOM      1  C   UNL     1       2.733   4.591  18.996  0.00  0.00    +0.000 A 
ATOM      2  C   UNL     1       2.170   5.857  19.305  0.00  0.00    +0.000 A 
ATOM      3  C   UNL     1       2.644   7.040  18.744  0.00  0.00    +0.000 A 
ATOM      4  C   UNL     1       3.667   6.940  17.774  0.00  0.00    +0.000 A 
ATOM      5  C   UNL     1       4.246   5.711  17.375  0.00  0.00    +0.000 A 
ATOM      6  C   UNL     1       3.800   4.566  18.068  0.00  0.00    +0.000 A 
ENDROOT
BRANCH   1   8
ATOM      7  C   UNL     1       0.852   3.805  20.452  0.00  0.00    +0.000 C 
ATOM      8  C   UNL     1       2.098   3.342  19.656  0.00  0.00    +0.000 C 
ATOM      9  C   UNL     1       3.125   2.689  20.610  0.00  0.00    +0.000 C 
ATOM     10  C   UNL     1       1.608   2.221  18.712  0.00  0.00    +0.000 C 
ENDBRANCH   1   8
BRANCH   5  11
ATOM     11  C   UNL     1       5.335   5.686  16.266  0.00  0.00    +0.000 C 
ATOM     12  C   UNL     1       6.718   5.851  16.921  0.00  0.00    +0.000 C 
ATOM     13  C   UNL     1       5.345   4.406  15.385  0.00  0.00    +0.000 C 
ATOM     14  C   UNL     1       5.162   6.842  15.245  0.00  0.00    +0.000 C 
ENDBRANCH   5  11
BRANCH   6  15
ATOM     15  O   UNL     1       4.469   3.395  17.864  0.00  0.00    +0.000 OA
ATOM     16  H   UNL     1       4.891   3.479  16.995  0.00  0.00    +0.000 HD
ENDBRANCH   6  15
BRANCH   3  17
ATOM     17  C   UNL     1       2.019   8.406  19.007  0.00  0.00    +0.000 C 
BRANCH  17  18
ATOM     18  N   UNL     1       1.540   9.214  17.857  0.00  0.00    +0.000 NA
ATOM     19  C   UNL     1       0.074   9.337  17.796  0.00  0.00    +0.000 C 
ATOM     20  C   UNL     1      -0.584  10.072  18.986  0.00  0.00    +0.000 C 
ATOM     21  N   UNL     1       0.107  11.247  19.554  0.00  0.00    +0.000 NA
ATOM     22  C   UNL     1       1.539  11.364  19.227  0.00  0.00    +0.000 C 
ATOM     23  C   UNL     1       2.042  10.606  17.977  0.00  0.00    +0.000 C 
BRANCH  21  24
ATOM     24  C   UNL     1      -0.620  12.507  19.380  0.00  0.00    +0.000 C 
BRANCH  24  25
ATOM     25  C   UNL     1      -1.537  12.836  20.559  0.00  0.00    +0.000 C 
BRANCH  25  26
ATOM     26  C   UNL     1      -2.927  12.699  20.145  0.00  0.00    +0.000 C 
ATOM     27  N   UNL     1      -4.033  12.555  19.836  0.00  0.00    +0.000 NA
ENDBRANCH  25  26
ENDBRANCH  24  25
ENDBRANCH  21  24
ENDBRANCH  17  18
ENDBRANCH   3  17
TORSDOF 8
ENDMDL
MODEL 9
REMARK VINA RESULT:      -6.5      1.211      3.889
REMARK  Name = 
REMARK  14 active torsions:
REMARK  status: ('A' for Active; 'I' for Inactive)
REMARK    1  A    between atoms: C_1  and  C_2
REMARK    2  A    between atoms: C_2  and  C_3
REMARK    3  A    between atoms: C_2  and  C_4
REMARK    4  A    between atoms: C_2  and  C_5
REMARK    5  A    between atoms: C_7  and  C_8
REMARK    6  A    between atoms: C_8  and  N_9
REMARK    7  A    between atoms: N_12  and  C_13
REMARK    8  A    between atoms: C_13  and  C_14
REMARK    9  A    between atoms: C_14  and  C_15
REMARK   10  A    between atoms: C_20  and  C_21
REMARK   11  A    between atoms: C_21  and  C_22
REMARK   12  A    between atoms: C_21  and  C_23
REMARK   13  A    between atoms: C_21  and  C_24
REMARK   14  A    between atoms: C_25  and  O_26
REMARK                            x       y       z     vdW  Elec       q    Type
REMARK                         _______ _______ _______ _____ _____    ______ ____
ROOT
ATOM      1  C   UNL     1       2.745   4.581  19.075  0.00  0.00    +0.000 A 
ATOM      2  C   UNL     1       2.163   5.849  19.334  0.00  0.00    +0.000 A 
ATOM      3  C   UNL     1       2.634   7.019  18.743  0.00  0.00    +0.000 A 
ATOM      4  C   UNL     1       3.674   6.900  17.794  0.00  0.00    +0.000 A 
ATOM      5  C   UNL     1       4.274   5.665  17.445  0.00  0.00    +0.000 A 
ATOM      6  C   UNL     1       3.828   4.537  18.166  0.00  0.00    +0.000 A 
ENDROOT
BRANCH   1   8
ATOM      7  C   UNL     1       0.793   3.801  20.437  0.00  0.00    +0.000 C 
ATOM      8  C   UNL     1       2.112   3.346  19.764  0.00  0.00    +0.000 C 
ATOM      9  C   UNL     1       3.089   2.797  20.828  0.00  0.00    +0.000 C 
ATOM     10  C   UNL     1       1.738   2.151  18.859  0.00  0.00    +0.000 C 
ENDBRANCH   1   8
BRANCH   5  11
ATOM     11  C   UNL     1       5.382   5.617  16.355  0.00  0.00    +0.000 C 
ATOM     12  C   UNL     1       6.756   5.755  17.035  0.00  0.00    +0.000 C 
ATOM     13  C   UNL     1       5.382   4.335  15.477  0.00  0.00    +0.000 C 
ATOM     14  C   UNL     1       5.250   6.774  15.330  0.00  0.00    +0.000 C 
ENDBRANCH   5  11
BRANCH   6  15
ATOM     15  O   UNL     1       4.512   3.368  18.012  0.00  0.00    +0.000 OA
ATOM     16  H   UNL     1       5.012   3.243  18.834  0.00  0.00    +0.000 HD
ENDBRANCH   6  15
BRANCH   3  17
ATOM     17  C   UNL     1       1.990   8.385  18.952  0.00  0.00    +0.000 C 
BRANCH  17  18
ATOM     18  N   UNL     1       1.588   9.182  17.765  0.00  0.00    +0.000 NA
ATOM     19  C   UNL     1       0.129   9.325  17.620  0.00  0.00    +0.000 C 
ATOM     20  C   UNL     1      -0.582  10.087  18.760  0.00  0.00    +0.000 C 
ATOM     21  N   UNL     1       0.093  11.261  19.349  0.00  0.00    +0.000 NA
ATOM     22  C   UNL     1       1.542  11.353  19.101  0.00  0.00    +0.000 C 
ATOM     23  C   UNL     1       2.103  10.569  17.892  0.00  0.00    +0.000 C 
BRANCH  21  24
ATOM     24  C   UNL     1      -0.605  12.528  19.116  0.00  0.00    +0.000 C 
BRANCH  24  25
ATOM     25  C   UNL     1       0.318  13.633  18.601  0.00  0.00    +0.000 C 
BRANCH  25  26
ATOM     26  C   UNL     1      -0.172  14.926  19.059  0.00  0.00    +0.000 C 
ATOM     27  N   UNL     1      -0.544  15.971  19.390  0.00  0.00    +0.000 NA
ENDBRANCH  25  26
ENDBRANCH  24  25
ENDBRANCH  21  24
ENDBRANCH  17  18
ENDBRANCH   3  17
TORSDOF 8
ENDMDL
