MODEL 1
REMARK VINA RESULT:      -7.2      0.000      0.000
REMARK  Name = 
REMARK  9 active torsions:
REMARK  status: ('A' for Active; 'I' for Inactive)
REMARK    1  A    between atoms: C_1  and  C_2
REMARK    2  A    between atoms: C_2  and  N_3
REMARK    3  A    between atoms: N_3  and  C_4
REMARK    4  A    between atoms: N_3  and  S_6
REMARK    5  A    between atoms: C_4  and  C_5
REMARK    6  A    between atoms: S_6  and  C_9
REMARK    7  A    between atoms: C_12  and  N_13
REMARK    8  A    between atoms: C_14  and  S_15
REMARK    9  A    between atoms: N_16  and  C_17
REMARK                            x       y       z     vdW  Elec       q    Type
REMARK                         _______ _______ _______ _____ _____    ______ ____
ROOT
ATOM      1  C   UNL     1       2.369   6.907  19.349  0.00  0.00    +0.000 A 
ATOM      2  C   UNL     1       1.740   7.567  20.404  0.00  0.00    +0.000 A 
ATOM      3  C   UNL     1       1.248   8.860  20.204  0.00  0.00    +0.000 A 
ATOM      4  C   UNL     1       1.382   9.509  18.967  0.00  0.00    +0.000 A 
ATOM      5  C   UNL     1       1.970   8.800  17.907  0.00  0.00    +0.000 A 
ATOM      6  C   UNL     1       2.473   7.512  18.095  0.00  0.00    +0.000 A 
ENDROOT
BRANCH   4   7
ATOM      7  N   UNL     1       1.033  10.855  18.765  0.00  0.00    +0.000 N 
ATOM      8  C   UNL     1      -0.215  11.352  18.476  0.00  0.00    +0.000 C 
ATOM      9  N   UNL     1      -1.251  10.635  18.172  0.00  0.00    +0.000 NA
ATOM     10  H   UNL     1       1.667  11.529  19.172  0.00  0.00    +0.000 HD
BRANCH   9  11
ATOM     11  C   UNL     1      -2.523  11.116  17.839  0.00  0.00    +0.000 A 
ATOM     12  C   UNL     1      -3.066  10.984  16.555  0.00  0.00    +0.000 A 
ATOM     13  C   UNL     1      -4.381  11.365  16.289  0.00  0.00    +0.000 A 
ATOM     14  C   UNL     1      -5.178  11.833  17.326  0.00  0.00    +0.000 A 
ATOM     15  F   UNL     1      -6.454  12.158  17.079  0.00  0.00    +0.000 F 
ATOM     16  C   UNL     1      -4.677  11.940  18.617  0.00  0.00    +0.000 A 
ATOM     17  C   UNL     1      -3.348  11.586  18.870  0.00  0.00    +0.000 A 
ENDBRANCH   9  11
BRANCH   8  18
ATOM     18  S   UNL     1      -0.212  13.109  18.608  0.00  0.00    +0.000 S 
ATOM     19  H   UNL     1       1.108  13.242  18.417  0.00  0.00    +0.000 HD
ENDBRANCH   8  18
ENDBRANCH   4   7
BRANCH   1  20
ATOM     20  S   UNL     1       3.151   5.340  19.641  0.00  0.00    +0.000 S 
ATOM     21  O   UNL     1       2.500   4.742  20.789  0.00  0.00    +0.000 OA
ATOM     22  O   UNL     1       4.581   5.550  19.616  0.00  0.00    +0.000 OA
BRANCH  20  23
ATOM     23  N   UNL     1       2.743   4.415  18.250  0.00  0.00    +0.000 NA
BRANCH  23  25
ATOM     24  C   UNL     1       4.557   4.041  16.553  0.00  0.00    +0.000 C 
ATOM     25  C   UNL     1       3.826   3.505  17.775  0.00  0.00    +0.000 C 
ENDBRANCH  23  25
BRANCH  23  26
ATOM     26  C   UNL     1       1.380   3.804  18.328  0.00  0.00    +0.000 C 
ATOM     27  C   UNL     1       1.397   2.312  18.619  0.00  0.00    +0.000 C 
ENDBRANCH  23  26
ENDBRANCH  20  23
ENDBRANCH   1  20
TORSDOF 7
ENDMDL
MODEL 2
REMARK VINA RESULT:      -6.9      1.132      1.356
REMARK  Name = 
REMARK  9 active torsions:
REMARK  status: ('A' for Active; 'I' for Inactive)
REMARK    1  A    between atoms: C_1  and  C_2
REMARK    2  A    between atoms: C_2  and  N_3
REMARK    3  A    between atoms: N_3  and  C_4
REMARK    4  A    between atoms: N_3  and  S_6
REMARK    5  A    between atoms: C_4  and  C_5
REMARK    6  A    between atoms: S_6  and  C_9
REMARK    7  A    between atoms: C_12  and  N_13
REMARK    8  A    between atoms: C_14  and  S_15
REMARK    9  A    between atoms: N_16  and  C_17
REMARK                            x       y       z     vdW  Elec       q    Type
REMARK                         _______ _______ _______ _____ _____    ______ ____
ROOT
ATOM      1  C   UNL     1       2.784   6.693  18.728  0.00  0.00    +0.000 A 
ATOM      2  C   UNL     1       2.159   7.040  19.925  0.00  0.00    +0.000 A 
ATOM      3  C   UNL     1       1.581   8.306  20.052  0.00  0.00    +0.000 A 
ATOM      4  C   UNL     1       1.625   9.236  19.003  0.00  0.00    +0.000 A 
ATOM      5  C   UNL     1       2.212   8.842  17.791  0.00  0.00    +0.000 A 
ATOM      6  C   UNL     1       2.800   7.583  17.653  0.00  0.00    +0.000 A 
ENDROOT
BRANCH   4   7
ATOM      7  N   UNL     1       1.186  10.565  19.137  0.00  0.00    +0.000 N 
ATOM      8  C   UNL     1      -0.044  11.069  18.788  0.00  0.00    +0.000 C 
ATOM      9  N   UNL     1      -0.948  10.431  18.113  0.00  0.00    +0.000 NA
ATOM     10  H   UNL     1       1.682  11.114  19.825  0.00  0.00    +0.000 HD
BRANCH   9  11
ATOM     11  C   UNL     1      -2.192  10.931  17.714  0.00  0.00    +0.000 A 
ATOM     12  C   UNL     1      -2.664  10.816  16.401  0.00  0.00    +0.000 A 
ATOM     13  C   UNL     1      -3.957  11.218  16.065  0.00  0.00    +0.000 A 
ATOM     14  C   UNL     1      -4.805  11.690  17.059  0.00  0.00    +0.000 A 
ATOM     15  F   UNL     1      -6.060  12.034  16.744  0.00  0.00    +0.000 F 
ATOM     16  C   UNL     1      -4.375  11.782  18.376  0.00  0.00    +0.000 A 
ATOM     17  C   UNL     1      -3.067  11.407  18.700  0.00  0.00    +0.000 A 
ENDBRANCH   9  11
BRANCH   8  18
ATOM     18  S   UNL     1      -0.227  12.705  19.417  0.00  0.00    +0.000 S 
ATOM     19  H   UNL     1       0.903  13.172  18.869  0.00  0.00    +0.000 HD
ENDBRANCH   8  18
ENDBRANCH   4   7
BRANCH   1  20
ATOM     20  S   UNL     1       3.672   5.159  18.618  0.00  0.00    +0.000 S 
ATOM     21  O   UNL     1       4.705   5.187  19.632  0.00  0.00    +0.000 OA
ATOM     22  O   UNL     1       3.994   4.936  17.226  0.00  0.00    +0.000 OA
BRANCH  20  23
ATOM     23  N   UNL     1       2.506   3.979  19.071  0.00  0.00    +0.000 NA
BRANCH  23  25
ATOM     24  C   UNL     1       3.240   1.749  18.180  0.00  0.00    +0.000 C 
ATOM     25  C   UNL     1       2.274   2.916  18.050  0.00  0.00    +0.000 C 
ENDBRANCH  23  25
BRANCH  23  26
ATOM     26  C   UNL     1       2.675   3.495  20.475  0.00  0.00    +0.000 C 
ATOM     27  C   UNL     1       1.371   3.078  21.137  0.00  0.00    +0.000 C 
ENDBRANCH  23  26
ENDBRANCH  20  23
ENDBRANCH   1  20
TORSDOF 7
ENDMDL
MODEL 3
REMARK VINA RESULT:      -6.9      1.085      1.877
REMARK  Name = 
REMARK  9 active torsions:
REMARK  status: ('A' for Active; 'I' for Inactive)
REMARK    1  A    between atoms: C_1  and  C_2
REMARK    2  A    between atoms: C_2  and  N_3
REMARK    3  A    between atoms: N_3  and  C_4
REMARK    4  A    between atoms: N_3  and  S_6
REMARK    5  A    between atoms: C_4  and  C_5
REMARK    6  A    between atoms: S_6  and  C_9
REMARK    7  A    between atoms: C_12  and  N_13
REMARK    8  A    between atoms: C_14  and  S_15
REMARK    9  A    between atoms: N_16  and  C_17
REMARK                            x       y       z     vdW  Elec       q    Type
REMARK                         _______ _______ _______ _____ _____    ______ ____
ROOT
ATOM      1  C   UNL     1       2.205   6.371  19.468  0.00  0.00    +0.000 A 
ATOM      2  C   UNL     1       2.506   6.938  18.231  0.00  0.00    +0.000 A 
ATOM      3  C   UNL     1       2.265   8.299  18.026  0.00  0.00    +0.000 A 
ATOM      4  C   UNL     1       1.720   9.104  19.038  0.00  0.00    +0.000 A 
ATOM      5  C   UNL     1       1.477   8.519  20.291  0.00  0.00    +0.000 A 
ATOM      6  C   UNL     1       1.705   7.159  20.506  0.00  0.00    +0.000 A 
ENDROOT
BRANCH   4   7
ATOM      7  N   UNL     1       1.329  10.438  18.831  0.00  0.00    +0.000 N 
ATOM      8  C   UNL     1       0.071  10.892  18.515  0.00  0.00    +0.000 C 
ATOM      9  N   UNL     1      -0.933  10.140  18.187  0.00  0.00    +0.000 NA
ATOM     10  H   UNL     1       1.929  11.132  19.253  0.00  0.00    +0.000 HD
BRANCH   9  11
ATOM     11  C   UNL     1      -2.213  10.577  17.828  0.00  0.00    +0.000 A 
ATOM     12  C   UNL     1      -3.066  11.229  18.726  0.00  0.00    +0.000 A 
ATOM     13  C   UNL     1      -4.286  11.757  18.304  0.00  0.00    +0.000 A 
ATOM     14  C   UNL     1      -4.634  11.681  16.961  0.00  0.00    +0.000 A 
ATOM     15  F   UNL     1      -5.785  12.227  16.548  0.00  0.00    +0.000 F 
ATOM     16  C   UNL     1      -3.791  11.071  16.041  0.00  0.00    +0.000 A 
ATOM     17  C   UNL     1      -2.584  10.515  16.477  0.00  0.00    +0.000 A 
ENDBRANCH   9  11
BRANCH   8  18
ATOM     18  S   UNL     1       0.010  12.648  18.650  0.00  0.00    +0.000 S 
ATOM     19  H   UNL     1      -0.940  12.806  17.718  0.00  0.00    +0.000 HD
ENDBRANCH   8  18
ENDBRANCH   4   7
BRANCH   1  20
ATOM     20  S   UNL     1       2.341   4.613  19.681  0.00  0.00    +0.000 S 
ATOM     21  O   UNL     1       1.099   4.028  19.220  0.00  0.00    +0.000 OA
ATOM     22  O   UNL     1       2.835   4.369  21.017  0.00  0.00    +0.000 OA
BRANCH  20  23
ATOM     23  N   UNL     1       3.586   4.165  18.583  0.00  0.00    +0.000 NA
BRANCH  23  25
ATOM     24  C   UNL     1       5.804   5.222  19.099  0.00  0.00    +0.000 C 
ATOM     25  C   UNL     1       4.927   3.985  19.210  0.00  0.00    +0.000 C 
ENDBRANCH  23  25
BRANCH  23  26
ATOM     26  C   UNL     1       3.171   3.087  17.632  0.00  0.00    +0.000 C 
ATOM     27  C   UNL     1       3.526   1.687  18.107  0.00  0.00    +0.000 C 
ENDBRANCH  23  26
ENDBRANCH  20  23
ENDBRANCH   1  20
TORSDOF 7
ENDMDL
MODEL 4
REMARK VINA RESULT:      -6.7      2.845      3.984
REMARK  Name = 
REMARK  9 active torsions:
REMARK  status: ('A' for Active; 'I' for Inactive)
REMARK    1  A    between atoms: C_1  and  C_2
REMARK    2  A    between atoms: C_2  and  N_3
REMARK    3  A    between atoms: N_3  and  C_4
REMARK    4  A    between atoms: N_3  and  S_6
REMARK    5  A    between atoms: C_4  and  C_5
REMARK    6  A    between atoms: S_6  and  C_9
REMARK    7  A    between atoms: C_12  and  N_13
REMARK    8  A    between atoms: C_14  and  S_15
REMARK    9  A    between atoms: N_16  and  C_17
REMARK                            x       y       z     vdW  Elec       q    Type
REMARK                         _______ _______ _______ _____ _____    ______ ____
ROOT
ATOM      1  C   UNL     1       3.315   4.792  19.069  0.00  0.00    +0.000 A 
ATOM      2  C   UNL     1       2.457   4.423  20.104  0.00  0.00    +0.000 A 
ATOM      3  C   UNL     1       1.754   5.414  20.795  0.00  0.00    +0.000 A 
ATOM      4  C   UNL     1       1.899   6.771  20.471  0.00  0.00    +0.000 A 
ATOM      5  C   UNL     1       2.727   7.110  19.389  0.00  0.00    +0.000 A 
ATOM      6  C   UNL     1       3.442   6.132  18.697  0.00  0.00    +0.000 A 
ENDROOT
BRANCH   4   7
ATOM      7  N   UNL     1       1.325   7.806  21.229  0.00  0.00    +0.000 N 
ATOM      8  C   UNL     1       0.874   9.019  20.766  0.00  0.00    +0.000 C 
ATOM      9  N   UNL     1       1.063   9.477  19.568  0.00  0.00    +0.000 NA
ATOM     10  H   UNL     1       0.923   7.521  22.111  0.00  0.00    +0.000 HD
BRANCH   9  11
ATOM     11  C   UNL     1       0.646  10.721  19.081  0.00  0.00    +0.000 A 
ATOM     12  C   UNL     1      -0.666  10.962  18.655  0.00  0.00    +0.000 A 
ATOM     13  C   UNL     1      -1.079  12.243  18.289  0.00  0.00    +0.000 A 
ATOM     14  C   UNL     1      -0.188  13.303  18.399  0.00  0.00    +0.000 A 
ATOM     15  F   UNL     1      -0.598  14.541  18.089  0.00  0.00    +0.000 F 
ATOM     16  C   UNL     1       1.109  13.100  18.852  0.00  0.00    +0.000 A 
ATOM     17  C   UNL     1       1.525  11.808  19.187  0.00  0.00    +0.000 A 
ENDBRANCH   9  11
BRANCH   8  18
ATOM     18  S   UNL     1      -0.028   9.852  22.030  0.00  0.00    +0.000 S 
ATOM     19  H   UNL     1       0.914  10.777  22.259  0.00  0.00    +0.000 HD
ENDBRANCH   8  18
ENDBRANCH   4   7
BRANCH   1  20
ATOM     20  S   UNL     1       4.344   3.563  18.306  0.00  0.00    +0.000 S 
ATOM     21  O   UNL     1       3.525   2.851  17.347  0.00  0.00    +0.000 OA
ATOM     22  O   UNL     1       5.045   2.862  19.358  0.00  0.00    +0.000 OA
BRANCH  20  23
ATOM     23  N   UNL     1       5.508   4.485  17.439  0.00  0.00    +0.000 NA
BRANCH  23  25
ATOM     24  C   UNL     1       7.249   6.172  18.093  0.00  0.00    +0.000 C 
ATOM     25  C   UNL     1       6.779   4.728  18.180  0.00  0.00    +0.000 C 
ENDBRANCH  23  25
BRANCH  23  26
ATOM     26  C   UNL     1       5.667   4.045  16.018  0.00  0.00    +0.000 C 
ATOM     27  C   UNL     1       5.565   5.182  15.014  0.00  0.00    +0.000 C 
ENDBRANCH  23  26
ENDBRANCH  20  23
ENDBRANCH   1  20
TORSDOF 7
ENDMDL
MODEL 5
REMARK VINA RESULT:      -6.7      1.256      2.013
REMARK  Name = 
REMARK  9 active torsions:
REMARK  status: ('A' for Active; 'I' for Inactive)
REMARK    1  A    between atoms: C_1  and  C_2
REMARK    2  A    between atoms: C_2  and  N_3
REMARK    3  A    between atoms: N_3  and  C_4
REMARK    4  A    between atoms: N_3  and  S_6
REMARK    5  A    between atoms: C_4  and  C_5
REMARK    6  A    between atoms: S_6  and  C_9
REMARK    7  A    between atoms: C_12  and  N_13
REMARK    8  A    between atoms: C_14  and  S_15
REMARK    9  A    between atoms: N_16  and  C_17
REMARK                            x       y       z     vdW  Elec       q    Type
REMARK                         _______ _______ _______ _____ _____    ______ ____
ROOT
ATOM      1  C   UNL     1       2.413   6.471  18.910  0.00  0.00    +0.000 A 
ATOM      2  C   UNL     1       2.651   7.276  17.797  0.00  0.00    +0.000 A 
ATOM      3  C   UNL     1       2.348   8.639  17.861  0.00  0.00    +0.000 A 
ATOM      4  C   UNL     1       1.802   9.210  19.021  0.00  0.00    +0.000 A 
ATOM      5  C   UNL     1       1.623   8.388  20.145  0.00  0.00    +0.000 A 
ATOM      6  C   UNL     1       1.914   7.024  20.091  0.00  0.00    +0.000 A 
ENDROOT
BRANCH   4   7
ATOM      7  N   UNL     1       1.350  10.540  19.081  0.00  0.00    +0.000 N 
ATOM      8  C   UNL     1       0.112  11.010  18.713  0.00  0.00    +0.000 C 
ATOM      9  N   UNL     1      -0.790  10.324  18.086  0.00  0.00    +0.000 NA
ATOM     10  H   UNL     1       1.845  11.133  19.732  0.00  0.00    +0.000 HD
BRANCH   9  11
ATOM     11  C   UNL     1      -2.043  10.787  17.669  0.00  0.00    +0.000 A 
ATOM     12  C   UNL     1      -2.531  10.578  16.372  0.00  0.00    +0.000 A 
ATOM     13  C   UNL     1      -3.830  10.947  16.026  0.00  0.00    +0.000 A 
ATOM     14  C   UNL     1      -4.669  11.481  16.996  0.00  0.00    +0.000 A 
ATOM     15  F   UNL     1      -5.931  11.794  16.674  0.00  0.00    +0.000 F 
ATOM     16  C   UNL     1      -4.224  11.667  18.298  0.00  0.00    +0.000 A 
ATOM     17  C   UNL     1      -2.910  11.325  18.631  0.00  0.00    +0.000 A 
ENDBRANCH   9  11
BRANCH   8  18
ATOM     18  S   UNL     1      -0.084  12.678  19.247  0.00  0.00    +0.000 S 
ATOM     19  H   UNL     1      -1.207  12.896  18.549  0.00  0.00    +0.000 HD
ENDBRANCH   8  18
ENDBRANCH   4   7
BRANCH   1  20
ATOM     20  S   UNL     1       2.628   4.713  18.780  0.00  0.00    +0.000 S 
ATOM     21  O   UNL     1       1.666   4.234  17.808  0.00  0.00    +0.000 OA
ATOM     22  O   UNL     1       2.670   4.175  20.120  0.00  0.00    +0.000 OA
BRANCH  20  23
ATOM     23  N   UNL     1       4.201   4.544  18.108  0.00  0.00    +0.000 NA
BRANCH  23  25
ATOM     24  C   UNL     1       6.293   5.367  19.228  0.00  0.00    +0.000 C 
ATOM     25  C   UNL     1       5.270   4.249  19.106  0.00  0.00    +0.000 C 
ENDBRANCH  23  25
BRANCH  23  26
ATOM     26  C   UNL     1       4.225   3.701  16.873  0.00  0.00    +0.000 C 
ATOM     27  C   UNL     1       5.215   4.184  15.825  0.00  0.00    +0.000 C 
ENDBRANCH  23  26
ENDBRANCH  20  23
ENDBRANCH   1  20
TORSDOF 7
ENDMDL
MODEL 6
REMARK VINA RESULT:      -6.6      1.489      2.280
REMARK  Name = 
REMARK  9 active torsions:
REMARK  status: ('A' for Active; 'I' for Inactive)
REMARK    1  A    between atoms: C_1  and  C_2
REMARK    2  A    between atoms: C_2  and  N_3
REMARK    3  A    between atoms: N_3  and  C_4
REMARK    4  A    between atoms: N_3  and  S_6
REMARK    5  A    between atoms: C_4  and  C_5
REMARK    6  A    between atoms: S_6  and  C_9
REMARK    7  A    between atoms: C_12  and  N_13
REMARK    8  A    between atoms: C_14  and  S_15
REMARK    9  A    between atoms: N_16  and  C_17
REMARK                            x       y       z     vdW  Elec       q    Type
REMARK                         _______ _______ _______ _____ _____    ______ ____
ROOT
ATOM      1  C   UNL     1       2.627   6.680  18.874  0.00  0.00    +0.000 A 
ATOM      2  C   UNL     1       2.107   7.163  20.074  0.00  0.00    +0.000 A 
ATOM      3  C   UNL     1       1.522   8.432  20.104  0.00  0.00    +0.000 A 
ATOM      4  C   UNL     1       1.455   9.231  18.952  0.00  0.00    +0.000 A 
ATOM      5  C   UNL     1       1.936   8.698  17.746  0.00  0.00    +0.000 A 
ATOM      6  C   UNL     1       2.530   7.435  17.704  0.00  0.00    +0.000 A 
ENDROOT
BRANCH   4   7
ATOM      7  N   UNL     1       1.008  10.564  18.968  0.00  0.00    +0.000 N 
ATOM      8  C   UNL     1      -0.263  11.013  18.700  0.00  0.00    +0.000 C 
ATOM      9  N   UNL     1      -1.224  10.290  18.218  0.00  0.00    +0.000 NA
ATOM     10  H   UNL     1       1.567  11.198  19.521  0.00  0.00    +0.000 HD
BRANCH   9  11
ATOM     11  C   UNL     1      -2.515  10.729  17.904  0.00  0.00    +0.000 A 
ATOM     12  C   UNL     1      -3.330  11.394  18.829  0.00  0.00    +0.000 A 
ATOM     13  C   UNL     1      -4.563  11.924  18.448  0.00  0.00    +0.000 A 
ATOM     14  C   UNL     1      -4.962  11.837  17.120  0.00  0.00    +0.000 A 
ATOM     15  F   UNL     1      -6.126  12.384  16.746  0.00  0.00    +0.000 F 
ATOM     16  C   UNL     1      -4.158  11.214  16.175  0.00  0.00    +0.000 A 
ATOM     17  C   UNL     1      -2.938  10.656  16.570  0.00  0.00    +0.000 A 
ENDBRANCH   9  11
BRANCH   8  18
ATOM     18  S   UNL     1      -0.406  12.715  19.136  0.00  0.00    +0.000 S 
ATOM     19  H   UNL     1       0.287  13.167  18.082  0.00  0.00    +0.000 HD
ENDBRANCH   8  18
ENDBRANCH   4   7
BRANCH   1  20
ATOM     20  S   UNL     1       3.526   5.149  18.865  0.00  0.00    +0.000 S 
ATOM     21  O   UNL     1       2.911   4.294  17.871  0.00  0.00    +0.000 OA
ATOM     22  O   UNL     1       3.673   4.717  20.237  0.00  0.00    +0.000 OA
BRANCH  20  23
ATOM     23  N   UNL     1       5.087   5.596  18.297  0.00  0.00    +0.000 NA
BRANCH  23  25
ATOM     24  C   UNL     1       7.546   5.812  18.757  0.00  0.00    +0.000 C 
ATOM     25  C   UNL     1       6.173   5.466  19.311  0.00  0.00    +0.000 C 
ENDBRANCH  23  25
BRANCH  23  26
ATOM     26  C   UNL     1       5.401   5.043  16.944  0.00  0.00    +0.000 C 
ATOM     27  C   UNL     1       5.283   6.065  15.825  0.00  0.00    +0.000 C 
ENDBRANCH  23  26
ENDBRANCH  20  23
ENDBRANCH   1  20
TORSDOF 7
ENDMDL
MODEL 7
REMARK VINA RESULT:      -6.6      2.994      4.204
REMARK  Name = 
REMARK  9 active torsions:
REMARK  status: ('A' for Active; 'I' for Inactive)
REMARK    1  A    between atoms: C_1  and  C_2
REMARK    2  A    between atoms: C_2  and  N_3
REMARK    3  A    between atoms: N_3  and  C_4
REMARK    4  A    between atoms: N_3  and  S_6
REMARK    5  A    between atoms: C_4  and  C_5
REMARK    6  A    between atoms: S_6  and  C_9
REMARK    7  A    between atoms: C_12  and  N_13
REMARK    8  A    between atoms: C_14  and  S_15
REMARK    9  A    between atoms: N_16  and  C_17
REMARK                            x       y       z     vdW  Elec       q    Type
REMARK                         _______ _______ _______ _____ _____    ______ ____
ROOT
ATOM      1  C   UNL     1       3.741   5.225  18.737  0.00  0.00    +0.000 A 
ATOM      2  C   UNL     1       3.071   4.624  19.802  0.00  0.00    +0.000 A 
ATOM      3  C   UNL     1       2.218   5.397  20.596  0.00  0.00    +0.000 A 
ATOM      4  C   UNL     1       2.030   6.765  20.346  0.00  0.00    +0.000 A 
ATOM      5  C   UNL     1       2.674   7.331  19.235  0.00  0.00    +0.000 A 
ATOM      6  C   UNL     1       3.535   6.573  18.439  0.00  0.00    +0.000 A 
ENDROOT
BRANCH   4   7
ATOM      7  N   UNL     1       1.299   7.607  21.202  0.00  0.00    +0.000 N 
ATOM      8  C   UNL     1       0.807   8.856  20.911  0.00  0.00    +0.000 C 
ATOM      9  N   UNL     1       1.088   9.539  19.845  0.00  0.00    +0.000 NA
ATOM     10  H   UNL     1       0.828   7.141  21.965  0.00  0.00    +0.000 HD
BRANCH   9  11
ATOM     11  C   UNL     1       0.630  10.826  19.540  0.00  0.00    +0.000 A 
ATOM     12  C   UNL     1       1.369  11.978  19.835  0.00  0.00    +0.000 A 
ATOM     13  C   UNL     1       0.939  13.235  19.410  0.00  0.00    +0.000 A 
ATOM     14  C   UNL     1      -0.211  13.338  18.638  0.00  0.00    +0.000 A 
ATOM     15  F   UNL     1      -0.599  14.540  18.193  0.00  0.00    +0.000 F 
ATOM     16  C   UNL     1      -0.945  12.208  18.300  0.00  0.00    +0.000 A 
ATOM     17  C   UNL     1      -0.526  10.954  18.757  0.00  0.00    +0.000 A 
ENDBRANCH   9  11
BRANCH   8  18
ATOM     18  S   UNL     1      -0.287   9.388  22.186  0.00  0.00    +0.000 S 
ATOM     19  H   UNL     1      -0.854  10.361  21.459  0.00  0.00    +0.000 HD
ENDBRANCH   8  18
ENDBRANCH   4   7
BRANCH   1  20
ATOM     20  S   UNL     1       4.957   4.297  17.835  0.00  0.00    +0.000 S 
ATOM     21  O   UNL     1       4.245   3.330  17.024  0.00  0.00    +0.000 OA
ATOM     22  O   UNL     1       5.977   3.883  18.771  0.00  0.00    +0.000 OA
BRANCH  20  23
ATOM     23  N   UNL     1       5.663   5.462  16.786  0.00  0.00    +0.000 NA
BRANCH  23  25
ATOM     24  C   UNL     1       7.331   7.183  17.537  0.00  0.00    +0.000 C 
ATOM     25  C   UNL     1       7.099   5.756  17.068  0.00  0.00    +0.000 C 
ENDBRANCH  23  25
BRANCH  23  26
ATOM     26  C   UNL     1       5.324   5.241  15.347  0.00  0.00    +0.000 C 
ATOM     27  C   UNL     1       6.437   4.576  14.553  0.00  0.00    +0.000 C 
ENDBRANCH  23  26
ENDBRANCH  20  23
ENDBRANCH   1  20
TORSDOF 7
ENDMDL
MODEL 8
REMARK VINA RESULT:      -6.6      1.844      2.587
REMARK  Name = 
REMARK  9 active torsions:
REMARK  status: ('A' for Active; 'I' for Inactive)
REMARK    1  A    between atoms: C_1  and  C_2
REMARK    2  A    between atoms: C_2  and  N_3
REMARK    3  A    between atoms: N_3  and  C_4
REMARK    4  A    between atoms: N_3  and  S_6
REMARK    5  A    between atoms: C_4  and  C_5
REMARK    6  A    between atoms: S_6  and  C_9
REMARK    7  A    between atoms: C_12  and  N_13
REMARK    8  A    between atoms: C_14  and  S_15
REMARK    9  A    between atoms: N_16  and  C_17
REMARK                            x       y       z     vdW  Elec       q    Type
REMARK                         _______ _______ _______ _____ _____    ______ ____
ROOT
ATOM      1  C   UNL     1       3.383   5.862  18.353  0.00  0.00    +0.000 A 
ATOM      2  C   UNL     1       2.579   6.008  19.483  0.00  0.00    +0.000 A 
ATOM      3  C   UNL     1       1.977   7.243  19.739  0.00  0.00    +0.000 A 
ATOM      4  C   UNL     1       2.172   8.339  18.885  0.00  0.00    +0.000 A 
ATOM      5  C   UNL     1       2.941   8.149  17.726  0.00  0.00    +0.000 A 
ATOM      6  C   UNL     1       3.555   6.923  17.464  0.00  0.00    +0.000 A 
ENDROOT
BRANCH   4   7
ATOM      7  N   UNL     1       1.705   9.633  19.179  0.00  0.00    +0.000 N 
ATOM      8  C   UNL     1       0.501  10.181  18.810  0.00  0.00    +0.000 C 
ATOM      9  N   UNL     1      -0.338   9.648  17.977  0.00  0.00    +0.000 NA
ATOM     10  H   UNL     1       2.137  10.074  19.979  0.00  0.00    +0.000 HD
BRANCH   9  11
ATOM     11  C   UNL     1      -1.553  10.200  17.558  0.00  0.00    +0.000 A 
ATOM     12  C   UNL     1      -2.136   9.889  16.323  0.00  0.00    +0.000 A 
ATOM     13  C   UNL     1      -3.404  10.362  15.988  0.00  0.00    +0.000 A 
ATOM     14  C   UNL     1      -4.120  11.110  16.914  0.00  0.00    +0.000 A 
ATOM     15  F   UNL     1      -5.356  11.527  16.608  0.00  0.00    +0.000 F 
ATOM     16  C   UNL     1      -3.581  11.404  18.160  0.00  0.00    +0.000 A 
ATOM     17  C   UNL     1      -2.297  10.954  18.477  0.00  0.00    +0.000 A 
ENDBRANCH   9  11
BRANCH   8  18
ATOM     18  S   UNL     1       0.245  11.705  19.657  0.00  0.00    +0.000 S 
ATOM     19  H   UNL     1       1.157  12.388  18.952  0.00  0.00    +0.000 HD
ENDBRANCH   8  18
ENDBRANCH   4   7
BRANCH   1  20
ATOM     20  S   UNL     1       4.291   4.355  18.116  0.00  0.00    +0.000 S 
ATOM     21  O   UNL     1       3.433   3.446  17.383  0.00  0.00    +0.000 OA
ATOM     22  O   UNL     1       4.864   3.981  19.389  0.00  0.00    +0.000 OA
BRANCH  20  23
ATOM     23  N   UNL     1       5.588   4.818  17.086  0.00  0.00    +0.000 NA
BRANCH  23  25
ATOM     24  C   UNL     1       7.323   6.348  18.062  0.00  0.00    +0.000 C 
ATOM     25  C   UNL     1       6.912   4.914  17.765  0.00  0.00    +0.000 C 
ENDBRANCH  23  25
BRANCH  23  26
ATOM     26  C   UNL     1       5.588   4.091  15.778  0.00  0.00    +0.000 C 
ATOM     27  C   UNL     1       6.717   4.509  14.850  0.00  0.00    +0.000 C 
ENDBRANCH  23  26
ENDBRANCH  20  23
ENDBRANCH   1  20
TORSDOF 7
ENDMDL
MODEL 9
REMARK VINA RESULT:      -6.6      1.236      1.678
REMARK  Name = 
REMARK  9 active torsions:
REMARK  status: ('A' for Active; 'I' for Inactive)
REMARK    1  A    between atoms: C_1  and  C_2
REMARK    2  A    between atoms: C_2  and  N_3
REMARK    3  A    between atoms: N_3  and  C_4
REMARK    4  A    between atoms: N_3  and  S_6
REMARK    5  A    between atoms: C_4  and  C_5
REMARK    6  A    between atoms: S_6  and  C_9
REMARK    7  A    between atoms: C_12  and  N_13
REMARK    8  A    between atoms: C_14  and  S_15
REMARK    9  A    between atoms: N_16  and  C_17
REMARK                            x       y       z     vdW  Elec       q    Type
REMARK                         _______ _______ _______ _____ _____    ______ ____
ROOT
ATOM      1  C   UNL     1       2.739   6.687  18.917  0.00  0.00    +0.000 A 
ATOM      2  C   UNL     1       2.113   7.132  20.081  0.00  0.00    +0.000 A 
ATOM      3  C   UNL     1       1.556   8.413  20.110  0.00  0.00    +0.000 A 
ATOM      4  C   UNL     1       1.622   9.262  18.995  0.00  0.00    +0.000 A 
ATOM      5  C   UNL     1       2.210   8.769  17.819  0.00  0.00    +0.000 A 
ATOM      6  C   UNL     1       2.777   7.494  17.780  0.00  0.00    +0.000 A 
ENDROOT
BRANCH   4   7
ATOM      7  N   UNL     1       1.205  10.604  19.027  0.00  0.00    +0.000 N 
ATOM      8  C   UNL     1      -0.032  11.094  18.683  0.00  0.00    +0.000 C 
ATOM      9  N   UNL     1      -0.971  10.412  18.106  0.00  0.00    +0.000 NA
ATOM     10  H   UNL     1       1.735  11.204  19.643  0.00  0.00    +0.000 HD
BRANCH   9  11
ATOM     11  C   UNL     1      -2.225  10.895  17.714  0.00  0.00    +0.000 A 
ATOM     12  C   UNL     1      -2.706  10.766  16.405  0.00  0.00    +0.000 A 
ATOM     13  C   UNL     1      -4.007  11.148  16.077  0.00  0.00    +0.000 A 
ATOM     14  C   UNL     1      -4.852  11.616  17.075  0.00  0.00    +0.000 A 
ATOM     15  F   UNL     1      -6.115  11.942  16.768  0.00  0.00    +0.000 F 
ATOM     16  C   UNL     1      -4.413  11.721  18.388  0.00  0.00    +0.000 A 
ATOM     17  C   UNL     1      -3.098  11.365  18.704  0.00  0.00    +0.000 A 
ENDBRANCH   9  11
BRANCH   8  18
ATOM     18  S   UNL     1      -0.170  12.783  19.170  0.00  0.00    +0.000 S 
ATOM     19  H   UNL     1       0.613  13.254  18.190  0.00  0.00    +0.000 HD
ENDBRANCH   8  18
ENDBRANCH   4   7
BRANCH   1  20
ATOM     20  S   UNL     1       3.602   5.135  18.928  0.00  0.00    +0.000 S 
ATOM     21  O   UNL     1       4.760   5.292  19.784  0.00  0.00    +0.000 OA
ATOM     22  O   UNL     1       3.738   4.698  17.557  0.00  0.00    +0.000 OA
BRANCH  20  23
ATOM     23  N   UNL     1       2.503   4.063  19.702  0.00  0.00    +0.000 NA
BRANCH  23  25
ATOM     24  C   UNL     1       1.972   3.011  21.920  0.00  0.00    +0.000 C 
ATOM     25  C   UNL     1       2.364   4.276  21.171  0.00  0.00    +0.000 C 
ENDBRANCH  23  25
BRANCH  23  26
ATOM     26  C   UNL     1       1.219   3.895  18.953  0.00  0.00    +0.000 C 
ATOM     27  C   UNL     1       0.898   2.449  18.610  0.00  0.00    +0.000 C 
ENDBRANCH  23  26
ENDBRANCH  20  23
ENDBRANCH   1  20
TORSDOF 7
ENDMDL
