MODEL 1
REMARK VINA RESULT:      -7.4      0.000      0.000
REMARK  Name = 
REMARK  6 active torsions:
REMARK  status: ('A' for Active; 'I' for Inactive)
REMARK    1  A    between atoms: C_2  and  O_3
REMARK    2  A    between atoms: C_2  and  C_4
REMARK    3  A    between atoms: C_6  and  N_7
REMARK    4  A    between atoms: N_7  and  C_8
REMARK    5  A    between atoms: C_8  and  C_9
REMARK    6  A    between atoms: C_18  and  N_19
REMARK                            x       y       z     vdW  Elec       q    Type
REMARK                         _______ _______ _______ _____ _____    ______ ____
ROOT
ATOM      1  C   UNL     1       1.136   8.788  20.544  0.00  0.00    +0.000 A 
ATOM      2  C   UNL     1       1.754   7.515  20.486  0.00  0.00    +0.000 A 
ATOM      3  C   UNL     1       2.322   7.016  19.315  0.00  0.00    +0.000 A 
ATOM      4  C   UNL     1       2.228   7.812  18.180  0.00  0.00    +0.000 A 
ATOM      5  C   UNL     1       1.602   9.067  18.222  0.00  0.00    +0.000 A 
ATOM      6  C   UNL     1       1.059   9.617  19.401  0.00  0.00    +0.000 A 
ENDROOT
BRANCH   6   7
ATOM      7  N   UNL     1       0.591  10.917  19.357  0.00  0.00    +0.000 N 
ATOM      8  C   UNL     1      -0.844  11.252  19.267  0.00  0.00    +0.000 C 
ATOM      9  C   UNL     1      -1.055  12.328  18.184  0.00  0.00    +0.000 C 
ATOM     10  O   UNL     1      -0.241  13.491  18.419  0.00  0.00    +0.000 OA
ATOM     11  C   UNL     1       1.150  13.129  18.459  0.00  0.00    +0.000 C 
ATOM     12  C   UNL     1       1.442  12.101  19.566  0.00  0.00    +0.000 C 
ENDBRANCH   6   7
BRANCH   1  14
ATOM     13  O   UNL     1       1.008   9.864  22.683  0.00  0.00    +0.000 OA
ATOM     14  C   UNL     1       0.513   9.129  21.847  0.00  0.00    +0.000 C 
BRANCH  14  15
ATOM     15  O   UNL     1      -0.695   8.534  22.030  0.00  0.00    +0.000 OA
ATOM     16  H   UNL     1      -0.700   7.801  22.673  0.00  0.00    +0.000 HD
ENDBRANCH  14  15
ENDBRANCH   1  14
BRANCH   3  17
ATOM     17  N   UNL     1       3.062   5.840  19.374  0.00  0.00    +0.000 N 
ATOM     18  H   UNL     1       2.615   5.091  19.895  0.00  0.00    +0.000 HD
BRANCH  17  19
ATOM     19  C   UNL     1       3.770   5.331  18.199  0.00  0.00    +0.000 C 
BRANCH  19  20
ATOM     20  C   UNL     1       5.244   5.681  18.218  0.00  0.00    +0.000 A 
ATOM     21  C   UNL     1       6.056   5.345  19.320  0.00  0.00    +0.000 A 
ATOM     22  C   UNL     1       7.401   5.717  19.372  0.00  0.00    +0.000 A 
ATOM     23  C   UNL     1       7.964   6.439  18.324  0.00  0.00    +0.000 A 
ATOM     24  C   UNL     1       7.180   6.791  17.229  0.00  0.00    +0.000 A 
ATOM     25  C   UNL     1       5.830   6.424  17.178  0.00  0.00    +0.000 A 
ATOM     26 CL   UNL     1       4.926   6.934  15.795  0.00  0.00    +0.000 Cl
ENDBRANCH  19  20
ENDBRANCH  17  19
ENDBRANCH   3  17
TORSDOF 6
ENDMDL
MODEL 2
REMARK VINA RESULT:      -7.3      2.442      3.484
REMARK  Name = 
REMARK  6 active torsions:
REMARK  status: ('A' for Active; 'I' for Inactive)
REMARK    1  A    between atoms: C_2  and  O_3
REMARK    2  A    between atoms: C_2  and  C_4
REMARK    3  A    between atoms: C_6  and  N_7
REMARK    4  A    between atoms: N_7  and  C_8
REMARK    5  A    between atoms: C_8  and  C_9
REMARK    6  A    between atoms: C_18  and  N_19
REMARK                            x       y       z     vdW  Elec       q    Type
REMARK                         _______ _______ _______ _____ _____    ______ ____
ROOT
ATOM      1  C   UNL     1       1.100   9.011  20.425  0.00  0.00    +0.000 A 
ATOM      2  C   UNL     1       1.816   7.847  20.051  0.00  0.00    +0.000 A 
ATOM      3  C   UNL     1       2.299   7.653  18.759  0.00  0.00    +0.000 A 
ATOM      4  C   UNL     1       2.018   8.643  17.825  0.00  0.00    +0.000 A 
ATOM      5  C   UNL     1       1.294   9.791  18.179  0.00  0.00    +0.000 A 
ATOM      6  C   UNL     1       0.833  10.037  19.489  0.00  0.00    +0.000 A 
ENDROOT
BRANCH   6   7
ATOM      7  N   UNL     1       0.252  11.263  19.755  0.00  0.00    +0.000 N 
ATOM      8  C   UNL     1       1.037  12.477  20.053  0.00  0.00    +0.000 C 
ATOM      9  C   UNL     1       0.439  13.187  21.283  0.00  0.00    +0.000 C 
ATOM     10  O   UNL     1      -0.959  13.476  21.108  0.00  0.00    +0.000 OA
ATOM     11  C   UNL     1      -1.694  12.265  20.861  0.00  0.00    +0.000 C 
ATOM     12  C   UNL     1      -1.188  11.536  19.603  0.00  0.00    +0.000 C 
ENDBRANCH   6   7
BRANCH   1  14
ATOM     13  O   UNL     1      -0.533   8.679  22.148  0.00  0.00    +0.000 OA
ATOM     14  C   UNL     1       0.590   9.020  21.818  0.00  0.00    +0.000 C 
BRANCH  14  15
ATOM     15  O   UNL     1       1.510   9.452  22.719  0.00  0.00    +0.000 OA
ATOM     16  H   UNL     1       1.139   9.850  23.529  0.00  0.00    +0.000 HD
ENDBRANCH  14  15
ENDBRANCH   1  14
BRANCH   3  17
ATOM     17  N   UNL     1       3.140   6.574  18.509  0.00  0.00    +0.000 N 
ATOM     18  H   UNL     1       3.871   6.446  19.202  0.00  0.00    +0.000 HD
BRANCH  17  19
ATOM     19  C   UNL     1       2.610   5.293  18.041  0.00  0.00    +0.000 C 
BRANCH  19  20
ATOM     20  C   UNL     1       2.438   4.294  19.168  0.00  0.00    +0.000 A 
ATOM     21  C   UNL     1       1.194   4.134  19.812  0.00  0.00    +0.000 A 
ATOM     22  C   UNL     1       1.043   3.261  20.892  0.00  0.00    +0.000 A 
ATOM     23  C   UNL     1       2.133   2.530  21.353  0.00  0.00    +0.000 A 
ATOM     24  C   UNL     1       3.374   2.679  20.740  0.00  0.00    +0.000 A 
ATOM     25  C   UNL     1       3.529   3.558  19.662  0.00  0.00    +0.000 A 
ATOM     26 CL   UNL     1       5.113   3.703  18.984  0.00  0.00    +0.000 Cl
ENDBRANCH  19  20
ENDBRANCH  17  19
ENDBRANCH   3  17
TORSDOF 6
ENDMDL
MODEL 3
REMARK VINA RESULT:      -7.3      2.402      3.176
REMARK  Name = 
REMARK  6 active torsions:
REMARK  status: ('A' for Active; 'I' for Inactive)
REMARK    1  A    between atoms: C_2  and  O_3
REMARK    2  A    between atoms: C_2  and  C_4
REMARK    3  A    between atoms: C_6  and  N_7
REMARK    4  A    between atoms: N_7  and  C_8
REMARK    5  A    between atoms: C_8  and  C_9
REMARK    6  A    between atoms: C_18  and  N_19
REMARK                            x       y       z     vdW  Elec       q    Type
REMARK                         _______ _______ _______ _____ _____    ______ ____
ROOT
ATOM      1  C   UNL     1       1.216   8.973  20.438  0.00  0.00    +0.000 A 
ATOM      2  C   UNL     1       1.873   7.781  20.045  0.00  0.00    +0.000 A 
ATOM      3  C   UNL     1       2.308   7.566  18.738  0.00  0.00    +0.000 A 
ATOM      4  C   UNL     1       2.038   8.566  17.811  0.00  0.00    +0.000 A 
ATOM      5  C   UNL     1       1.371   9.742  18.185  0.00  0.00    +0.000 A 
ATOM      6  C   UNL     1       0.960  10.008  19.508  0.00  0.00    +0.000 A 
ENDROOT
BRANCH   6   7
ATOM      7  N   UNL     1       0.437  11.255  19.789  0.00  0.00    +0.000 N 
ATOM      8  C   UNL     1      -1.008  11.554  19.728  0.00  0.00    +0.000 C 
ATOM      9  C   UNL     1      -1.228  12.873  18.960  0.00  0.00    +0.000 C 
ATOM     10  O   UNL     1      -0.475  13.957  19.531  0.00  0.00    +0.000 OA
ATOM     11  C   UNL     1       0.928  13.644  19.535  0.00  0.00    +0.000 C 
ATOM     12  C   UNL     1       1.228  12.369  20.342  0.00  0.00    +0.000 C 
ENDBRANCH   6   7
BRANCH   1  14
ATOM     13  O   UNL     1       1.408   9.413  22.786  0.00  0.00    +0.000 OA
ATOM     14  C   UNL     1       0.750   9.003  21.845  0.00  0.00    +0.000 C 
BRANCH  14  15
ATOM     15  O   UNL     1      -0.512   8.522  21.999  0.00  0.00    +0.000 OA
ATOM     16  H   UNL     1      -0.853   8.010  21.242  0.00  0.00    +0.000 HD
ENDBRANCH  14  15
ENDBRANCH   1  14
BRANCH   3  17
ATOM     17  N   UNL     1       3.097   6.454  18.465  0.00  0.00    +0.000 N 
ATOM     18  H   UNL     1       3.862   6.315  19.119  0.00  0.00    +0.000 HD
BRANCH  17  19
ATOM     19  C   UNL     1       2.500   5.183  18.056  0.00  0.00    +0.000 C 
BRANCH  19  20
ATOM     20  C   UNL     1       2.377   4.207  19.207  0.00  0.00    +0.000 A 
ATOM     21  C   UNL     1       1.152   4.030  19.882  0.00  0.00    +0.000 A 
ATOM     22  C   UNL     1       1.046   3.177  20.983  0.00  0.00    +0.000 A 
ATOM     23  C   UNL     1       2.164   2.486  21.438  0.00  0.00    +0.000 A 
ATOM     24  C   UNL     1       3.387   2.652  20.795  0.00  0.00    +0.000 A 
ATOM     25  C   UNL     1       3.497   3.510  19.694  0.00  0.00    +0.000 A 
ATOM     26 CL   UNL     1       5.063   3.680  18.980  0.00  0.00    +0.000 Cl
ENDBRANCH  19  20
ENDBRANCH  17  19
ENDBRANCH   3  17
TORSDOF 6
ENDMDL
MODEL 4
REMARK VINA RESULT:      -7.3      2.210      3.521
REMARK  Name = 
REMARK  6 active torsions:
REMARK  status: ('A' for Active; 'I' for Inactive)
REMARK    1  A    between atoms: C_2  and  O_3
REMARK    2  A    between atoms: C_2  and  C_4
REMARK    3  A    between atoms: C_6  and  N_7
REMARK    4  A    between atoms: N_7  and  C_8
REMARK    5  A    between atoms: C_8  and  C_9
REMARK    6  A    between atoms: C_18  and  N_19
REMARK                            x       y       z     vdW  Elec       q    Type
REMARK                         _______ _______ _______ _____ _____    ______ ____
ROOT
ATOM      1  C   UNL     1       1.146   9.131  20.491  0.00  0.00    +0.000 A 
ATOM      2  C   UNL     1       1.893   8.015  20.040  0.00  0.00    +0.000 A 
ATOM      3  C   UNL     1       2.257   7.852  18.705  0.00  0.00    +0.000 A 
ATOM      4  C   UNL     1       1.824   8.824  17.810  0.00  0.00    +0.000 A 
ATOM      5  C   UNL     1       1.068   9.924  18.243  0.00  0.00    +0.000 A 
ATOM      6  C   UNL     1       0.724  10.139  19.593  0.00  0.00    +0.000 A 
ENDROOT
BRANCH   6   7
ATOM      7  N   UNL     1       0.097  11.325  19.924  0.00  0.00    +0.000 N 
ATOM      8  C   UNL     1       0.829  12.521  20.385  0.00  0.00    +0.000 C 
ATOM      9  C   UNL     1       0.129  13.107  21.627  0.00  0.00    +0.000 C 
ATOM     10  O   UNL     1      -1.259  13.386  21.377  0.00  0.00    +0.000 OA
ATOM     11  C   UNL     1      -1.945  12.189  20.971  0.00  0.00    +0.000 C 
ATOM     12  C   UNL     1      -1.335  11.585  19.694  0.00  0.00    +0.000 C 
ENDBRANCH   6   7
BRANCH   1  14
ATOM     13  O   UNL     1      -0.354   8.941  22.351  0.00  0.00    +0.000 OA
ATOM     14  C   UNL     1       0.777   9.105  21.927  0.00  0.00    +0.000 C 
BRANCH  14  15
ATOM     15  O   UNL     1       1.840   9.285  22.753  0.00  0.00    +0.000 OA
ATOM     16  H   UNL     1       1.722   9.973  23.435  0.00  0.00    +0.000 HD
ENDBRANCH  14  15
ENDBRANCH   1  14
BRANCH   3  17
ATOM     17  N   UNL     1       3.135   6.828  18.365  0.00  0.00    +0.000 N 
ATOM     18  H   UNL     1       3.955   7.136  17.850  0.00  0.00    +0.000 HD
BRANCH  17  19
ATOM     19  C   UNL     1       3.462   5.765  19.315  0.00  0.00    +0.000 C 
BRANCH  19  20
ATOM     20  C   UNL     1       2.585   4.543  19.137  0.00  0.00    +0.000 A 
ATOM     21  C   UNL     1       1.530   4.269  20.030  0.00  0.00    +0.000 A 
ATOM     22  C   UNL     1       0.756   3.113  19.909  0.00  0.00    +0.000 A 
ATOM     23  C   UNL     1       1.023   2.202  18.892  0.00  0.00    +0.000 A 
ATOM     24  C   UNL     1       2.066   2.444  18.003  0.00  0.00    +0.000 A 
ATOM     25  C   UNL     1       2.846   3.600  18.127  0.00  0.00    +0.000 A 
ATOM     26 CL   UNL     1       4.142   3.801  16.999  0.00  0.00    +0.000 Cl
ENDBRANCH  19  20
ENDBRANCH  17  19
ENDBRANCH   3  17
TORSDOF 6
ENDMDL
MODEL 5
REMARK VINA RESULT:      -7.3      1.409      1.868
REMARK  Name = 
REMARK  6 active torsions:
REMARK  status: ('A' for Active; 'I' for Inactive)
REMARK    1  A    between atoms: C_2  and  O_3
REMARK    2  A    between atoms: C_2  and  C_4
REMARK    3  A    between atoms: C_6  and  N_7
REMARK    4  A    between atoms: N_7  and  C_8
REMARK    5  A    between atoms: C_8  and  C_9
REMARK    6  A    between atoms: C_18  and  N_19
REMARK                            x       y       z     vdW  Elec       q    Type
REMARK                         _______ _______ _______ _____ _____    ______ ____
ROOT
ATOM      1  C   UNL     1       1.203   8.634  20.464  0.00  0.00    +0.000 A 
ATOM      2  C   UNL     1       1.839   7.372  20.366  0.00  0.00    +0.000 A 
ATOM      3  C   UNL     1       2.415   6.917  19.182  0.00  0.00    +0.000 A 
ATOM      4  C   UNL     1       2.312   7.747  18.071  0.00  0.00    +0.000 A 
ATOM      5  C   UNL     1       1.669   8.991  18.152  0.00  0.00    +0.000 A 
ATOM      6  C   UNL     1       1.117   9.497  19.346  0.00  0.00    +0.000 A 
ENDROOT
BRANCH   6   7
ATOM      7  N   UNL     1       0.631  10.791  19.342  0.00  0.00    +0.000 N 
ATOM      8  C   UNL     1      -0.810  11.109  19.297  0.00  0.00    +0.000 C 
ATOM      9  C   UNL     1      -1.063  12.204  18.243  0.00  0.00    +0.000 C 
ATOM     10  O   UNL     1      -0.259  13.373  18.481  0.00  0.00    +0.000 OA
ATOM     11  C   UNL     1       1.137  13.028  18.477  0.00  0.00    +0.000 C 
ATOM     12  C   UNL     1       1.472  11.982  19.554  0.00  0.00    +0.000 C 
ENDBRANCH   6   7
BRANCH   1  14
ATOM     13  O   UNL     1      -0.556   8.595  22.091  0.00  0.00    +0.000 OA
ATOM     14  C   UNL     1       0.574   8.926  21.775  0.00  0.00    +0.000 C 
BRANCH  14  15
ATOM     15  O   UNL     1       1.391   9.611  22.617  0.00  0.00    +0.000 OA
ATOM     16  H   UNL     1       1.606  10.519  22.335  0.00  0.00    +0.000 HD
ENDBRANCH  14  15
ENDBRANCH   1  14
BRANCH   3  17
ATOM     17  N   UNL     1       3.171   5.750  19.205  0.00  0.00    +0.000 N 
ATOM     18  H   UNL     1       2.855   5.035  18.556  0.00  0.00    +0.000 HD
BRANCH  17  19
ATOM     19  C   UNL     1       4.631   5.795  19.287  0.00  0.00    +0.000 C 
BRANCH  19  20
ATOM     20  C   UNL     1       5.296   5.278  18.028  0.00  0.00    +0.000 A 
ATOM     21  C   UNL     1       4.530   4.794  16.948  0.00  0.00    +0.000 A 
ATOM     22  C   UNL     1       5.136   4.259  15.809  0.00  0.00    +0.000 A 
ATOM     23  C   UNL     1       6.523   4.190  15.727  0.00  0.00    +0.000 A 
ATOM     24  C   UNL     1       7.301   4.652  16.785  0.00  0.00    +0.000 A 
ATOM     25  C   UNL     1       6.695   5.184  17.929  0.00  0.00    +0.000 A 
ATOM     26 CL   UNL     1       7.740   5.701  19.206  0.00  0.00    +0.000 Cl
ENDBRANCH  19  20
ENDBRANCH  17  19
ENDBRANCH   3  17
TORSDOF 6
ENDMDL
MODEL 6
REMARK VINA RESULT:      -7.3      2.119      3.246
REMARK  Name = 
REMARK  6 active torsions:
REMARK  status: ('A' for Active; 'I' for Inactive)
REMARK    1  A    between atoms: C_2  and  O_3
REMARK    2  A    between atoms: C_2  and  C_4
REMARK    3  A    between atoms: C_6  and  N_7
REMARK    4  A    between atoms: N_7  and  C_8
REMARK    5  A    between atoms: C_8  and  C_9
REMARK    6  A    between atoms: C_18  and  N_19
REMARK                            x       y       z     vdW  Elec       q    Type
REMARK                         _______ _______ _______ _____ _____    ______ ____
ROOT
ATOM      1  C   UNL     1       1.184   9.092  20.502  0.00  0.00    +0.000 A 
ATOM      2  C   UNL     1       1.887   7.974  19.989  0.00  0.00    +0.000 A 
ATOM      3  C   UNL     1       2.246   7.871  18.647  0.00  0.00    +0.000 A 
ATOM      4  C   UNL     1       1.853   8.906  17.808  0.00  0.00    +0.000 A 
ATOM      5  C   UNL     1       1.140  10.010  18.300  0.00  0.00    +0.000 A 
ATOM      6  C   UNL     1       0.803  10.163  19.661  0.00  0.00    +0.000 A 
ENDROOT
BRANCH   6   7
ATOM      7  N   UNL     1       0.222  11.353  20.057  0.00  0.00    +0.000 N 
ATOM      8  C   UNL     1      -1.239  11.563  20.091  0.00  0.00    +0.000 C 
ATOM      9  C   UNL     1      -1.581  12.914  19.432  0.00  0.00    +0.000 C 
ATOM     10  O   UNL     1      -0.863  14.003  20.040  0.00  0.00    +0.000 OA
ATOM     11  C   UNL     1       0.554  13.780  19.949  0.00  0.00    +0.000 C 
ATOM     12  C   UNL     1       0.974  12.474  20.647  0.00  0.00    +0.000 C 
ENDBRANCH   6   7
BRANCH   1  14
ATOM     13  O   UNL     1      -0.307   8.747  22.347  0.00  0.00    +0.000 OA
ATOM     14  C   UNL     1       0.812   9.003  21.935  0.00  0.00    +0.000 C 
BRANCH  14  15
ATOM     15  O   UNL     1       1.856   9.236  22.771  0.00  0.00    +0.000 OA
ATOM     16  H   UNL     1       2.607   8.621  22.675  0.00  0.00    +0.000 HD
ENDBRANCH  14  15
ENDBRANCH   1  14
BRANCH   3  17
ATOM     17  N   UNL     1       3.084   6.834  18.251  0.00  0.00    +0.000 N 
ATOM     18  H   UNL     1       3.866   7.127  17.673  0.00  0.00    +0.000 HD
BRANCH  17  19
ATOM     19  C   UNL     1       3.471   5.774  19.184  0.00  0.00    +0.000 C 
BRANCH  19  20
ATOM     20  C   UNL     1       2.611   4.536  19.037  0.00  0.00    +0.000 A 
ATOM     21  C   UNL     1       1.558   4.272  19.936  0.00  0.00    +0.000 A 
ATOM     22  C   UNL     1       0.800   3.102  19.844  0.00  0.00    +0.000 A 
ATOM     23  C   UNL     1       1.082   2.167  18.854  0.00  0.00    +0.000 A 
ATOM     24  C   UNL     1       2.124   2.400  17.960  0.00  0.00    +0.000 A 
ATOM     25  C   UNL     1       2.888   3.569  18.055  0.00  0.00    +0.000 A 
ATOM     26 CL   UNL     1       4.183   3.758  16.924  0.00  0.00    +0.000 Cl
ENDBRANCH  19  20
ENDBRANCH  17  19
ENDBRANCH   3  17
TORSDOF 6
ENDMDL
MODEL 7
REMARK VINA RESULT:      -7.3      0.569      1.142
REMARK  Name = 
REMARK  6 active torsions:
REMARK  status: ('A' for Active; 'I' for Inactive)
REMARK    1  A    between atoms: C_2  and  O_3
REMARK    2  A    between atoms: C_2  and  C_4
REMARK    3  A    between atoms: C_6  and  N_7
REMARK    4  A    between atoms: N_7  and  C_8
REMARK    5  A    between atoms: C_8  and  C_9
REMARK    6  A    between atoms: C_18  and  N_19
REMARK                            x       y       z     vdW  Elec       q    Type
REMARK                         _______ _______ _______ _____ _____    ______ ____
ROOT
ATOM      1  C   UNL     1       1.316   8.691  20.292  0.00  0.00    +0.000 A 
ATOM      2  C   UNL     1       1.902   7.401  20.307  0.00  0.00    +0.000 A 
ATOM      3  C   UNL     1       2.447   6.818  19.165  0.00  0.00    +0.000 A 
ATOM      4  C   UNL     1       2.363   7.544  17.984  0.00  0.00    +0.000 A 
ATOM      5  C   UNL     1       1.769   8.815  17.953  0.00  0.00    +0.000 A 
ATOM      6  C   UNL     1       1.250   9.450  19.100  0.00  0.00    +0.000 A 
ENDROOT
BRANCH   6   7
ATOM      7  N   UNL     1       0.813  10.756  18.979  0.00  0.00    +0.000 N 
ATOM      8  C   UNL     1       1.724  11.888  18.720  0.00  0.00    +0.000 C 
ATOM      9  C   UNL     1       1.390  13.048  19.678  0.00  0.00    +0.000 C 
ATOM     10  O   UNL     1       0.007  13.435  19.589  0.00  0.00    +0.000 OA
ATOM     11  C   UNL     1      -0.846  12.316  19.888  0.00  0.00    +0.000 C 
ATOM     12  C   UNL     1      -0.608  11.141  18.923  0.00  0.00    +0.000 C 
ENDBRANCH   6   7
BRANCH   1  14
ATOM     13  O   UNL     1       1.211   9.937  22.337  0.00  0.00    +0.000 OA
ATOM     14  C   UNL     1       0.713   9.127  21.575  0.00  0.00    +0.000 C 
BRANCH  14  15
ATOM     15  O   UNL     1      -0.479   8.528  21.833  0.00  0.00    +0.000 OA
ATOM     16  H   UNL     1      -0.796   7.923  21.136  0.00  0.00    +0.000 HD
ENDBRANCH  14  15
ENDBRANCH   1  14
BRANCH   3  17
ATOM     17  N   UNL     1       3.159   5.629  19.291  0.00  0.00    +0.000 N 
ATOM     18  H   UNL     1       2.653   4.888  19.767  0.00  0.00    +0.000 HD
BRANCH  17  19
ATOM     19  C   UNL     1       3.964   5.108  18.186  0.00  0.00    +0.000 C 
BRANCH  19  20
ATOM     20  C   UNL     1       5.396   5.599  18.235  0.00  0.00    +0.000 A 
ATOM     21  C   UNL     1       6.225   5.313  19.339  0.00  0.00    +0.000 A 
ATOM     22  C   UNL     1       7.526   5.813  19.419  0.00  0.00    +0.000 A 
ATOM     23  C   UNL     1       8.027   6.615  18.399  0.00  0.00    +0.000 A 
ATOM     24  C   UNL     1       7.225   6.921  17.303  0.00  0.00    +0.000 A 
ATOM     25  C   UNL     1       5.918   6.424  17.223  0.00  0.00    +0.000 A 
ATOM     26 CL   UNL     1       4.984   6.883  15.842  0.00  0.00    +0.000 Cl
ENDBRANCH  19  20
ENDBRANCH  17  19
ENDBRANCH   3  17
TORSDOF 6
ENDMDL
MODEL 8
REMARK VINA RESULT:      -7.2      1.509      2.111
REMARK  Name = 
REMARK  6 active torsions:
REMARK  status: ('A' for Active; 'I' for Inactive)
REMARK    1  A    between atoms: C_2  and  O_3
REMARK    2  A    between atoms: C_2  and  C_4
REMARK    3  A    between atoms: C_6  and  N_7
REMARK    4  A    between atoms: N_7  and  C_8
REMARK    5  A    between atoms: C_8  and  C_9
REMARK    6  A    between atoms: C_18  and  N_19
REMARK                            x       y       z     vdW  Elec       q    Type
REMARK                         _______ _______ _______ _____ _____    ______ ____
ROOT
ATOM      1  C   UNL     1       1.359   8.561  20.346  0.00  0.00    +0.000 A 
ATOM      2  C   UNL     1       1.972   7.284  20.330  0.00  0.00    +0.000 A 
ATOM      3  C   UNL     1       2.518   6.734  19.172  0.00  0.00    +0.000 A 
ATOM      4  C   UNL     1       2.407   7.481  18.006  0.00  0.00    +0.000 A 
ATOM      5  C   UNL     1       1.786   8.739  18.006  0.00  0.00    +0.000 A 
ATOM      6  C   UNL     1       1.266   9.341  19.170  0.00  0.00    +0.000 A 
ENDROOT
BRANCH   6   7
ATOM      7  N   UNL     1       0.801  10.639  19.079  0.00  0.00    +0.000 N 
ATOM      8  C   UNL     1       1.694  11.805  18.928  0.00  0.00    +0.000 C 
ATOM      9  C   UNL     1       1.268  12.911  19.914  0.00  0.00    +0.000 C 
ATOM     10  O   UNL     1      -0.117  13.267  19.753  0.00  0.00    +0.000 OA
ATOM     11  C   UNL     1      -0.955  12.114  19.947  0.00  0.00    +0.000 C 
ATOM     12  C   UNL     1      -0.624  10.991  18.948  0.00  0.00    +0.000 C 
ENDBRANCH   6   7
BRANCH   1  14
ATOM     13  O   UNL     1       1.331   9.608  22.502  0.00  0.00    +0.000 OA
ATOM     14  C   UNL     1       0.760   8.959  21.643  0.00  0.00    +0.000 C 
BRANCH  14  15
ATOM     15  O   UNL     1      -0.519   8.524  21.794  0.00  0.00    +0.000 OA
ATOM     16  H   UNL     1      -0.956   8.807  22.619  0.00  0.00    +0.000 HD
ENDBRANCH  14  15
ENDBRANCH   1  14
BRANCH   3  17
ATOM     17  N   UNL     1       3.255   5.558  19.267  0.00  0.00    +0.000 N 
ATOM     18  H   UNL     1       2.917   4.804  18.676  0.00  0.00    +0.000 HD
BRANCH  17  19
ATOM     19  C   UNL     1       4.717   5.583  19.325  0.00  0.00    +0.000 C 
BRANCH  19  20
ATOM     20  C   UNL     1       5.353   5.138  18.025  0.00  0.00    +0.000 A 
ATOM     21  C   UNL     1       4.569   4.639  16.966  0.00  0.00    +0.000 A 
ATOM     22  C   UNL     1       5.154   4.169  15.787  0.00  0.00    +0.000 A 
ATOM     23  C   UNL     1       6.537   4.184  15.644  0.00  0.00    +0.000 A 
ATOM     24  C   UNL     1       7.334   4.661  16.681  0.00  0.00    +0.000 A 
ATOM     25  C   UNL     1       6.750   5.127  17.864  0.00  0.00    +0.000 A 
ATOM     26 CL   UNL     1       7.820   5.671  19.110  0.00  0.00    +0.000 Cl
ENDBRANCH  19  20
ENDBRANCH  17  19
ENDBRANCH   3  17
TORSDOF 6
ENDMDL
MODEL 9
REMARK VINA RESULT:      -7.2      1.907      2.128
REMARK  Name = 
REMARK  6 active torsions:
REMARK  status: ('A' for Active; 'I' for Inactive)
REMARK    1  A    between atoms: C_2  and  O_3
REMARK    2  A    between atoms: C_2  and  C_4
REMARK    3  A    between atoms: C_6  and  N_7
REMARK    4  A    between atoms: N_7  and  C_8
REMARK    5  A    between atoms: C_8  and  C_9
REMARK    6  A    between atoms: C_18  and  N_19
REMARK                            x       y       z     vdW  Elec       q    Type
REMARK                         _______ _______ _______ _____ _____    ______ ____
ROOT
ATOM      1  C   UNL     1       0.802   9.066  21.235  0.00  0.00    +0.000 A 
ATOM      2  C   UNL     1       1.497   7.851  21.014  0.00  0.00    +0.000 A 
ATOM      3  C   UNL     1       2.077   7.538  19.787  0.00  0.00    +0.000 A 
ATOM      4  C   UNL     1       1.918   8.461  18.760  0.00  0.00    +0.000 A 
ATOM      5  C   UNL     1       1.216   9.659  18.962  0.00  0.00    +0.000 A 
ATOM      6  C   UNL     1       0.658  10.023  20.204  0.00  0.00    +0.000 A 
ENDROOT
BRANCH   6   7
ATOM      7  N   UNL     1       0.109  11.286  20.326  0.00  0.00    +0.000 N 
ATOM      8  C   UNL     1      -1.330  11.559  20.143  0.00  0.00    +0.000 C 
ATOM      9  C   UNL     1      -1.509  12.792  19.235  0.00  0.00    +0.000 C 
ATOM     10  O   UNL     1      -0.802  13.937  19.742  0.00  0.00    +0.000 OA
ATOM     11  C   UNL     1       0.600  13.644  19.867  0.00  0.00    +0.000 C 
ATOM     12  C   UNL     1       0.855  12.458  20.815  0.00  0.00    +0.000 C 
ENDBRANCH   6   7
BRANCH   1  14
ATOM     13  O   UNL     1       0.629   9.875  23.485  0.00  0.00    +0.000 OA
ATOM     14  C   UNL     1       0.178   9.203  22.574  0.00  0.00    +0.000 C 
BRANCH  14  15
ATOM     15  O   UNL     1      -0.974   8.494  22.699  0.00  0.00    +0.000 OA
ATOM     16  H   UNL     1      -1.469   8.653  23.524  0.00  0.00    +0.000 HD
ENDBRANCH  14  15
ENDBRANCH   1  14
BRANCH   3  17
ATOM     17  N   UNL     1       2.890   6.413  19.693  0.00  0.00    +0.000 N 
ATOM     18  H   UNL     1       3.161   6.018  20.589  0.00  0.00    +0.000 HD
BRANCH  17  19
ATOM     19  C   UNL     1       2.628   5.370  18.701  0.00  0.00    +0.000 C 
BRANCH  19  20
ATOM     20  C   UNL     1       3.711   5.294  17.645  0.00  0.00    +0.000 A 
ATOM     21  C   UNL     1       4.283   6.464  17.106  0.00  0.00    +0.000 A 
ATOM     22  C   UNL     1       5.239   6.404  16.088  0.00  0.00    +0.000 A 
ATOM     23  C   UNL     1       5.639   5.171  15.583  0.00  0.00    +0.000 A 
ATOM     24  C   UNL     1       5.080   4.001  16.091  0.00  0.00    +0.000 A 
ATOM     25  C   UNL     1       4.119   4.061  17.107  0.00  0.00    +0.000 A 
ATOM     26 CL   UNL     1       3.456   2.559  17.653  0.00  0.00    +0.000 Cl
ENDBRANCH  19  20
ENDBRANCH  17  19
ENDBRANCH   3  17
TORSDOF 6
ENDMDL
