MODEL 1
REMARK VINA RESULT:      -8.0      0.000      0.000
REMARK  Name = 
REMARK  8 active torsions:
REMARK  status: ('A' for Active; 'I' for Inactive)
REMARK    1  A    between atoms: C_1  and  C_2
REMARK    2  A    between atoms: C_2  and  C_3
REMARK    3  A    between atoms: C_2  and  C_4
REMARK    4  A    between atoms: C_4  and  C_5
REMARK    5  A    between atoms: C_5  and  N_6
REMARK    6  A    between atoms: C_5  and  C_7
REMARK    7  A    between atoms: N_15  and  C_16
REMARK    8  A    between atoms: C_16  and  C_17
REMARK                            x       y       z     vdW  Elec       q    Type
REMARK                         _______ _______ _______ _____ _____    ______ ____
ROOT
ATOM      1  C   UNL     1       4.921   4.085  19.014  0.00  0.00    +0.000 A 
ATOM      2  N   UNL     1       6.212   4.176  19.286  0.00  0.00    +0.000 NA
ATOM      3  C   UNL     1       6.629   5.364  18.758  0.00  0.00    +0.000 A 
ATOM      4  C   UNL     1       7.913   5.931  18.754  0.00  0.00    +0.000 A 
ATOM      5  C   UNL     1       8.101   7.174  18.138  0.00  0.00    +0.000 A 
ATOM      6  C   UNL     1       7.026   7.849  17.558  0.00  0.00    +0.000 A 
ATOM      7  C   UNL     1       5.738   7.301  17.558  0.00  0.00    +0.000 A 
ATOM      8  C   UNL     1       5.576   6.040  18.152  0.00  0.00    +0.000 A 
ATOM      9  N   UNL     1       4.504   5.178  18.277  0.00  0.00    +0.000 N 
ENDROOT
BRANCH   1  10
ATOM     10  C   UNL     1       4.065   2.898  19.364  0.00  0.00    +0.000 C 
BRANCH  10  11
ATOM     11  N   UNL     1       4.955   1.810  19.806  0.00  0.00    +0.000 NA
ATOM     12  H   UNL     1       5.550   2.207  20.541  0.00  0.00    +0.000 HD
ATOM     13  H   UNL     1       5.611   1.606  19.050  0.00  0.00    +0.000 HD
ENDBRANCH  10  11
BRANCH  10  14
ATOM     14  C   UNL     1       3.077   3.206  20.508  0.00  0.00    +0.000 C 
BRANCH  14  16
ATOM     15  C   UNL     1       0.640   3.987  20.396  0.00  0.00    +0.000 C 
ATOM     16  C   UNL     1       1.605   2.810  20.256  0.00  0.00    +0.000 C 
ATOM     17  C   UNL     1       1.471   2.213  18.849  0.00  0.00    +0.000 C 
ENDBRANCH  14  16
ENDBRANCH  10  14
ENDBRANCH   1  10
BRANCH   9  18
ATOM     18  C   UNL     1       3.173   5.409  17.735  0.00  0.00    +0.000 C 
BRANCH  18  19
ATOM     19  C   UNL     1       2.500   6.639  18.301  0.00  0.00    +0.000 A 
ATOM     20  C   UNL     1       2.181   7.737  17.484  0.00  0.00    +0.000 A 
ATOM     21  C   UNL     1       1.660   8.915  18.030  0.00  0.00    +0.000 A 
ATOM     22  C   UNL     1       1.445   9.010  19.402  0.00  0.00    +0.000 A 
ATOM     23  C   UNL     1       1.737   7.922  20.214  0.00  0.00    +0.000 A 
ATOM     24  F   UNL     1       1.534   8.011  21.533  0.00  0.00    +0.000 F 
ATOM     25  C   UNL     1       2.257   6.745  19.679  0.00  0.00    +0.000 A 
ENDBRANCH  18  19
ENDBRANCH   9  18
TORSDOF 6
ENDMDL
MODEL 2
REMARK VINA RESULT:      -7.8      1.132      1.608
REMARK  Name = 
REMARK  8 active torsions:
REMARK  status: ('A' for Active; 'I' for Inactive)
REMARK    1  A    between atoms: C_1  and  C_2
REMARK    2  A    between atoms: C_2  and  C_3
REMARK    3  A    between atoms: C_2  and  C_4
REMARK    4  A    between atoms: C_4  and  C_5
REMARK    5  A    between atoms: C_5  and  N_6
REMARK    6  A    between atoms: C_5  and  C_7
REMARK    7  A    between atoms: N_15  and  C_16
REMARK    8  A    between atoms: C_16  and  C_17
REMARK                            x       y       z     vdW  Elec       q    Type
REMARK                         _______ _______ _______ _____ _____    ______ ____
ROOT
ATOM      1  C   UNL     1       4.523   4.045  18.805  0.00  0.00    +0.000 A 
ATOM      2  N   UNL     1       5.823   3.938  19.020  0.00  0.00    +0.000 NA
ATOM      3  C   UNL     1       6.377   5.106  18.581  0.00  0.00    +0.000 A 
ATOM      4  C   UNL     1       7.726   5.497  18.564  0.00  0.00    +0.000 A 
ATOM      5  C   UNL     1       8.057   6.757  18.053  0.00  0.00    +0.000 A 
ATOM      6  C   UNL     1       7.064   7.620  17.589  0.00  0.00    +0.000 A 
ATOM      7  C   UNL     1       5.713   7.248  17.603  0.00  0.00    +0.000 A 
ATOM      8  C   UNL     1       5.404   5.970  18.089  0.00  0.00    +0.000 A 
ATOM      9  N   UNL     1       4.230   5.248  18.189  0.00  0.00    +0.000 N 
ENDROOT
BRANCH   1  10
ATOM     10  C   UNL     1       3.527   2.952  19.090  0.00  0.00    +0.000 C 
BRANCH  10  11
ATOM     11  N   UNL     1       4.105   1.679  18.628  0.00  0.00    +0.000 NA
ATOM     12  H   UNL     1       3.626   0.939  19.154  0.00  0.00    +0.000 HD
ATOM     13  H   UNL     1       5.068   1.625  18.962  0.00  0.00    +0.000 HD
ENDBRANCH  10  11
BRANCH  10  14
ATOM     14  C   UNL     1       3.215   2.823  20.595  0.00  0.00    +0.000 C 
BRANCH  14  16
ATOM     15  C   UNL     1       0.837   3.469  19.897  0.00  0.00    +0.000 C 
ATOM     16  C   UNL     1       1.836   3.353  21.048  0.00  0.00    +0.000 C 
ATOM     17  C   UNL     1       1.261   2.425  22.124  0.00  0.00    +0.000 C 
ENDBRANCH  14  16
ENDBRANCH  10  14
ENDBRANCH   1  10
BRANCH   9  18
ATOM     18  C   UNL     1       2.924   5.702  17.736  0.00  0.00    +0.000 C 
BRANCH  18  19
ATOM     19  C   UNL     1       2.412   6.907  18.494  0.00  0.00    +0.000 A 
ATOM     20  C   UNL     1       2.175   6.850  19.878  0.00  0.00    +0.000 A 
ATOM     21  C   UNL     1       1.599   7.930  20.556  0.00  0.00    +0.000 A 
ATOM     22  C   UNL     1       1.255   9.085  19.859  0.00  0.00    +0.000 A 
ATOM     23  C   UNL     1       1.505   9.157  18.495  0.00  0.00    +0.000 A 
ATOM     24  F   UNL     1       1.174  10.265  17.822  0.00  0.00    +0.000 F 
ATOM     25  C   UNL     1       2.079   8.087  17.812  0.00  0.00    +0.000 A 
ENDBRANCH  18  19
ENDBRANCH   9  18
TORSDOF 6
ENDMDL
MODEL 3
REMARK VINA RESULT:      -7.6      1.209      4.519
REMARK  Name = 
REMARK  8 active torsions:
REMARK  status: ('A' for Active; 'I' for Inactive)
REMARK    1  A    between atoms: C_1  and  C_2
REMARK    2  A    between atoms: C_2  and  C_3
REMARK    3  A    between atoms: C_2  and  C_4
REMARK    4  A    between atoms: C_4  and  C_5
REMARK    5  A    between atoms: C_5  and  N_6
REMARK    6  A    between atoms: C_5  and  C_7
REMARK    7  A    between atoms: N_15  and  C_16
REMARK    8  A    between atoms: C_16  and  C_17
REMARK                            x       y       z     vdW  Elec       q    Type
REMARK                         _______ _______ _______ _____ _____    ______ ____
ROOT
ATOM      1  C   UNL     1       5.088   4.655  18.887  0.00  0.00    +0.000 A 
ATOM      2  N   UNL     1       4.890   3.506  19.511  0.00  0.00    +0.000 NA
ATOM      3  C   UNL     1       3.581   3.178  19.297  0.00  0.00    +0.000 A 
ATOM      4  C   UNL     1       2.859   2.065  19.758  0.00  0.00    +0.000 A 
ATOM      5  C   UNL     1       1.509   1.946  19.409  0.00  0.00    +0.000 A 
ATOM      6  C   UNL     1       0.896   2.903  18.599  0.00  0.00    +0.000 A 
ATOM      7  C   UNL     1       1.604   4.015  18.126  0.00  0.00    +0.000 A 
ATOM      8  C   UNL     1       2.946   4.135  18.513  0.00  0.00    +0.000 A 
ATOM      9  N   UNL     1       3.913   5.100  18.308  0.00  0.00    +0.000 N 
ENDROOT
BRANCH   1  10
ATOM     10  C   UNL     1       6.386   5.416  18.910  0.00  0.00    +0.000 C 
BRANCH  10  11
ATOM     11  N   UNL     1       7.041   5.159  20.204  0.00  0.00    +0.000 NA
ATOM     12  H   UNL     1       7.619   5.984  20.402  0.00  0.00    +0.000 HD
ATOM     13  H   UNL     1       7.724   4.412  20.074  0.00  0.00    +0.000 HD
ENDBRANCH  10  11
BRANCH  10  14
ATOM     14  C   UNL     1       7.346   4.970  17.787  0.00  0.00    +0.000 C 
BRANCH  14  16
ATOM     15  C   UNL     1       6.404   5.406  15.446  0.00  0.00    +0.000 C 
ATOM     16  C   UNL     1       7.378   5.867  16.530  0.00  0.00    +0.000 C 
ATOM     17  C   UNL     1       7.047   7.311  16.924  0.00  0.00    +0.000 C 
ENDBRANCH  14  16
ENDBRANCH  10  14
ENDBRANCH   1  10
BRANCH   9  18
ATOM     18  C   UNL     1       3.713   6.351  17.592  0.00  0.00    +0.000 C 
BRANCH  18  19
ATOM     19  C   UNL     1       2.767   7.299  18.294  0.00  0.00    +0.000 A 
ATOM     20  C   UNL     1       2.245   8.426  17.637  0.00  0.00    +0.000 A 
ATOM     21  C   UNL     1       1.459   9.360  18.323  0.00  0.00    +0.000 A 
ATOM     22  C   UNL     1       1.180   9.176  19.674  0.00  0.00    +0.000 A 
ATOM     23  C   UNL     1       1.674   8.053  20.324  0.00  0.00    +0.000 A 
ATOM     24  F   UNL     1       1.409   7.875  21.623  0.00  0.00    +0.000 F 
ATOM     25  C   UNL     1       2.457   7.118  19.651  0.00  0.00    +0.000 A 
ENDBRANCH  18  19
ENDBRANCH   9  18
TORSDOF 6
ENDMDL
MODEL 4
REMARK VINA RESULT:      -7.6      1.877      5.393
REMARK  Name = 
REMARK  8 active torsions:
REMARK  status: ('A' for Active; 'I' for Inactive)
REMARK    1  A    between atoms: C_1  and  C_2
REMARK    2  A    between atoms: C_2  and  C_3
REMARK    3  A    between atoms: C_2  and  C_4
REMARK    4  A    between atoms: C_4  and  C_5
REMARK    5  A    between atoms: C_5  and  N_6
REMARK    6  A    between atoms: C_5  and  C_7
REMARK    7  A    between atoms: N_15  and  C_16
REMARK    8  A    between atoms: C_16  and  C_17
REMARK                            x       y       z     vdW  Elec       q    Type
REMARK                         _______ _______ _______ _____ _____    ______ ____
ROOT
ATOM      1  C   UNL     1       4.580   6.319  17.223  0.00  0.00    +0.000 A 
ATOM      2  N   UNL     1       4.039   7.448  16.795  0.00  0.00    +0.000 NA
ATOM      3  C   UNL     1       3.142   7.825  17.752  0.00  0.00    +0.000 A 
ATOM      4  C   UNL     1       2.289   8.941  17.778  0.00  0.00    +0.000 A 
ATOM      5  C   UNL     1       1.441   9.117  18.878  0.00  0.00    +0.000 A 
ATOM      6  C   UNL     1       1.459   8.213  19.941  0.00  0.00    +0.000 A 
ATOM      7  C   UNL     1       2.306   7.099  19.934  0.00  0.00    +0.000 A 
ATOM      8  C   UNL     1       3.125   6.922  18.809  0.00  0.00    +0.000 A 
ATOM      9  N   UNL     1       4.012   5.935  18.424  0.00  0.00    +0.000 N 
ENDROOT
BRANCH   1  10
ATOM     10  C   UNL     1       5.588   5.517  16.444  0.00  0.00    +0.000 C 
BRANCH  10  11
ATOM     11  N   UNL     1       5.379   5.791  15.013  0.00  0.00    +0.000 NA
ATOM     12  H   UNL     1       5.319   4.876  14.551  0.00  0.00    +0.000 HD
ATOM     13  H   UNL     1       6.236   6.195  14.635  0.00  0.00    +0.000 HD
ENDBRANCH  10  11
BRANCH  10  14
ATOM     14  C   UNL     1       7.040   5.897  16.801  0.00  0.00    +0.000 C 
BRANCH  14  16
ATOM     15  C   UNL     1       8.011   5.977  19.169  0.00  0.00    +0.000 C 
ATOM     16  C   UNL     1       7.225   6.724  18.092  0.00  0.00    +0.000 C 
ATOM     17  C   UNL     1       7.947   8.036  17.760  0.00  0.00    +0.000 C 
ENDBRANCH  14  16
ENDBRANCH  10  14
ENDBRANCH   1  10
BRANCH   9  18
ATOM     18  C   UNL     1       4.296   4.721  19.175  0.00  0.00    +0.000 C 
BRANCH  18  19
ATOM     19  C   UNL     1       3.081   3.843  19.377  0.00  0.00    +0.000 A 
ATOM     20  C   UNL     1       2.308   3.408  18.288  0.00  0.00    +0.000 A 
ATOM     21  C   UNL     1       1.124   2.688  18.487  0.00  0.00    +0.000 A 
ATOM     22  C   UNL     1       0.700   2.389  19.779  0.00  0.00    +0.000 A 
ATOM     23  C   UNL     1       1.471   2.797  20.859  0.00  0.00    +0.000 A 
ATOM     24  F   UNL     1       1.065   2.513  22.102  0.00  0.00    +0.000 F 
ATOM     25  C   UNL     1       2.651   3.514  20.672  0.00  0.00    +0.000 A 
ENDBRANCH  18  19
ENDBRANCH   9  18
TORSDOF 6
ENDMDL
MODEL 5
REMARK VINA RESULT:      -7.6      2.219      4.805
REMARK  Name = 
REMARK  8 active torsions:
REMARK  status: ('A' for Active; 'I' for Inactive)
REMARK    1  A    between atoms: C_1  and  C_2
REMARK    2  A    between atoms: C_2  and  C_3
REMARK    3  A    between atoms: C_2  and  C_4
REMARK    4  A    between atoms: C_4  and  C_5
REMARK    5  A    between atoms: C_5  and  N_6
REMARK    6  A    between atoms: C_5  and  C_7
REMARK    7  A    between atoms: N_15  and  C_16
REMARK    8  A    between atoms: C_16  and  C_17
REMARK                            x       y       z     vdW  Elec       q    Type
REMARK                         _______ _______ _______ _____ _____    ______ ____
ROOT
ATOM      1  C   UNL     1       2.416   5.579  19.906  0.00  0.00    +0.000 A 
ATOM      2  N   UNL     1       1.692   6.460  20.575  0.00  0.00    +0.000 NA
ATOM      3  C   UNL     1       1.709   7.607  19.833  0.00  0.00    +0.000 A 
ATOM      4  C   UNL     1       1.111   8.847  20.105  0.00  0.00    +0.000 A 
ATOM      5  C   UNL     1       1.275   9.891  19.186  0.00  0.00    +0.000 A 
ATOM      6  C   UNL     1       2.000   9.696  18.010  0.00  0.00    +0.000 A 
ATOM      7  C   UNL     1       2.599   8.463  17.721  0.00  0.00    +0.000 A 
ATOM      8  C   UNL     1       2.450   7.439  18.668  0.00  0.00    +0.000 A 
ATOM      9  N   UNL     1       2.941   6.152  18.762  0.00  0.00    +0.000 N 
ENDROOT
BRANCH   1  10
ATOM     10  C   UNL     1       2.713   4.186  20.392  0.00  0.00    +0.000 C 
BRANCH  10  11
ATOM     11  N   UNL     1       2.396   4.129  21.829  0.00  0.00    +0.000 NA
ATOM     12  H   UNL     1       2.435   3.138  22.093  0.00  0.00    +0.000 HD
ATOM     13  H   UNL     1       1.413   4.372  21.950  0.00  0.00    +0.000 HD
ENDBRANCH  10  11
BRANCH  10  14
ATOM     14  C   UNL     1       1.864   3.119  19.669  0.00  0.00    +0.000 C 
BRANCH  14  16
ATOM     15  C   UNL     1       2.595   2.220  17.385  0.00  0.00    +0.000 C 
ATOM     16  C   UNL     1       2.651   2.034  18.902  0.00  0.00    +0.000 C 
ATOM     17  C   UNL     1       4.115   2.047  19.357  0.00  0.00    +0.000 C 
ENDBRANCH  14  16
ENDBRANCH  10  14
ENDBRANCH   1  10
BRANCH   9  18
ATOM     18  C   UNL     1       3.839   5.523  17.803  0.00  0.00    +0.000 C 
BRANCH  18  19
ATOM     19  C   UNL     1       5.299   5.809  18.073  0.00  0.00    +0.000 A 
ATOM     20  C   UNL     1       5.977   5.192  19.138  0.00  0.00    +0.000 A 
ATOM     21  C   UNL     1       7.296   5.541  19.450  0.00  0.00    +0.000 A 
ATOM     22  C   UNL     1       7.957   6.509  18.699  0.00  0.00    +0.000 A 
ATOM     23  C   UNL     1       7.300   7.107  17.632  0.00  0.00    +0.000 A 
ATOM     24  F   UNL     1       7.932   8.039  16.909  0.00  0.00    +0.000 F 
ATOM     25  C   UNL     1       5.988   6.766  17.312  0.00  0.00    +0.000 A 
ENDBRANCH  18  19
ENDBRANCH   9  18
TORSDOF 6
ENDMDL
MODEL 6
REMARK VINA RESULT:      -7.6      2.195      5.543
REMARK  Name = 
REMARK  8 active torsions:
REMARK  status: ('A' for Active; 'I' for Inactive)
REMARK    1  A    between atoms: C_1  and  C_2
REMARK    2  A    between atoms: C_2  and  C_3
REMARK    3  A    between atoms: C_2  and  C_4
REMARK    4  A    between atoms: C_4  and  C_5
REMARK    5  A    between atoms: C_5  and  N_6
REMARK    6  A    between atoms: C_5  and  C_7
REMARK    7  A    between atoms: N_15  and  C_16
REMARK    8  A    between atoms: C_16  and  C_17
REMARK                            x       y       z     vdW  Elec       q    Type
REMARK                         _______ _______ _______ _____ _____    ______ ____
ROOT
ATOM      1  C   UNL     1       3.825   7.213  17.591  0.00  0.00    +0.000 A 
ATOM      2  N   UNL     1       3.173   8.260  17.114  0.00  0.00    +0.000 NA
ATOM      3  C   UNL     1       2.270   8.615  18.074  0.00  0.00    +0.000 A 
ATOM      4  C   UNL     1       1.320   9.649  18.060  0.00  0.00    +0.000 A 
ATOM      5  C   UNL     1       0.488   9.817  19.173  0.00  0.00    +0.000 A 
ATOM      6  C   UNL     1       0.615   8.987  20.287  0.00  0.00    +0.000 A 
ATOM      7  C   UNL     1       1.561   7.954  20.321  0.00  0.00    +0.000 A 
ATOM      8  C   UNL     1       2.363   7.781  19.184  0.00  0.00    +0.000 A 
ATOM      9  N   UNL     1       3.326   6.855  18.831  0.00  0.00    +0.000 N 
ENDROOT
BRANCH   1  10
ATOM     10  C   UNL     1       4.882   6.457  16.832  0.00  0.00    +0.000 C 
BRANCH  10  11
ATOM     11  N   UNL     1       4.895   6.962  15.448  0.00  0.00    +0.000 NA
ATOM     12  H   UNL     1       4.555   6.194  14.859  0.00  0.00    +0.000 HD
ATOM     13  H   UNL     1       5.867   7.075  15.158  0.00  0.00    +0.000 HD
ENDBRANCH  10  11
BRANCH  10  14
ATOM     14  C   UNL     1       6.290   6.656  17.431  0.00  0.00    +0.000 C 
BRANCH  14  16
ATOM     15  C   UNL     1       7.602   4.476  17.141  0.00  0.00    +0.000 C 
ATOM     16  C   UNL     1       6.911   5.422  18.122  0.00  0.00    +0.000 C 
ATOM     17  C   UNL     1       7.924   5.883  19.177  0.00  0.00    +0.000 C 
ENDBRANCH  14  16
ENDBRANCH  10  14
ENDBRANCH   1  10
BRANCH   9  18
ATOM     18  C   UNL     1       3.739   5.721  19.644  0.00  0.00    +0.000 C 
BRANCH  18  19
ATOM     19  C   UNL     1       2.750   4.577  19.622  0.00  0.00    +0.000 A 
ATOM     20  C   UNL     1       2.197   4.115  18.416  0.00  0.00    +0.000 A 
ATOM     21  C   UNL     1       1.202   3.130  18.410  0.00  0.00    +0.000 A 
ATOM     22  C   UNL     1       0.750   2.591  19.611  0.00  0.00    +0.000 A 
ATOM     23  C   UNL     1       1.307   3.027  20.805  0.00  0.00    +0.000 A 
ATOM     24  F   UNL     1       0.872   2.512  21.962  0.00  0.00    +0.000 F 
ATOM     25  C   UNL     1       2.298   4.006  20.822  0.00  0.00    +0.000 A 
ENDBRANCH  18  19
ENDBRANCH   9  18
TORSDOF 6
ENDMDL
MODEL 7
REMARK VINA RESULT:      -7.5      2.448      5.679
REMARK  Name = 
REMARK  8 active torsions:
REMARK  status: ('A' for Active; 'I' for Inactive)
REMARK    1  A    between atoms: C_1  and  C_2
REMARK    2  A    between atoms: C_2  and  C_3
REMARK    3  A    between atoms: C_2  and  C_4
REMARK    4  A    between atoms: C_4  and  C_5
REMARK    5  A    between atoms: C_5  and  N_6
REMARK    6  A    between atoms: C_5  and  C_7
REMARK    7  A    between atoms: N_15  and  C_16
REMARK    8  A    between atoms: C_16  and  C_17
REMARK                            x       y       z     vdW  Elec       q    Type
REMARK                         _______ _______ _______ _____ _____    ______ ____
ROOT
ATOM      1  C   UNL     1       3.969   7.214  17.566  0.00  0.00    +0.000 A 
ATOM      2  N   UNL     1       3.345   8.280  17.093  0.00  0.00    +0.000 NA
ATOM      3  C   UNL     1       2.408   8.618  18.028  0.00  0.00    +0.000 A 
ATOM      4  C   UNL     1       1.470   9.661  18.005  0.00  0.00    +0.000 A 
ATOM      5  C   UNL     1       0.597   9.808  19.090  0.00  0.00    +0.000 A 
ATOM      6  C   UNL     1       0.673   8.946  20.185  0.00  0.00    +0.000 A 
ATOM      7  C   UNL     1       1.607   7.904  20.226  0.00  0.00    +0.000 A 
ATOM      8  C   UNL     1       2.451   7.753  19.116  0.00  0.00    +0.000 A 
ATOM      9  N   UNL     1       3.419   6.828  18.775  0.00  0.00    +0.000 N 
ENDROOT
BRANCH   1  10
ATOM     10  C   UNL     1       5.047   6.468  16.827  0.00  0.00    +0.000 C 
BRANCH  10  11
ATOM     11  N   UNL     1       4.924   6.793  15.396  0.00  0.00    +0.000 NA
ATOM     12  H   UNL     1       4.588   7.762  15.349  0.00  0.00    +0.000 HD
ATOM     13  H   UNL     1       4.151   6.252  15.009  0.00  0.00    +0.000 HD
ENDBRANCH  10  11
BRANCH  10  14
ATOM     14  C   UNL     1       6.462   6.870  17.293  0.00  0.00    +0.000 C 
BRANCH  14  16
ATOM     15  C   UNL     1       7.739   5.778  19.225  0.00  0.00    +0.000 C 
ATOM     16  C   UNL     1       7.381   5.712  17.741  0.00  0.00    +0.000 C 
ATOM     17  C   UNL     1       6.694   4.373  17.447  0.00  0.00    +0.000 C 
ENDBRANCH  14  16
ENDBRANCH  10  14
ENDBRANCH   1  10
BRANCH   9  18
ATOM     18  C   UNL     1       3.790   5.668  19.572  0.00  0.00    +0.000 C 
BRANCH  18  19
ATOM     19  C   UNL     1       2.847   4.498  19.402  0.00  0.00    +0.000 A 
ATOM     20  C   UNL     1       1.855   4.216  20.356  0.00  0.00    +0.000 A 
ATOM     21  C   UNL     1       1.058   3.071  20.251  0.00  0.00    +0.000 A 
ATOM     22  C   UNL     1       1.239   2.193  19.186  0.00  0.00    +0.000 A 
ATOM     23  C   UNL     1       2.202   2.475  18.227  0.00  0.00    +0.000 A 
ATOM     24  F   UNL     1       2.379   1.632  17.203  0.00  0.00    +0.000 F 
ATOM     25  C   UNL     1       3.000   3.613  18.323  0.00  0.00    +0.000 A 
ENDBRANCH  18  19
ENDBRANCH   9  18
TORSDOF 6
ENDMDL
MODEL 8
REMARK VINA RESULT:      -7.5      2.132      4.685
REMARK  Name = 
REMARK  8 active torsions:
REMARK  status: ('A' for Active; 'I' for Inactive)
REMARK    1  A    between atoms: C_1  and  C_2
REMARK    2  A    between atoms: C_2  and  C_3
REMARK    3  A    between atoms: C_2  and  C_4
REMARK    4  A    between atoms: C_4  and  C_5
REMARK    5  A    between atoms: C_5  and  N_6
REMARK    6  A    between atoms: C_5  and  C_7
REMARK    7  A    between atoms: N_15  and  C_16
REMARK    8  A    between atoms: C_16  and  C_17
REMARK                            x       y       z     vdW  Elec       q    Type
REMARK                         _______ _______ _______ _____ _____    ______ ____
ROOT
ATOM      1  C   UNL     1       2.333   5.503  20.080  0.00  0.00    +0.000 A 
ATOM      2  N   UNL     1       1.605   6.356  20.781  0.00  0.00    +0.000 NA
ATOM      3  C   UNL     1       1.593   7.520  20.067  0.00  0.00    +0.000 A 
ATOM      4  C   UNL     1       0.980   8.745  20.378  0.00  0.00    +0.000 A 
ATOM      5  C   UNL     1       1.113   9.813  19.482  0.00  0.00    +0.000 A 
ATOM      6  C   UNL     1       1.823   9.657  18.291  0.00  0.00    +0.000 A 
ATOM      7  C   UNL     1       2.436   8.441  17.963  0.00  0.00    +0.000 A 
ATOM      8  C   UNL     1       2.318   7.393  18.887  0.00  0.00    +0.000 A 
ATOM      9  N   UNL     1       2.831   6.111  18.942  0.00  0.00    +0.000 N 
ENDROOT
BRANCH   1  10
ATOM     10  C   UNL     1       2.659   4.103  20.529  0.00  0.00    +0.000 C 
BRANCH  10  11
ATOM     11  N   UNL     1       2.303   3.988  21.953  0.00  0.00    +0.000 NA
ATOM     12  H   UNL     1       1.331   3.658  21.980  0.00  0.00    +0.000 HD
ATOM     13  H   UNL     1       2.248   4.928  22.347  0.00  0.00    +0.000 HD
ENDBRANCH  10  11
BRANCH  10  14
ATOM     14  C   UNL     1       1.865   3.037  19.745  0.00  0.00    +0.000 C 
BRANCH  14  16
ATOM     15  C   UNL     1       2.627   2.123  17.478  0.00  0.00    +0.000 C 
ATOM     16  C   UNL     1       2.707   1.980  18.998  0.00  0.00    +0.000 C 
ATOM     17  C   UNL     1       4.172   2.091  19.438  0.00  0.00    +0.000 C 
ENDBRANCH  14  16
ENDBRANCH  10  14
ENDBRANCH   1  10
BRANCH   9  18
ATOM     18  C   UNL     1       3.723   5.520  17.956  0.00  0.00    +0.000 C 
BRANCH  18  19
ATOM     19  C   UNL     1       5.161   5.960  18.108  0.00  0.00    +0.000 A 
ATOM     20  C   UNL     1       5.766   6.811  17.169  0.00  0.00    +0.000 A 
ATOM     21  C   UNL     1       7.127   7.128  17.254  0.00  0.00    +0.000 A 
ATOM     22  C   UNL     1       7.901   6.600  18.284  0.00  0.00    +0.000 A 
ATOM     23  C   UNL     1       7.305   5.776  19.228  0.00  0.00    +0.000 A 
ATOM     24  F   UNL     1       8.047   5.265  20.218  0.00  0.00    +0.000 F 
ATOM     25  C   UNL     1       5.952   5.455  19.152  0.00  0.00    +0.000 A 
ENDBRANCH  18  19
ENDBRANCH   9  18
TORSDOF 6
ENDMDL
MODEL 9
REMARK VINA RESULT:      -7.5      1.534      4.730
REMARK  Name = 
REMARK  8 active torsions:
REMARK  status: ('A' for Active; 'I' for Inactive)
REMARK    1  A    between atoms: C_1  and  C_2
REMARK    2  A    between atoms: C_2  and  C_3
REMARK    3  A    between atoms: C_2  and  C_4
REMARK    4  A    between atoms: C_4  and  C_5
REMARK    5  A    between atoms: C_5  and  N_6
REMARK    6  A    between atoms: C_5  and  C_7
REMARK    7  A    between atoms: N_15  and  C_16
REMARK    8  A    between atoms: C_16  and  C_17
REMARK                            x       y       z     vdW  Elec       q    Type
REMARK                         _______ _______ _______ _____ _____    ______ ____
ROOT
ATOM      1  C   UNL     1       5.045   4.623  18.828  0.00  0.00    +0.000 A 
ATOM      2  N   UNL     1       4.862   3.461  19.431  0.00  0.00    +0.000 NA
ATOM      3  C   UNL     1       3.549   3.137  19.242  0.00  0.00    +0.000 A 
ATOM      4  C   UNL     1       2.838   2.015  19.694  0.00  0.00    +0.000 A 
ATOM      5  C   UNL     1       1.479   1.903  19.376  0.00  0.00    +0.000 A 
ATOM      6  C   UNL     1       0.847   2.877  18.603  0.00  0.00    +0.000 A 
ATOM      7  C   UNL     1       1.543   4.001  18.139  0.00  0.00    +0.000 A 
ATOM      8  C   UNL     1       2.895   4.111  18.495  0.00  0.00    +0.000 A 
ATOM      9  N   UNL     1       3.857   5.081  18.289  0.00  0.00    +0.000 N 
ENDROOT
BRANCH   1  10
ATOM     10  C   UNL     1       6.344   5.384  18.836  0.00  0.00    +0.000 C 
BRANCH  10  11
ATOM     11  N   UNL     1       7.009   5.133  20.126  0.00  0.00    +0.000 NA
ATOM     12  H   UNL     1       7.920   5.604  20.076  0.00  0.00    +0.000 HD
ATOM     13  H   UNL     1       7.254   4.143  20.173  0.00  0.00    +0.000 HD
ENDBRANCH  10  11
BRANCH  10  14
ATOM     14  C   UNL     1       7.294   4.932  17.707  0.00  0.00    +0.000 C 
BRANCH  14  16
ATOM     15  C   UNL     1       6.332   5.417  15.385  0.00  0.00    +0.000 C 
ATOM     16  C   UNL     1       7.336   5.838  16.457  0.00  0.00    +0.000 C 
ATOM     17  C   UNL     1       7.058   7.288  16.867  0.00  0.00    +0.000 C 
ENDBRANCH  14  16
ENDBRANCH  10  14
ENDBRANCH   1  10
BRANCH   9  18
ATOM     18  C   UNL     1       3.639   6.348  17.605  0.00  0.00    +0.000 C 
BRANCH  18  19
ATOM     19  C   UNL     1       2.821   7.331  18.412  0.00  0.00    +0.000 A 
ATOM     20  C   UNL     1       2.482   7.072  19.750  0.00  0.00    +0.000 A 
ATOM     21  C   UNL     1       1.634   7.931  20.458  0.00  0.00    +0.000 A 
ATOM     22  C   UNL     1       1.117   9.065  19.838  0.00  0.00    +0.000 A 
ATOM     23  C   UNL     1       1.465   9.340  18.523  0.00  0.00    +0.000 A 
ATOM     24  F   UNL     1       0.968  10.428  17.923  0.00  0.00    +0.000 F 
ATOM     25  C   UNL     1       2.308   8.490  17.809  0.00  0.00    +0.000 A 
ENDBRANCH  18  19
ENDBRANCH   9  18
TORSDOF 6
ENDMDL
