MODEL 1
REMARK VINA RESULT:      -7.1      0.000      0.000
REMARK  Name = 
REMARK  6 active torsions:
REMARK  status: ('A' for Active; 'I' for Inactive)
REMARK    1  A    between atoms: C_2  and  C_13
REMARK    2  A    between atoms: N_3  and  C_4
REMARK    3  A    between atoms: C_4  and  N_6
REMARK    4  A    between atoms: N_6  and  C_7
REMARK    5  A    between atoms: C_7  and  C_8
REMARK    6  A    between atoms: C_16  and  N_17
REMARK                            x       y       z     vdW  Elec       q    Type
REMARK                         _______ _______ _______ _____ _____    ______ ____
ROOT
ATOM      1  O   UNL     1       5.220   5.279  19.873  0.00  0.00    +0.000 OA
ATOM      2  C   UNL     1       4.598   5.650  18.884  0.00  0.00    +0.000 C 
ATOM      3  N   UNL     1       3.279   6.095  18.860  0.00  0.00    +0.000 N 
ATOM      4  H   UNL     1       2.818   6.087  17.966  0.00  0.00    +0.000 HD
ENDROOT
BRANCH   2   5
ATOM      5  C   UNL     1       5.249   5.484  17.554  0.00  0.00    +0.000 A 
ATOM      6  C   UNL     1       6.358   4.631  17.460  0.00  0.00    +0.000 A 
ATOM      7  C   UNL     1       7.002   4.437  16.233  0.00  0.00    +0.000 A 
ATOM      8  C   UNL     1       6.536   5.109  15.099  0.00  0.00    +0.000 A 
ATOM      9  C   UNL     1       5.439   5.979  15.189  0.00  0.00    +0.000 A 
ATOM     10  C   UNL     1       4.800   6.171  16.417  0.00  0.00    +0.000 A 
BRANCH   8  11
ATOM     11  N   UNL     1       7.202   4.904  13.806  0.00  0.00    +0.000 N 
ATOM     12  O   UNL     1       6.721   4.062  13.035  0.00  0.00    +0.000 OA
ATOM     13  O   UNL     1       8.202   5.593  13.561  0.00  0.00    +0.000 OA
ENDBRANCH   8  11
ENDBRANCH   2   5
BRANCH   3  14
ATOM     14  C   UNL     1       2.433   6.339  19.943  0.00  0.00    +0.000 C 
ATOM     15  S   UNL     1       1.745   7.812  20.338  0.00  0.00    +0.000 S 
BRANCH  14  16
ATOM     16  N   UNL     1       2.301   5.194  20.719  0.00  0.00    +0.000 N 
ATOM     17  H   UNL     1       3.115   4.845  21.212  0.00  0.00    +0.000 HD
BRANCH  16  18
ATOM     18  C   UNL     1       1.203   4.228  20.595  0.00  0.00    +0.000 C 
BRANCH  18  19
ATOM     19  C   UNL     1       1.573   3.046  19.697  0.00  0.00    +0.000 C 
ATOM     20  C   UNL     1       2.990   2.518  19.882  0.00  0.00    +0.000 C 
ATOM     21  C   UNL     1       3.275   1.908  18.532  0.00  0.00    +0.000 C 
ATOM     22  C   UNL     1       2.559   2.854  17.590  0.00  0.00    +0.000 C 
ATOM     23  O   UNL     1       1.462   3.429  18.313  0.00  0.00    +0.000 OA
ENDBRANCH  18  19
ENDBRANCH  16  18
ENDBRANCH  14  16
ENDBRANCH   3  14
TORSDOF 6
ENDMDL
MODEL 2
REMARK VINA RESULT:      -6.8      3.450      5.799
REMARK  Name = 
REMARK  6 active torsions:
REMARK  status: ('A' for Active; 'I' for Inactive)
REMARK    1  A    between atoms: C_2  and  C_13
REMARK    2  A    between atoms: N_3  and  C_4
REMARK    3  A    between atoms: C_4  and  N_6
REMARK    4  A    between atoms: N_6  and  C_7
REMARK    5  A    between atoms: C_7  and  C_8
REMARK    6  A    between atoms: C_16  and  N_17
REMARK                            x       y       z     vdW  Elec       q    Type
REMARK                         _______ _______ _______ _____ _____    ______ ____
ROOT
ATOM      1  O   UNL     1       4.816   5.557  19.515  0.00  0.00    +0.000 OA
ATOM      2  C   UNL     1       3.972   5.742  18.645  0.00  0.00    +0.000 C 
ATOM      3  N   UNL     1       3.869   5.054  17.439  0.00  0.00    +0.000 N 
ATOM      4  H   UNL     1       3.328   5.496  16.715  0.00  0.00    +0.000 HD
ENDROOT
BRANCH   2   5
ATOM      5  C   UNL     1       3.049   6.900  18.810  0.00  0.00    +0.000 A 
ATOM      6  C   UNL     1       2.964   7.835  17.768  0.00  0.00    +0.000 A 
ATOM      7  C   UNL     1       2.107   8.936  17.872  0.00  0.00    +0.000 A 
ATOM      8  C   UNL     1       1.341   9.104  19.028  0.00  0.00    +0.000 A 
ATOM      9  C   UNL     1       1.435   8.184  20.084  0.00  0.00    +0.000 A 
ATOM     10  C   UNL     1       2.293   7.085  19.977  0.00  0.00    +0.000 A 
BRANCH   8  11
ATOM     11  N   UNL     1       0.434  10.254  19.141  0.00  0.00    +0.000 N 
ATOM     12  O   UNL     1       0.881  11.296  19.640  0.00  0.00    +0.000 OA
ATOM     13  O   UNL     1      -0.724  10.114  18.722  0.00  0.00    +0.000 OA
ENDBRANCH   8  11
ENDBRANCH   2   5
BRANCH   3  14
ATOM     14  C   UNL     1       4.598   3.941  17.017  0.00  0.00    +0.000 C 
ATOM     15  S   UNL     1       5.639   3.888  15.709  0.00  0.00    +0.000 S 
BRANCH  14  16
ATOM     16  N   UNL     1       4.275   2.833  17.791  0.00  0.00    +0.000 N 
ATOM     17  H   UNL     1       5.024   2.311  18.229  0.00  0.00    +0.000 HD
BRANCH  16  18
ATOM     18  C   UNL     1       2.992   2.122  17.729  0.00  0.00    +0.000 C 
BRANCH  18  19
ATOM     19  C   UNL     1       2.237   2.179  19.059  0.00  0.00    +0.000 C 
ATOM     20  C   UNL     1       1.153   3.246  19.138  0.00  0.00    +0.000 C 
ATOM     21  C   UNL     1       1.084   3.513  20.620  0.00  0.00    +0.000 C 
ATOM     22  C   UNL     1       2.531   3.371  21.044  0.00  0.00    +0.000 C 
ATOM     23  O   UNL     1       3.156   2.457  20.133  0.00  0.00    +0.000 OA
ENDBRANCH  18  19
ENDBRANCH  16  18
ENDBRANCH  14  16
ENDBRANCH   3  14
TORSDOF 6
ENDMDL
MODEL 3
REMARK VINA RESULT:      -6.8      3.515      5.831
REMARK  Name = 
REMARK  6 active torsions:
REMARK  status: ('A' for Active; 'I' for Inactive)
REMARK    1  A    between atoms: C_2  and  C_13
REMARK    2  A    between atoms: N_3  and  C_4
REMARK    3  A    between atoms: C_4  and  N_6
REMARK    4  A    between atoms: N_6  and  C_7
REMARK    5  A    between atoms: C_7  and  C_8
REMARK    6  A    between atoms: C_16  and  N_17
REMARK                            x       y       z     vdW  Elec       q    Type
REMARK                         _______ _______ _______ _____ _____    ______ ____
ROOT
ATOM      1  O   UNL     1       4.519   5.596  19.605  0.00  0.00    +0.000 OA
ATOM      2  C   UNL     1       3.815   5.868  18.639  0.00  0.00    +0.000 C 
ATOM      3  N   UNL     1       3.855   5.248  17.392  0.00  0.00    +0.000 N 
ATOM      4  H   UNL     1       3.440   5.753  16.627  0.00  0.00    +0.000 HD
ENDROOT
BRANCH   2   5
ATOM      5  C   UNL     1       2.927   7.059  18.741  0.00  0.00    +0.000 A 
ATOM      6  C   UNL     1       2.195   7.242  19.924  0.00  0.00    +0.000 A 
ATOM      7  C   UNL     1       1.351   8.348  20.073  0.00  0.00    +0.000 A 
ATOM      8  C   UNL     1       1.234   9.267  19.028  0.00  0.00    +0.000 A 
ATOM      9  C   UNL     1       1.948   9.082  17.834  0.00  0.00    +0.000 A 
ATOM     10  C   UNL     1       2.789   7.975  17.689  0.00  0.00    +0.000 A 
BRANCH   8  11
ATOM     11  N   UNL     1       0.356  10.435  19.180  0.00  0.00    +0.000 N 
ATOM     12  O   UNL     1       0.709  11.326  19.966  0.00  0.00    +0.000 OA
ATOM     13  O   UNL     1      -0.683  10.463  18.505  0.00  0.00    +0.000 OA
ENDBRANCH   8  11
ENDBRANCH   2   5
BRANCH   3  14
ATOM     14  C   UNL     1       4.589   4.124  17.012  0.00  0.00    +0.000 C 
ATOM     15  S   UNL     1       5.547   3.994  15.648  0.00  0.00    +0.000 S 
BRANCH  14  16
ATOM     16  N   UNL     1       4.346   3.072  17.888  0.00  0.00    +0.000 N 
ATOM     17  H   UNL     1       5.105   2.738  18.468  0.00  0.00    +0.000 HD
BRANCH  16  18
ATOM     18  C   UNL     1       3.206   2.153  17.787  0.00  0.00    +0.000 C 
BRANCH  18  19
ATOM     19  C   UNL     1       2.302   2.219  19.020  0.00  0.00    +0.000 C 
ATOM     20  C   UNL     1       1.215   3.285  18.963  0.00  0.00    +0.000 C 
ATOM     21  C   UNL     1       0.974   3.564  20.425  0.00  0.00    +0.000 C 
ATOM     22  C   UNL     1       2.362   3.428  21.015  0.00  0.00    +0.000 C 
ATOM     23  O   UNL     1       3.089   2.508  20.190  0.00  0.00    +0.000 OA
ENDBRANCH  18  19
ENDBRANCH  16  18
ENDBRANCH  14  16
ENDBRANCH   3  14
TORSDOF 6
ENDMDL
MODEL 4
REMARK VINA RESULT:      -6.6      3.487      5.992
REMARK  Name = 
REMARK  6 active torsions:
REMARK  status: ('A' for Active; 'I' for Inactive)
REMARK    1  A    between atoms: C_2  and  C_13
REMARK    2  A    between atoms: N_3  and  C_4
REMARK    3  A    between atoms: C_4  and  N_6
REMARK    4  A    between atoms: N_6  and  C_7
REMARK    5  A    between atoms: C_7  and  C_8
REMARK    6  A    between atoms: C_16  and  N_17
REMARK                            x       y       z     vdW  Elec       q    Type
REMARK                         _______ _______ _______ _____ _____    ______ ____
ROOT
ATOM      1  O   UNL     1       4.098   6.256  16.774  0.00  0.00    +0.000 OA
ATOM      2  C   UNL     1       3.971   6.327  17.992  0.00  0.00    +0.000 C 
ATOM      3  N   UNL     1       4.584   5.503  18.932  0.00  0.00    +0.000 N 
ATOM      4  H   UNL     1       4.172   5.485  19.850  0.00  0.00    +0.000 HD
ENDROOT
BRANCH   2   5
ATOM      5  C   UNL     1       2.963   7.284  18.529  0.00  0.00    +0.000 A 
ATOM      6  C   UNL     1       2.474   7.073  19.827  0.00  0.00    +0.000 A 
ATOM      7  C   UNL     1       1.531   7.946  20.381  0.00  0.00    +0.000 A 
ATOM      8  C   UNL     1       1.071   9.027  19.625  0.00  0.00    +0.000 A 
ATOM      9  C   UNL     1       1.540   9.235  18.319  0.00  0.00    +0.000 A 
ATOM     10  C   UNL     1       2.481   8.359  17.770  0.00  0.00    +0.000 A 
BRANCH   8  11
ATOM     11  N   UNL     1       0.086   9.953  20.202  0.00  0.00    +0.000 N 
ATOM     12  O   UNL     1      -0.857  10.314  19.485  0.00  0.00    +0.000 OA
ATOM     13  O   UNL     1       0.255  10.310  21.377  0.00  0.00    +0.000 OA
ENDBRANCH   8  11
ENDBRANCH   2   5
BRANCH   3  14
ATOM     14  C   UNL     1       5.557   4.525  18.716  0.00  0.00    +0.000 C 
ATOM     15  S   UNL     1       7.050   4.769  18.003  0.00  0.00    +0.000 S 
BRANCH  14  16
ATOM     16  N   UNL     1       5.079   3.278  19.101  0.00  0.00    +0.000 N 
ATOM     17  H   UNL     1       5.686   2.670  19.638  0.00  0.00    +0.000 HD
BRANCH  16  18
ATOM     18  C   UNL     1       3.928   2.605  18.489  0.00  0.00    +0.000 C 
BRANCH  18  19
ATOM     19  C   UNL     1       2.729   2.537  19.438  0.00  0.00    +0.000 C 
ATOM     20  C   UNL     1       1.597   3.504  19.111  0.00  0.00    +0.000 C 
ATOM     21  C   UNL     1       0.954   3.698  20.462  0.00  0.00    +0.000 C 
ATOM     22  C   UNL     1       2.143   3.662  21.398  0.00  0.00    +0.000 C 
ATOM     23  O   UNL     1       3.148   2.845  20.781  0.00  0.00    +0.000 OA
ENDBRANCH  18  19
ENDBRANCH  16  18
ENDBRANCH  14  16
ENDBRANCH   3  14
TORSDOF 6
ENDMDL
MODEL 5
REMARK VINA RESULT:      -6.6      3.463      6.113
REMARK  Name = 
REMARK  6 active torsions:
REMARK  status: ('A' for Active; 'I' for Inactive)
REMARK    1  A    between atoms: C_2  and  C_13
REMARK    2  A    between atoms: N_3  and  C_4
REMARK    3  A    between atoms: C_4  and  N_6
REMARK    4  A    between atoms: N_6  and  C_7
REMARK    5  A    between atoms: C_7  and  C_8
REMARK    6  A    between atoms: C_16  and  N_17
REMARK                            x       y       z     vdW  Elec       q    Type
REMARK                         _______ _______ _______ _____ _____    ______ ____
ROOT
ATOM      1  O   UNL     1       2.637   5.181  17.458  0.00  0.00    +0.000 OA
ATOM      2  C   UNL     1       3.237   5.867  18.278  0.00  0.00    +0.000 C 
ATOM      3  N   UNL     1       4.495   5.599  18.811  0.00  0.00    +0.000 N 
ATOM      4  H   UNL     1       4.731   6.074  19.666  0.00  0.00    +0.000 HD
ENDROOT
BRANCH   2   5
ATOM      5  C   UNL     1       2.513   7.023  18.878  0.00  0.00    +0.000 A 
ATOM      6  C   UNL     1       2.251   8.136  18.065  0.00  0.00    +0.000 A 
ATOM      7  C   UNL     1       1.569   9.245  18.579  0.00  0.00    +0.000 A 
ATOM      8  C   UNL     1       1.158   9.239  19.914  0.00  0.00    +0.000 A 
ATOM      9  C   UNL     1       1.434   8.138  20.740  0.00  0.00    +0.000 A 
ATOM     10  C   UNL     1       2.116   7.033  20.222  0.00  0.00    +0.000 A 
BRANCH   8  11
ATOM     11  N   UNL     1       0.435  10.396  20.459  0.00  0.00    +0.000 N 
ATOM     12  O   UNL     1       0.910  10.958  21.456  0.00  0.00    +0.000 OA
ATOM     13  O   UNL     1      -0.604  10.746  19.882  0.00  0.00    +0.000 OA
ENDBRANCH   8  11
ENDBRANCH   2   5
BRANCH   3  14
ATOM     14  C   UNL     1       5.389   4.591  18.444  0.00  0.00    +0.000 C 
ATOM     15  S   UNL     1       6.935   4.820  17.849  0.00  0.00    +0.000 S 
BRANCH  14  16
ATOM     16  N   UNL     1       4.783   3.346  18.559  0.00  0.00    +0.000 N 
ATOM     17  H   UNL     1       4.306   2.961  17.752  0.00  0.00    +0.000 HD
BRANCH  16  18
ATOM     18  C   UNL     1       4.440   2.703  19.833  0.00  0.00    +0.000 C 
BRANCH  18  19
ATOM     19  C   UNL     1       2.964   2.303  19.898  0.00  0.00    +0.000 C 
ATOM     20  C   UNL     1       2.285   2.133  18.545  0.00  0.00    +0.000 C 
ATOM     21  C   UNL     1       0.842   2.413  18.882  0.00  0.00    +0.000 C 
ATOM     22  C   UNL     1       0.958   3.496  19.934  0.00  0.00    +0.000 C 
ATOM     23  O   UNL     1       2.213   3.311  20.602  0.00  0.00    +0.000 OA
ENDBRANCH  18  19
ENDBRANCH  16  18
ENDBRANCH  14  16
ENDBRANCH   3  14
TORSDOF 6
ENDMDL
MODEL 6
REMARK VINA RESULT:      -6.5      3.548      6.356
REMARK  Name = 
REMARK  6 active torsions:
REMARK  status: ('A' for Active; 'I' for Inactive)
REMARK    1  A    between atoms: C_2  and  C_13
REMARK    2  A    between atoms: N_3  and  C_4
REMARK    3  A    between atoms: C_4  and  N_6
REMARK    4  A    between atoms: N_6  and  C_7
REMARK    5  A    between atoms: C_7  and  C_8
REMARK    6  A    between atoms: C_16  and  N_17
REMARK                            x       y       z     vdW  Elec       q    Type
REMARK                         _______ _______ _______ _____ _____    ______ ____
ROOT
ATOM      1  O   UNL     1       4.509   5.473  19.715  0.00  0.00    +0.000 OA
ATOM      2  C   UNL     1       3.592   5.592  18.910  0.00  0.00    +0.000 C 
ATOM      3  N   UNL     1       3.254   4.686  17.908  0.00  0.00    +0.000 N 
ATOM      4  H   UNL     1       2.685   5.039  17.157  0.00  0.00    +0.000 HD
ENDROOT
BRANCH   2   5
ATOM      5  C   UNL     1       2.846   6.882  18.894  0.00  0.00    +0.000 A 
ATOM      6  C   UNL     1       2.131   7.249  20.043  0.00  0.00    +0.000 A 
ATOM      7  C   UNL     1       1.419   8.453  20.082  0.00  0.00    +0.000 A 
ATOM      8  C   UNL     1       1.419   9.286  18.960  0.00  0.00    +0.000 A 
ATOM      9  C   UNL     1       2.116   8.918  17.800  0.00  0.00    +0.000 A 
ATOM     10  C   UNL     1       2.825   7.713  17.765  0.00  0.00    +0.000 A 
BRANCH   8  11
ATOM     11  N   UNL     1       0.680  10.555  18.995  0.00  0.00    +0.000 N 
ATOM     12  O   UNL     1      -0.505  10.525  19.357  0.00  0.00    +0.000 OA
ATOM     13  O   UNL     1       1.290  11.583  18.668  0.00  0.00    +0.000 OA
ENDBRANCH   8  11
ENDBRANCH   2   5
BRANCH   3  14
ATOM     14  C   UNL     1       3.781   3.413  17.685  0.00  0.00    +0.000 C 
ATOM     15  S   UNL     1       2.998   1.964  17.968  0.00  0.00    +0.000 S 
BRANCH  14  16
ATOM     16  N   UNL     1       5.103   3.507  17.267  0.00  0.00    +0.000 N 
ATOM     17  H   UNL     1       5.839   3.337  17.943  0.00  0.00    +0.000 HD
BRANCH  16  18
ATOM     18  C   UNL     1       5.543   4.194  16.047  0.00  0.00    +0.000 C 
BRANCH  18  19
ATOM     19  C   UNL     1       6.595   5.267  16.337  0.00  0.00    +0.000 C 
ATOM     20  C   UNL     1       7.277   5.148  17.694  0.00  0.00    +0.000 C 
ATOM     21  C   UNL     1       7.686   6.574  17.965  0.00  0.00    +0.000 C 
ATOM     22  C   UNL     1       6.538   7.360  17.367  0.00  0.00    +0.000 C 
ATOM     23  O   UNL     1       5.986   6.572  16.305  0.00  0.00    +0.000 OA
ENDBRANCH  18  19
ENDBRANCH  16  18
ENDBRANCH  14  16
ENDBRANCH   3  14
TORSDOF 6
ENDMDL
MODEL 7
REMARK VINA RESULT:      -6.5      2.149      3.440
REMARK  Name = 
REMARK  6 active torsions:
REMARK  status: ('A' for Active; 'I' for Inactive)
REMARK    1  A    between atoms: C_2  and  C_13
REMARK    2  A    between atoms: N_3  and  C_4
REMARK    3  A    between atoms: C_4  and  N_6
REMARK    4  A    between atoms: N_6  and  C_7
REMARK    5  A    between atoms: C_7  and  C_8
REMARK    6  A    between atoms: C_16  and  N_17
REMARK                            x       y       z     vdW  Elec       q    Type
REMARK                         _______ _______ _______ _____ _____    ______ ____
ROOT
ATOM      1  O   UNL     1       4.967   2.854  19.948  0.00  0.00    +0.000 OA
ATOM      2  C   UNL     1       4.526   3.756  19.243  0.00  0.00    +0.000 C 
ATOM      3  N   UNL     1       3.342   4.459  19.452  0.00  0.00    +0.000 N 
ATOM      4  H   UNL     1       2.968   4.952  18.659  0.00  0.00    +0.000 HD
ENDROOT
BRANCH   2   5
ATOM      5  C   UNL     1       5.235   4.046  17.965  0.00  0.00    +0.000 A 
ATOM      6  C   UNL     1       4.540   3.851  16.762  0.00  0.00    +0.000 A 
ATOM      7  C   UNL     1       5.158   4.115  15.535  0.00  0.00    +0.000 A 
ATOM      8  C   UNL     1       6.480   4.566  15.515  0.00  0.00    +0.000 A 
ATOM      9  C   UNL     1       7.189   4.745  16.713  0.00  0.00    +0.000 A 
ATOM     10  C   UNL     1       6.568   4.479  17.937  0.00  0.00    +0.000 A 
BRANCH   8  11
ATOM     11  N   UNL     1       7.134   4.852  14.231  0.00  0.00    +0.000 N 
ATOM     12  O   UNL     1       6.698   4.281  13.221  0.00  0.00    +0.000 OA
ATOM     13  O   UNL     1       8.077   5.654  14.234  0.00  0.00    +0.000 OA
ENDBRANCH   8  11
ENDBRANCH   2   5
BRANCH   3  14
ATOM     14  C   UNL     1       2.482   4.391  20.549  0.00  0.00    +0.000 C 
ATOM     15  S   UNL     1       1.650   3.034  21.060  0.00  0.00    +0.000 S 
BRANCH  14  16
ATOM     16  N   UNL     1       2.336   5.648  21.124  0.00  0.00    +0.000 N 
ATOM     17  H   UNL     1       2.701   5.801  22.056  0.00  0.00    +0.000 HD
BRANCH  16  18
ATOM     18  C   UNL     1       1.378   6.663  20.669  0.00  0.00    +0.000 C 
BRANCH  18  19
ATOM     19  C   UNL     1       2.060   7.792  19.893  0.00  0.00    +0.000 C 
ATOM     20  C   UNL     1       1.172   8.994  19.596  0.00  0.00    +0.000 C 
ATOM     21  C   UNL     1       1.815   9.557  18.353  0.00  0.00    +0.000 C 
ATOM     22  C   UNL     1       2.268   8.308  17.626  0.00  0.00    +0.000 C 
ATOM     23  O   UNL     1       2.517   7.303  18.618  0.00  0.00    +0.000 OA
ENDBRANCH  18  19
ENDBRANCH  16  18
ENDBRANCH  14  16
ENDBRANCH   3  14
TORSDOF 6
ENDMDL
MODEL 8
REMARK VINA RESULT:      -6.5      3.465      5.978
REMARK  Name = 
REMARK  6 active torsions:
REMARK  status: ('A' for Active; 'I' for Inactive)
REMARK    1  A    between atoms: C_2  and  C_13
REMARK    2  A    between atoms: N_3  and  C_4
REMARK    3  A    between atoms: C_4  and  N_6
REMARK    4  A    between atoms: N_6  and  C_7
REMARK    5  A    between atoms: C_7  and  C_8
REMARK    6  A    between atoms: C_16  and  N_17
REMARK                            x       y       z     vdW  Elec       q    Type
REMARK                         _______ _______ _______ _____ _____    ______ ____
ROOT
ATOM      1  O   UNL     1       4.120   6.182  16.698  0.00  0.00    +0.000 OA
ATOM      2  C   UNL     1       3.997   6.204  17.917  0.00  0.00    +0.000 C 
ATOM      3  N   UNL     1       4.587   5.321  18.819  0.00  0.00    +0.000 N 
ATOM      4  H   UNL     1       4.176   5.276  19.736  0.00  0.00    +0.000 HD
ENDROOT
BRANCH   2   5
ATOM      5  C   UNL     1       3.021   7.167  18.499  0.00  0.00    +0.000 A 
ATOM      6  C   UNL     1       2.684   8.304  17.751  0.00  0.00    +0.000 A 
ATOM      7  C   UNL     1       1.768   9.237  18.249  0.00  0.00    +0.000 A 
ATOM      8  C   UNL     1       1.195   9.030  19.507  0.00  0.00    +0.000 A 
ATOM      9  C   UNL     1       1.540   7.905  20.271  0.00  0.00    +0.000 A 
ATOM     10  C   UNL     1       2.458   6.977  19.769  0.00  0.00    +0.000 A 
BRANCH   8  11
ATOM     11  N   UNL     1       0.226  10.001  20.034  0.00  0.00    +0.000 N 
ATOM     12  O   UNL     1      -0.913  10.003  19.548  0.00  0.00    +0.000 OA
ATOM     13  O   UNL     1       0.606  10.755  20.941  0.00  0.00    +0.000 OA
ENDBRANCH   8  11
ENDBRANCH   2   5
BRANCH   3  14
ATOM     14  C   UNL     1       5.529   4.325  18.558  0.00  0.00    +0.000 C 
ATOM     15  S   UNL     1       7.066   4.565  17.945  0.00  0.00    +0.000 S 
BRANCH  14  16
ATOM     16  N   UNL     1       4.981   3.070  18.797  0.00  0.00    +0.000 N 
ATOM     17  H   UNL     1       5.585   2.335  19.144  0.00  0.00    +0.000 HD
BRANCH  16  18
ATOM     18  C   UNL     1       3.705   2.602  18.244  0.00  0.00    +0.000 C 
BRANCH  18  19
ATOM     19  C   UNL     1       2.620   2.485  19.317  0.00  0.00    +0.000 C 
ATOM     20  C   UNL     1       1.392   3.356  19.085  0.00  0.00    +0.000 C 
ATOM     21  C   UNL     1       0.880   3.555  20.490  0.00  0.00    +0.000 C 
ATOM     22  C   UNL     1       2.160   3.637  21.294  0.00  0.00    +0.000 C 
ATOM     23  O   UNL     1       3.153   2.872  20.597  0.00  0.00    +0.000 OA
ENDBRANCH  18  19
ENDBRANCH  16  18
ENDBRANCH  14  16
ENDBRANCH   3  14
TORSDOF 6
ENDMDL
MODEL 9
REMARK VINA RESULT:      -6.4      1.507      1.734
REMARK  Name = 
REMARK  6 active torsions:
REMARK  status: ('A' for Active; 'I' for Inactive)
REMARK    1  A    between atoms: C_2  and  C_13
REMARK    2  A    between atoms: N_3  and  C_4
REMARK    3  A    between atoms: C_4  and  N_6
REMARK    4  A    between atoms: N_6  and  C_7
REMARK    5  A    between atoms: C_7  and  C_8
REMARK    6  A    between atoms: C_16  and  N_17
REMARK                            x       y       z     vdW  Elec       q    Type
REMARK                         _______ _______ _______ _____ _____    ______ ____
ROOT
ATOM      1  O   UNL     1       1.579   4.743  17.709  0.00  0.00    +0.000 OA
ATOM      2  C   UNL     1       2.641   5.251  18.052  0.00  0.00    +0.000 C 
ATOM      3  N   UNL     1       2.864   5.988  19.212  0.00  0.00    +0.000 N 
ATOM      4  H   UNL     1       3.680   6.577  19.220  0.00  0.00    +0.000 HD
ENDROOT
BRANCH   2   5
ATOM      5  C   UNL     1       3.774   5.207  17.085  0.00  0.00    +0.000 A 
ATOM      6  C   UNL     1       4.126   3.968  16.531  0.00  0.00    +0.000 A 
ATOM      7  C   UNL     1       5.179   3.874  15.614  0.00  0.00    +0.000 A 
ATOM      8  C   UNL     1       5.887   5.026  15.261  0.00  0.00    +0.000 A 
ATOM      9  C   UNL     1       5.554   6.267  15.825  0.00  0.00    +0.000 A 
ATOM     10  C   UNL     1       4.502   6.356  16.742  0.00  0.00    +0.000 A 
BRANCH   8  11
ATOM     11  N   UNL     1       6.988   4.936  14.294  0.00  0.00    +0.000 N 
ATOM     12  O   UNL     1       7.983   5.650  14.482  0.00  0.00    +0.000 OA
ATOM     13  O   UNL     1       6.860   4.144  13.350  0.00  0.00    +0.000 OA
ENDBRANCH   8  11
ENDBRANCH   2   5
BRANCH   3  14
ATOM     14  C   UNL     1       1.990   6.197  20.280  0.00  0.00    +0.000 C 
ATOM     15  S   UNL     1       1.574   7.680  20.931  0.00  0.00    +0.000 S 
BRANCH  14  16
ATOM     16  N   UNL     1       1.569   4.980  20.802  0.00  0.00    +0.000 N 
ATOM     17  H   UNL     1       0.575   4.792  20.854  0.00  0.00    +0.000 HD
BRANCH  16  18
ATOM     18  C   UNL     1       2.400   4.097  21.629  0.00  0.00    +0.000 C 
BRANCH  18  19
ATOM     19  C   UNL     1       2.637   2.739  20.965  0.00  0.00    +0.000 C 
ATOM     20  C   UNL     1       3.876   2.664  20.082  0.00  0.00    +0.000 C 
ATOM     21  C   UNL     1       3.501   1.572  19.111  0.00  0.00    +0.000 C 
ATOM     22  C   UNL     1       2.017   1.802  18.919  0.00  0.00    +0.000 C 
ATOM     23  O   UNL     1       1.519   2.405  20.121  0.00  0.00    +0.000 OA
ENDBRANCH  18  19
ENDBRANCH  16  18
ENDBRANCH  14  16
ENDBRANCH   3  14
TORSDOF 6
ENDMDL
