MODEL 1
REMARK VINA RESULT:      -7.7      0.000      0.000
REMARK  Name = 
REMARK  4 active torsions:
REMARK  status: ('A' for Active; 'I' for Inactive)
REMARK    1  A    between atoms: O_1  and  C_2
REMARK    2  A    between atoms: C_5  and  C_6
REMARK    3  A    between atoms: C_8  and  C_9
REMARK    4  A    between atoms: C_16  and  C_17
REMARK                            x       y       z     vdW  Elec       q    Type
REMARK                         _______ _______ _______ _____ _____    ______ ____
ROOT
ATOM      1  C   UNL     1       4.412   4.973  17.315  0.00  0.00    +0.000 A 
ATOM      2  C   UNL     1       4.760   4.501  16.048  0.00  0.00    +0.000 A 
ATOM      3  C   UNL     1       5.875   5.010  15.381  0.00  0.00    +0.000 A 
ATOM      4  N   UNL     1       6.664   5.958  15.951  0.00  0.00    +0.000 NA
ATOM      5  C   UNL     1       6.329   6.467  17.158  0.00  0.00    +0.000 A 
ATOM      6  C   UNL     1       5.210   5.996  17.849  0.00  0.00    +0.000 A 
ENDROOT
BRANCH   5   7
ATOM      7  C   UNL     1       7.238   7.497  17.729  0.00  0.00    +0.000 A 
ATOM      8  C   UNL     1       7.206   8.816  17.211  0.00  0.00    +0.000 A 
ATOM      9  C   UNL     1       8.024   9.837  17.706  0.00  0.00    +0.000 A 
ATOM     10  C   UNL     1       8.890   9.581  18.758  0.00  0.00    +0.000 A 
ATOM     11  C   UNL     1       8.950   8.299  19.296  0.00  0.00    +0.000 A 
ATOM     12  C   UNL     1       8.149   7.264  18.785  0.00  0.00    +0.000 A 
ATOM     13 CL   UNL     1       8.415   5.706  19.500  0.00  0.00    +0.000 Cl
ENDBRANCH   5   7
BRANCH   1  17
ATOM     14  C   UNL     1       1.116   3.288  19.509  0.00  0.00    +0.000 A 
ATOM     15  C   UNL     1       1.574   2.655  18.362  0.00  0.00    +0.000 A 
ATOM     16  C   UNL     1       2.645   3.210  17.652  0.00  0.00    +0.000 A 
ATOM     17  C   UNL     1       3.267   4.406  18.064  0.00  0.00    +0.000 A 
ATOM     18  C   UNL     1       2.764   5.023  19.225  0.00  0.00    +0.000 A 
ATOM     19  C   UNL     1       1.703   4.465  19.946  0.00  0.00    +0.000 A 
BRANCH  14  20
ATOM     20  O   UNL     1       0.084   2.780  20.240  0.00  0.00    +0.000 OA
ATOM     21  H   UNL     1      -0.313   3.501  20.755  0.00  0.00    +0.000 HD
ENDBRANCH  14  20
ENDBRANCH   1  17
BRANCH   3  22
ATOM     22  C   UNL     1       6.232   4.565  14.012  0.00  0.00    +0.000 A 
ATOM     23  C   UNL     1       5.535   3.556  13.346  0.00  0.00    +0.000 A 
ATOM     24  C   UNL     1       5.954   3.149  12.081  0.00  0.00    +0.000 A 
ATOM     25  C   UNL     1       7.058   3.759  11.499  0.00  0.00    +0.000 A 
ATOM     26  C   UNL     1       7.694   4.761  12.210  0.00  0.00    +0.000 A 
ATOM     27  N   UNL     1       7.310   5.175  13.437  0.00  0.00    +0.000 NA
ENDBRANCH   3  22
TORSDOF 4
ENDMDL
MODEL 2
REMARK VINA RESULT:      -7.6      7.792     10.410
REMARK  Name = 
REMARK  4 active torsions:
REMARK  status: ('A' for Active; 'I' for Inactive)
REMARK    1  A    between atoms: O_1  and  C_2
REMARK    2  A    between atoms: C_5  and  C_6
REMARK    3  A    between atoms: C_8  and  C_9
REMARK    4  A    between atoms: C_16  and  C_17
REMARK                            x       y       z     vdW  Elec       q    Type
REMARK                         _______ _______ _______ _____ _____    ______ ____
ROOT
ATOM      1  C   UNL     1       0.776  10.246  18.681  0.00  0.00    +0.000 A 
ATOM      2  C   UNL     1       1.456  11.465  18.713  0.00  0.00    +0.000 A 
ATOM      3  C   UNL     1       0.768  12.669  18.560  0.00  0.00    +0.000 A 
ATOM      4  N   UNL     1      -0.582  12.692  18.400  0.00  0.00    +0.000 NA
ATOM      5  C   UNL     1      -1.264  11.527  18.320  0.00  0.00    +0.000 A 
ATOM      6  C   UNL     1      -0.607  10.302  18.450  0.00  0.00    +0.000 A 
ENDROOT
BRANCH   5   7
ATOM      7  C   UNL     1      -2.739  11.623  18.150  0.00  0.00    +0.000 A 
ATOM      8  C   UNL     1      -3.538  12.052  19.240  0.00  0.00    +0.000 A 
ATOM      9  C   UNL     1      -4.928  12.174  19.149  0.00  0.00    +0.000 A 
ATOM     10  C   UNL     1      -5.570  11.895  17.953  0.00  0.00    +0.000 A 
ATOM     11  C   UNL     1      -4.822  11.473  16.858  0.00  0.00    +0.000 A 
ATOM     12  C   UNL     1      -3.428  11.323  16.952  0.00  0.00    +0.000 A 
ATOM     13 CL   UNL     1      -2.658  10.696  15.530  0.00  0.00    +0.000 Cl
ENDBRANCH   5   7
BRANCH   1  17
ATOM     14  C   UNL     1       2.866   6.538  19.310  0.00  0.00    +0.000 A 
ATOM     15  C   UNL     1       2.943   7.170  18.077  0.00  0.00    +0.000 A 
ATOM     16  C   UNL     1       2.258   8.375  17.879  0.00  0.00    +0.000 A 
ATOM     17  C   UNL     1       1.479   8.961  18.897  0.00  0.00    +0.000 A 
ATOM     18  C   UNL     1       1.418   8.281  20.128  0.00  0.00    +0.000 A 
ATOM     19  C   UNL     1       2.111   7.085  20.337  0.00  0.00    +0.000 A 
BRANCH  14  20
ATOM     20  O   UNL     1       3.524   5.370  19.555  0.00  0.00    +0.000 OA
ATOM     21  H   UNL     1       3.921   5.420  20.440  0.00  0.00    +0.000 HD
ENDBRANCH  14  20
ENDBRANCH   1  17
BRANCH   3  22
ATOM     22  C   UNL     1       1.475  13.972  18.536  0.00  0.00    +0.000 A 
ATOM     23  C   UNL     1       2.825  14.086  18.201  0.00  0.00    +0.000 A 
ATOM     24  C   UNL     1       3.443  15.334  18.247  0.00  0.00    +0.000 A 
ATOM     25  C   UNL     1       2.703  16.448  18.620  0.00  0.00    +0.000 A 
ATOM     26  C   UNL     1       1.366  16.265  18.927  0.00  0.00    +0.000 A 
ATOM     27  N   UNL     1       0.742  15.068  18.891  0.00  0.00    +0.000 NA
ENDBRANCH   3  22
TORSDOF 4
ENDMDL
MODEL 3
REMARK VINA RESULT:      -7.5      7.824     10.456
REMARK  Name = 
REMARK  4 active torsions:
REMARK  status: ('A' for Active; 'I' for Inactive)
REMARK    1  A    between atoms: O_1  and  C_2
REMARK    2  A    between atoms: C_5  and  C_6
REMARK    3  A    between atoms: C_8  and  C_9
REMARK    4  A    between atoms: C_16  and  C_17
REMARK                            x       y       z     vdW  Elec       q    Type
REMARK                         _______ _______ _______ _____ _____    ______ ____
ROOT
ATOM      1  C   UNL     1       0.771  10.334  18.669  0.00  0.00    +0.000 A 
ATOM      2  C   UNL     1       1.433  11.563  18.708  0.00  0.00    +0.000 A 
ATOM      3  C   UNL     1       0.727  12.757  18.564  0.00  0.00    +0.000 A 
ATOM      4  N   UNL     1      -0.623  12.762  18.404  0.00  0.00    +0.000 NA
ATOM      5  C   UNL     1      -1.288  11.588  18.317  0.00  0.00    +0.000 A 
ATOM      6  C   UNL     1      -0.613  10.371  18.439  0.00  0.00    +0.000 A 
ENDROOT
BRANCH   5   7
ATOM      7  C   UNL     1      -2.764  11.662  18.148  0.00  0.00    +0.000 A 
ATOM      8  C   UNL     1      -3.567  12.083  19.238  0.00  0.00    +0.000 A 
ATOM      9  C   UNL     1      -4.960  12.187  19.149  0.00  0.00    +0.000 A 
ATOM     10  C   UNL     1      -5.599  11.896  17.954  0.00  0.00    +0.000 A 
ATOM     11  C   UNL     1      -4.846  11.482  16.859  0.00  0.00    +0.000 A 
ATOM     12  C   UNL     1      -3.450  11.350  16.952  0.00  0.00    +0.000 A 
ATOM     13 CL   UNL     1      -2.673  10.730  15.530  0.00  0.00    +0.000 Cl
ENDBRANCH   5   7
BRANCH   1  17
ATOM     14  C   UNL     1       2.822   6.600  19.271  0.00  0.00    +0.000 A 
ATOM     15  C   UNL     1       2.079   7.151  20.306  0.00  0.00    +0.000 A 
ATOM     16  C   UNL     1       1.416   8.367  20.103  0.00  0.00    +0.000 A 
ATOM     17  C   UNL     1       1.493   9.058  18.876  0.00  0.00    +0.000 A 
ATOM     18  C   UNL     1       2.266   8.470  17.858  0.00  0.00    +0.000 A 
ATOM     19  C   UNL     1       2.919   7.249  18.050  0.00  0.00    +0.000 A 
BRANCH  14  20
ATOM     20  O   UNL     1       3.475   5.412  19.416  0.00  0.00    +0.000 OA
ATOM     21  H   UNL     1       2.841   4.750  19.737  0.00  0.00    +0.000 HD
ENDBRANCH  14  20
ENDBRANCH   1  17
BRANCH   3  22
ATOM     22  C   UNL     1       1.415  14.070  18.547  0.00  0.00    +0.000 A 
ATOM     23  C   UNL     1       0.789  15.250  18.953  0.00  0.00    +0.000 A 
ATOM     24  C   UNL     1       1.475  16.459  18.865  0.00  0.00    +0.000 A 
ATOM     25  C   UNL     1       2.776  16.471  18.380  0.00  0.00    +0.000 A 
ATOM     26  C   UNL     1       3.341  15.264  18.007  0.00  0.00    +0.000 A 
ATOM     27  N   UNL     1       2.699  14.078  18.082  0.00  0.00    +0.000 NA
ENDBRANCH   3  22
TORSDOF 4
ENDMDL
MODEL 4
REMARK VINA RESULT:      -7.5      7.691      9.855
REMARK  Name = 
REMARK  4 active torsions:
REMARK  status: ('A' for Active; 'I' for Inactive)
REMARK    1  A    between atoms: O_1  and  C_2
REMARK    2  A    between atoms: C_5  and  C_6
REMARK    3  A    between atoms: C_8  and  C_9
REMARK    4  A    between atoms: C_16  and  C_17
REMARK                            x       y       z     vdW  Elec       q    Type
REMARK                         _______ _______ _______ _____ _____    ______ ____
ROOT
ATOM      1  C   UNL     1      -1.285  11.563  18.372  0.00  0.00    +0.000 A 
ATOM      2  C   UNL     1      -0.498  12.716  18.402  0.00  0.00    +0.000 A 
ATOM      3  C   UNL     1       0.882  12.631  18.581  0.00  0.00    +0.000 A 
ATOM      4  N   UNL     1       1.503  11.428  18.706  0.00  0.00    +0.000 NA
ATOM      5  C   UNL     1       0.765  10.295  18.724  0.00  0.00    +0.000 A 
ATOM      6  C   UNL     1      -0.623  10.341  18.567  0.00  0.00    +0.000 A 
ENDROOT
BRANCH   5   7
ATOM      7  C   UNL     1       1.505   9.012  18.858  0.00  0.00    +0.000 A 
ATOM      8  C   UNL     1       2.295   8.549  17.775  0.00  0.00    +0.000 A 
ATOM      9  C   UNL     1       3.025   7.358  17.834  0.00  0.00    +0.000 A 
ATOM     10  C   UNL     1       3.013   6.595  18.991  0.00  0.00    +0.000 A 
ATOM     11  C   UNL     1       2.252   7.016  20.078  0.00  0.00    +0.000 A 
ATOM     12  C   UNL     1       1.495   8.198  20.014  0.00  0.00    +0.000 A 
ATOM     13 CL   UNL     1       0.528   8.528  21.415  0.00  0.00    +0.000 Cl
ENDBRANCH   5   7
BRANCH   1  17
ATOM     14  C   UNL     1      -5.527  11.697  17.663  0.00  0.00    +0.000 A 
ATOM     15  C   UNL     1      -4.674  11.278  16.652  0.00  0.00    +0.000 A 
ATOM     16  C   UNL     1      -3.295  11.239  16.889  0.00  0.00    +0.000 A 
ATOM     17  C   UNL     1      -2.744  11.627  18.127  0.00  0.00    +0.000 A 
ATOM     18  C   UNL     1      -3.644  12.057  19.121  0.00  0.00    +0.000 A 
ATOM     19  C   UNL     1      -5.023  12.084  18.895  0.00  0.00    +0.000 A 
BRANCH  14  20
ATOM     20  O   UNL     1      -6.878  11.740  17.484  0.00  0.00    +0.000 OA
ATOM     21  H   UNL     1      -7.151  10.939  17.007  0.00  0.00    +0.000 HD
ENDBRANCH  14  20
ENDBRANCH   1  17
BRANCH   3  22
ATOM     22  C   UNL     1       1.731  13.843  18.672  0.00  0.00    +0.000 A 
ATOM     23  C   UNL     1       1.232  15.078  19.087  0.00  0.00    +0.000 A 
ATOM     24  C   UNL     1       2.071  16.190  19.102  0.00  0.00    +0.000 A 
ATOM     25  C   UNL     1       3.395  16.051  18.709  0.00  0.00    +0.000 A 
ATOM     26  C   UNL     1       3.827  14.795  18.321  0.00  0.00    +0.000 A 
ATOM     27  N   UNL     1       3.036  13.701  18.297  0.00  0.00    +0.000 NA
ENDBRANCH   3  22
TORSDOF 4
ENDMDL
MODEL 5
REMARK VINA RESULT:      -7.4      7.802     10.014
REMARK  Name = 
REMARK  4 active torsions:
REMARK  status: ('A' for Active; 'I' for Inactive)
REMARK    1  A    between atoms: O_1  and  C_2
REMARK    2  A    between atoms: C_5  and  C_6
REMARK    3  A    between atoms: C_8  and  C_9
REMARK    4  A    between atoms: C_16  and  C_17
REMARK                            x       y       z     vdW  Elec       q    Type
REMARK                         _______ _______ _______ _____ _____    ______ ____
ROOT
ATOM      1  C   UNL     1      -1.343  11.583  18.414  0.00  0.00    +0.000 A 
ATOM      2  C   UNL     1      -0.571  12.745  18.473  0.00  0.00    +0.000 A 
ATOM      3  C   UNL     1       0.810  12.674  18.656  0.00  0.00    +0.000 A 
ATOM      4  N   UNL     1       1.445  11.476  18.759  0.00  0.00    +0.000 NA
ATOM      5  C   UNL     1       0.721  10.334  18.750  0.00  0.00    +0.000 A 
ATOM      6  C   UNL     1      -0.666  10.367  18.587  0.00  0.00    +0.000 A 
ENDROOT
BRANCH   5   7
ATOM      7  C   UNL     1       1.477   9.058  18.861  0.00  0.00    +0.000 A 
ATOM      8  C   UNL     1       2.268   8.622  17.768  0.00  0.00    +0.000 A 
ATOM      9  C   UNL     1       3.013   7.439  17.805  0.00  0.00    +0.000 A 
ATOM     10  C   UNL     1       3.013   6.658  18.950  0.00  0.00    +0.000 A 
ATOM     11  C   UNL     1       2.251   7.051  20.046  0.00  0.00    +0.000 A 
ATOM     12  C   UNL     1       1.480   8.226  20.004  0.00  0.00    +0.000 A 
ATOM     13 CL   UNL     1       0.514   8.522  21.413  0.00  0.00    +0.000 Cl
ENDBRANCH   5   7
BRANCH   1  17
ATOM     14  C   UNL     1      -5.579  11.787  17.686  0.00  0.00    +0.000 A 
ATOM     15  C   UNL     1      -5.076  12.156  18.926  0.00  0.00    +0.000 A 
ATOM     16  C   UNL     1      -3.697  12.085  19.156  0.00  0.00    +0.000 A 
ATOM     17  C   UNL     1      -2.802  11.635  18.164  0.00  0.00    +0.000 A 
ATOM     18  C   UNL     1      -3.355  11.259  16.926  0.00  0.00    +0.000 A 
ATOM     19  C   UNL     1      -4.730  11.341  16.685  0.00  0.00    +0.000 A 
BRANCH  14  20
ATOM     20  O   UNL     1      -6.912  11.850  17.411  0.00  0.00    +0.000 OA
ATOM     21  H   UNL     1      -7.225  10.956  17.195  0.00  0.00    +0.000 HD
ENDBRANCH  14  20
ENDBRANCH   1  17
BRANCH   3  22
ATOM     22  C   UNL     1       1.643  13.894  18.777  0.00  0.00    +0.000 A 
ATOM     23  C   UNL     1       2.870  14.032  18.125  0.00  0.00    +0.000 A 
ATOM     24  C   UNL     1       3.628  15.184  18.321  0.00  0.00    +0.000 A 
ATOM     25  C   UNL     1       3.148  16.183  19.158  0.00  0.00    +0.000 A 
ATOM     26  C   UNL     1       1.918  15.987  19.762  0.00  0.00    +0.000 A 
ATOM     27  N   UNL     1       1.163  14.880  19.590  0.00  0.00    +0.000 NA
ENDBRANCH   3  22
TORSDOF 4
ENDMDL
MODEL 6
REMARK VINA RESULT:      -7.4      3.748      6.677
REMARK  Name = 
REMARK  4 active torsions:
REMARK  status: ('A' for Active; 'I' for Inactive)
REMARK    1  A    between atoms: O_1  and  C_2
REMARK    2  A    between atoms: C_5  and  C_6
REMARK    3  A    between atoms: C_8  and  C_9
REMARK    4  A    between atoms: C_16  and  C_17
REMARK                            x       y       z     vdW  Elec       q    Type
REMARK                         _______ _______ _______ _____ _____    ______ ____
ROOT
ATOM      1  C   UNL     1       2.714   7.407  18.429  0.00  0.00    +0.000 A 
ATOM      2  C   UNL     1       2.393   6.391  19.330  0.00  0.00    +0.000 A 
ATOM      3  C   UNL     1       2.985   5.132  19.225  0.00  0.00    +0.000 A 
ATOM      4  N   UNL     1       3.906   4.866  18.261  0.00  0.00    +0.000 NA
ATOM      5  C   UNL     1       4.206   5.815  17.346  0.00  0.00    +0.000 A 
ATOM      6  C   UNL     1       3.620   7.081  17.408  0.00  0.00    +0.000 A 
ENDROOT
BRANCH   5   7
ATOM      7  C   UNL     1       5.226   5.462  16.322  0.00  0.00    +0.000 A 
ATOM      8  C   UNL     1       4.852   4.654  15.219  0.00  0.00    +0.000 A 
ATOM      9  C   UNL     1       5.755   4.292  14.213  0.00  0.00    +0.000 A 
ATOM     10  C   UNL     1       7.063   4.747  14.262  0.00  0.00    +0.000 A 
ATOM     11  C   UNL     1       7.470   5.545  15.327  0.00  0.00    +0.000 A 
ATOM     12  C   UNL     1       6.573   5.890  16.353  0.00  0.00    +0.000 A 
ATOM     13 CL   UNL     1       7.262   6.806  17.655  0.00  0.00    +0.000 Cl
ENDBRANCH   5   7
BRANCH   1  17
ATOM     14  C   UNL     1       1.073  11.362  18.846  0.00  0.00    +0.000 A 
ATOM     15  C   UNL     1       0.639  10.346  19.686  0.00  0.00    +0.000 A 
ATOM     16  C   UNL     1       1.176   9.061  19.543  0.00  0.00    +0.000 A 
ATOM     17  C   UNL     1       2.140   8.766  18.557  0.00  0.00    +0.000 A 
ATOM     18  C   UNL     1       2.543   9.822  17.719  0.00  0.00    +0.000 A 
ATOM     19  C   UNL     1       2.021  11.111  17.866  0.00  0.00    +0.000 A 
BRANCH  14  20
ATOM     20  O   UNL     1       0.589  12.632  18.955  0.00  0.00    +0.000 OA
ATOM     21  H   UNL     1      -0.202  12.613  19.519  0.00  0.00    +0.000 HD
ENDBRANCH  14  20
ENDBRANCH   1  17
BRANCH   3  22
ATOM     22  C   UNL     1       2.619   4.021  20.136  0.00  0.00    +0.000 A 
ATOM     23  C   UNL     1       1.364   3.932  20.743  0.00  0.00    +0.000 A 
ATOM     24  C   UNL     1       1.101   2.889  21.629  0.00  0.00    +0.000 A 
ATOM     25  C   UNL     1       2.090   1.950  21.891  0.00  0.00    +0.000 A 
ATOM     26  C   UNL     1       3.306   2.092  21.245  0.00  0.00    +0.000 A 
ATOM     27  N   UNL     1       3.588   3.092  20.383  0.00  0.00    +0.000 NA
ENDBRANCH   3  22
TORSDOF 4
ENDMDL
MODEL 7
REMARK VINA RESULT:      -7.3      7.923     10.670
REMARK  Name = 
REMARK  4 active torsions:
REMARK  status: ('A' for Active; 'I' for Inactive)
REMARK    1  A    between atoms: O_1  and  C_2
REMARK    2  A    between atoms: C_5  and  C_6
REMARK    3  A    between atoms: C_8  and  C_9
REMARK    4  A    between atoms: C_16  and  C_17
REMARK                            x       y       z     vdW  Elec       q    Type
REMARK                         _______ _______ _______ _____ _____    ______ ____
ROOT
ATOM      1  C   UNL     1       1.061  12.737  18.574  0.00  0.00    +0.000 A 
ATOM      2  C   UNL     1      -0.313  12.757  18.329  0.00  0.00    +0.000 A 
ATOM      3  C   UNL     1      -1.050  11.573  18.310  0.00  0.00    +0.000 A 
ATOM      4  N   UNL     1      -0.460  10.372  18.551  0.00  0.00    +0.000 NA
ATOM      5  C   UNL     1       0.876  10.314  18.748  0.00  0.00    +0.000 A 
ATOM      6  C   UNL     1       1.651  11.477  18.756  0.00  0.00    +0.000 A 
ENDROOT
BRANCH   5   7
ATOM      7  C   UNL     1       1.459   8.971  19.013  0.00  0.00    +0.000 A 
ATOM      8  C   UNL     1       2.162   8.303  17.980  0.00  0.00    +0.000 A 
ATOM      9  C   UNL     1       2.744   7.043  18.161  0.00  0.00    +0.000 A 
ATOM     10  C   UNL     1       2.665   6.416  19.394  0.00  0.00    +0.000 A 
ATOM     11  C   UNL     1       1.985   7.040  20.436  0.00  0.00    +0.000 A 
ATOM     12  C   UNL     1       1.376   8.293  20.251  0.00  0.00    +0.000 A 
ATOM     13 CL   UNL     1       0.486   8.887  21.617  0.00  0.00    +0.000 Cl
ENDBRANCH   5   7
BRANCH   1  17
ATOM     14  C   UNL     1       3.360  16.362  18.861  0.00  0.00    +0.000 A 
ATOM     15  C   UNL     1       2.033  16.356  19.264  0.00  0.00    +0.000 A 
ATOM     16  C   UNL     1       1.291  15.174  19.166  0.00  0.00    +0.000 A 
ATOM     17  C   UNL     1       1.852  13.986  18.654  0.00  0.00    +0.000 A 
ATOM     18  C   UNL     1       3.197  14.039  18.245  0.00  0.00    +0.000 A 
ATOM     19  C   UNL     1       3.948  15.213  18.354  0.00  0.00    +0.000 A 
BRANCH  14  20
ATOM     20  O   UNL     1       4.127  17.486  18.948  0.00  0.00    +0.000 OA
ATOM     21  H   UNL     1       4.306  17.807  18.049  0.00  0.00    +0.000 HD
ENDBRANCH  14  20
ENDBRANCH   1  17
BRANCH   3  22
ATOM     22  C   UNL     1      -2.500  11.564  17.998  0.00  0.00    +0.000 A 
ATOM     23  C   UNL     1      -3.473  11.881  18.947  0.00  0.00    +0.000 A 
ATOM     24  C   UNL     1      -4.821  11.804  18.603  0.00  0.00    +0.000 A 
ATOM     25  C   UNL     1      -5.176  11.418  17.317  0.00  0.00    +0.000 A 
ATOM     26  C   UNL     1      -4.160  11.131  16.423  0.00  0.00    +0.000 A 
ATOM     27  N   UNL     1      -2.846  11.197  16.729  0.00  0.00    +0.000 NA
ENDBRANCH   3  22
TORSDOF 4
ENDMDL
MODEL 8
REMARK VINA RESULT:      -7.3      8.164     10.778
REMARK  Name = 
REMARK  4 active torsions:
REMARK  status: ('A' for Active; 'I' for Inactive)
REMARK    1  A    between atoms: O_1  and  C_2
REMARK    2  A    between atoms: C_5  and  C_6
REMARK    3  A    between atoms: C_8  and  C_9
REMARK    4  A    between atoms: C_16  and  C_17
REMARK                            x       y       z     vdW  Elec       q    Type
REMARK                         _______ _______ _______ _____ _____    ______ ____
ROOT
ATOM      1  C   UNL     1       0.865  12.896  18.734  0.00  0.00    +0.000 A 
ATOM      2  C   UNL     1      -0.506  12.857  18.473  0.00  0.00    +0.000 A 
ATOM      3  C   UNL     1      -1.173  11.639  18.349  0.00  0.00    +0.000 A 
ATOM      4  N   UNL     1      -0.516  10.458  18.502  0.00  0.00    +0.000 NA
ATOM      5  C   UNL     1       0.820  10.461  18.711  0.00  0.00    +0.000 A 
ATOM      6  C   UNL     1       1.526  11.661  18.822  0.00  0.00    +0.000 A 
ENDROOT
BRANCH   5   7
ATOM      7  C   UNL     1       1.477   9.136  18.875  0.00  0.00    +0.000 A 
ATOM      8  C   UNL     1       2.196   8.578  17.788  0.00  0.00    +0.000 A 
ATOM      9  C   UNL     1       2.847   7.342  17.874  0.00  0.00    +0.000 A 
ATOM     10  C   UNL     1       2.823   6.630  19.063  0.00  0.00    +0.000 A 
ATOM     11  C   UNL     1       2.131   7.144  20.154  0.00  0.00    +0.000 A 
ATOM     12  C   UNL     1       1.453   8.373  20.065  0.00  0.00    +0.000 A 
ATOM     13 CL   UNL     1       0.559   8.824  21.481  0.00  0.00    +0.000 Cl
ENDBRANCH   5   7
BRANCH   1  17
ATOM     14  C   UNL     1       2.922  16.627  19.336  0.00  0.00    +0.000 A 
ATOM     15  C   UNL     1       1.561  16.628  19.066  0.00  0.00    +0.000 A 
ATOM     16  C   UNL     1       0.899  15.411  18.869  0.00  0.00    +0.000 A 
ATOM     17  C   UNL     1       1.582  14.178  18.925  0.00  0.00    +0.000 A 
ATOM     18  C   UNL     1       2.963  14.223  19.189  0.00  0.00    +0.000 A 
ATOM     19  C   UNL     1       3.627  15.435  19.400  0.00  0.00    +0.000 A 
BRANCH  14  20
ATOM     20  O   UNL     1       3.609  17.786  19.547  0.00  0.00    +0.000 OA
ATOM     21  H   UNL     1       3.027  18.407  20.014  0.00  0.00    +0.000 HD
ENDBRANCH  14  20
ENDBRANCH   1  17
BRANCH   3  22
ATOM     22  C   UNL     1      -2.617  11.572  18.018  0.00  0.00    +0.000 A 
ATOM     23  C   UNL     1      -3.080  11.169  16.765  0.00  0.00    +0.000 A 
ATOM     24  C   UNL     1      -4.448  11.178  16.502  0.00  0.00    +0.000 A 
ATOM     25  C   UNL     1      -5.332  11.581  17.495  0.00  0.00    +0.000 A 
ATOM     26  C   UNL     1      -4.805  11.955  18.718  0.00  0.00    +0.000 A 
ATOM     27  N   UNL     1      -3.484  11.957  19.000  0.00  0.00    +0.000 NA
ENDBRANCH   3  22
TORSDOF 4
ENDMDL
MODEL 9
REMARK VINA RESULT:      -7.3      7.800     10.417
REMARK  Name = 
REMARK  4 active torsions:
REMARK  status: ('A' for Active; 'I' for Inactive)
REMARK    1  A    between atoms: O_1  and  C_2
REMARK    2  A    between atoms: C_5  and  C_6
REMARK    3  A    between atoms: C_8  and  C_9
REMARK    4  A    between atoms: C_16  and  C_17
REMARK                            x       y       z     vdW  Elec       q    Type
REMARK                         _______ _______ _______ _____ _____    ______ ____
ROOT
ATOM      1  C   UNL     1       0.862  10.277  18.639  0.00  0.00    +0.000 A 
ATOM      2  C   UNL     1       1.536  11.500  18.666  0.00  0.00    +0.000 A 
ATOM      3  C   UNL     1       0.840  12.700  18.529  0.00  0.00    +0.000 A 
ATOM      4  N   UNL     1      -0.513  12.718  18.390  0.00  0.00    +0.000 NA
ATOM      5  C   UNL     1      -1.190  11.550  18.315  0.00  0.00    +0.000 A 
ATOM      6  C   UNL     1      -0.525  10.327  18.429  0.00  0.00    +0.000 A 
ENDROOT
BRANCH   5   7
ATOM      7  C   UNL     1      -2.668  11.638  18.168  0.00  0.00    +0.000 A 
ATOM      8  C   UNL     1      -3.268  11.266  16.939  0.00  0.00    +0.000 A 
ATOM      9  C   UNL     1      -4.651  11.314  16.733  0.00  0.00    +0.000 A 
ATOM     10  C   UNL     1      -5.489  11.714  17.762  0.00  0.00    +0.000 A 
ATOM     11  C   UNL     1      -4.940  12.086  18.986  0.00  0.00    +0.000 A 
ATOM     12  C   UNL     1      -3.549  12.065  19.189  0.00  0.00    +0.000 A 
ATOM     13 CL   UNL     1      -3.022  12.649  20.734  0.00  0.00    +0.000 Cl
ENDBRANCH   5   7
BRANCH   1  17
ATOM     14  C   UNL     1       2.886   6.525  19.216  0.00  0.00    +0.000 A 
ATOM     15  C   UNL     1       2.113   7.053  20.240  0.00  0.00    +0.000 A 
ATOM     16  C   UNL     1       1.459   8.276  20.045  0.00  0.00    +0.000 A 
ATOM     17  C   UNL     1       1.575   8.995  18.838  0.00  0.00    +0.000 A 
ATOM     18  C   UNL     1       2.378   8.429  17.830  0.00  0.00    +0.000 A 
ATOM     19  C   UNL     1       3.022   7.202  18.013  0.00  0.00    +0.000 A 
BRANCH  14  20
ATOM     20  O   UNL     1       3.532   5.332  19.353  0.00  0.00    +0.000 OA
ATOM     21  H   UNL     1       3.769   5.216  20.287  0.00  0.00    +0.000 HD
ENDBRANCH  14  20
ENDBRANCH   1  17
BRANCH   3  22
ATOM     22  C   UNL     1       1.540  14.007  18.500  0.00  0.00    +0.000 A 
ATOM     23  C   UNL     1       2.888  14.128  18.157  0.00  0.00    +0.000 A 
ATOM     24  C   UNL     1       3.499  15.379  18.199  0.00  0.00    +0.000 A 
ATOM     25  C   UNL     1       2.755  16.490  18.576  0.00  0.00    +0.000 A 
ATOM     26  C   UNL     1       1.421  16.300  18.890  0.00  0.00    +0.000 A 
ATOM     27  N   UNL     1       0.803  15.099  18.859  0.00  0.00    +0.000 NA
ENDBRANCH   3  22
TORSDOF 4
ENDMDL
