MODEL 1
REMARK VINA RESULT:      -8.0      0.000      0.000
REMARK  Name = 
REMARK  7 active torsions:
REMARK  status: ('A' for Active; 'I' for Inactive)
REMARK    1  A    between atoms: C_1  and  O_2
REMARK    2  A    between atoms: O_2  and  C_3
REMARK    3  A    between atoms: C_6  and  C_7
REMARK    4  A    between atoms: C_7  and  N_8
REMARK    5  A    between atoms: C_9  and  C_11
REMARK    6  A    between atoms: C_17  and  O_18
REMARK    7  A    between atoms: O_18  and  C_19
REMARK                            x       y       z     vdW  Elec       q    Type
REMARK                         _______ _______ _______ _____ _____    ______ ____
ROOT
ATOM      1  C   UNL     1       2.575   7.027  19.033  0.00  0.00    +0.000 A 
ATOM      2  C   UNL     1       2.571   8.047  18.099  0.00  0.00    +0.000 A 
ATOM      3  C   UNL     1       1.665   9.009  18.562  0.00  0.00    +0.000 A 
ATOM      4  C   UNL     1       0.998  10.088  17.999  0.00  0.00    +0.000 A 
ATOM      5  C   UNL     1      -0.061  10.553  18.774  0.00  0.00    +0.000 A 
ATOM      6  C   UNL     1      -1.296  10.916  18.221  0.00  0.00    +0.000 A 
ATOM      7  C   UNL     1      -2.267  11.489  19.027  0.00  0.00    +0.000 A 
ATOM      8  C   UNL     1      -1.860  11.976  20.259  0.00  0.00    +0.000 A 
ATOM      9  C   UNL     1      -0.691  11.457  20.833  0.00  0.00    +0.000 A 
ATOM     10  C   UNL     1       0.059  10.493  20.160  0.00  0.00    +0.000 A 
ATOM     11  N   UNL     1       0.791   9.522  20.769  0.00  0.00    +0.000 NA
ATOM     12  C   UNL     1       1.414   8.698  19.893  0.00  0.00    +0.000 A 
ATOM     13  O   UNL     1       1.889   7.424  20.159  0.00  0.00    +0.000 OA
ENDROOT
BRANCH   1  15
ATOM     14  N   UNL     1       2.994   4.834  17.926  0.00  0.00    +0.000 N 
ATOM     15  C   UNL     1       3.310   5.776  18.901  0.00  0.00    +0.000 C 
ATOM     16  O   UNL     1       4.319   5.609  19.602  0.00  0.00    +0.000 OA
ATOM     17  H   UNL     1       2.361   5.091  17.186  0.00  0.00    +0.000 HD
BRANCH  14  18
ATOM     18  C   UNL     1       4.039   3.839  17.699  0.00  0.00    +0.000 C 
BRANCH  18  22
ATOM     19  C   UNL     1       7.163   4.995  14.931  0.00  0.00    +0.000 A 
ATOM     20  C   UNL     1       5.859   4.767  14.513  0.00  0.00    +0.000 A 
ATOM     21  C   UNL     1       4.883   4.352  15.404  0.00  0.00    +0.000 A 
ATOM     22  C   UNL     1       5.185   4.140  16.772  0.00  0.00    +0.000 A 
ATOM     23  C   UNL     1       6.488   4.357  17.186  0.00  0.00    +0.000 A 
ATOM     24  C   UNL     1       7.480   4.784  16.282  0.00  0.00    +0.000 A 
BRANCH  19  26
ATOM     25  C   UNL     1       7.708   5.061  12.617  0.00  0.00    +0.000 C 
ATOM     26  O   UNL     1       8.033   5.413  13.953  0.00  0.00    +0.000 OA
ENDBRANCH  19  26
ENDBRANCH  18  22
ENDBRANCH  14  18
ENDBRANCH   1  15
BRANCH   7  27
ATOM     27  O   UNL     1      -3.538  11.498  18.536  0.00  0.00    +0.000 OA
ATOM     28  C   UNL     1      -4.489  12.289  19.247  0.00  0.00    +0.000 C 
ENDBRANCH   7  27
TORSDOF 5
ENDMDL
MODEL 2
REMARK VINA RESULT:      -7.9      2.699     10.221
REMARK  Name = 
REMARK  7 active torsions:
REMARK  status: ('A' for Active; 'I' for Inactive)
REMARK    1  A    between atoms: C_1  and  O_2
REMARK    2  A    between atoms: O_2  and  C_3
REMARK    3  A    between atoms: C_6  and  C_7
REMARK    4  A    between atoms: C_7  and  N_8
REMARK    5  A    between atoms: C_9  and  C_11
REMARK    6  A    between atoms: C_17  and  O_18
REMARK    7  A    between atoms: O_18  and  C_19
REMARK                            x       y       z     vdW  Elec       q    Type
REMARK                         _______ _______ _______ _____ _____    ______ ____
ROOT
ATOM      1  C   UNL     1       1.435   9.765  19.036  0.00  0.00    +0.000 A 
ATOM      2  C   UNL     1       1.864   9.284  17.813  0.00  0.00    +0.000 A 
ATOM      3  C   UNL     1       2.462   8.042  18.059  0.00  0.00    +0.000 A 
ATOM      4  C   UNL     1       3.314   7.200  17.358  0.00  0.00    +0.000 A 
ATOM      5  C   UNL     1       3.906   6.221  18.152  0.00  0.00    +0.000 A 
ATOM      6  C   UNL     1       5.259   5.874  18.033  0.00  0.00    +0.000 A 
ATOM      7  C   UNL     1       5.758   4.806  18.763  0.00  0.00    +0.000 A 
ATOM      8  C   UNL     1       4.837   3.933  19.319  0.00  0.00    +0.000 A 
ATOM      9  C   UNL     1       3.534   4.393  19.556  0.00  0.00    +0.000 A 
ATOM     10  C   UNL     1       3.170   5.694  19.208  0.00  0.00    +0.000 A 
ATOM     11  N   UNL     1       2.240   6.436  19.867  0.00  0.00    +0.000 NA
ATOM     12  C   UNL     1       2.082   7.675  19.344  0.00  0.00    +0.000 A 
ATOM     13  O   UNL     1       1.536   8.775  19.987  0.00  0.00    +0.000 OA
ENDROOT
BRANCH   1  15
ATOM     14  N   UNL     1      -0.516  11.315  19.043  0.00  0.00    +0.000 N 
ATOM     15  C   UNL     1       0.839  11.076  19.256  0.00  0.00    +0.000 C 
ATOM     16  O   UNL     1       1.540  11.965  19.761  0.00  0.00    +0.000 OA
ATOM     17  H   UNL     1      -1.134  10.532  18.902  0.00  0.00    +0.000 HD
BRANCH  14  18
ATOM     18  C   UNL     1      -1.005  12.548  19.654  0.00  0.00    +0.000 C 
BRANCH  18  22
ATOM     19  C   UNL     1      -3.403  12.238  23.248  0.00  0.00    +0.000 A 
ATOM     20  C   UNL     1      -3.886  12.837  22.092  0.00  0.00    +0.000 A 
ATOM     21  C   UNL     1      -3.088  12.971  20.967  0.00  0.00    +0.000 A 
ATOM     22  C   UNL     1      -1.751  12.505  20.960  0.00  0.00    +0.000 A 
ATOM     23  C   UNL     1      -1.266  11.917  22.116  0.00  0.00    +0.000 A 
ATOM     24  C   UNL     1      -2.076  11.777  23.260  0.00  0.00    +0.000 A 
BRANCH  19  26
ATOM     25  C   UNL     1      -5.530  12.837  24.126  0.00  0.00    +0.000 C 
ATOM     26  O   UNL     1      -4.294  12.159  24.290  0.00  0.00    +0.000 OA
ENDBRANCH  19  26
ENDBRANCH  18  22
ENDBRANCH  14  18
ENDBRANCH   1  15
BRANCH   7  27
ATOM     27  O   UNL     1       7.113   4.732  18.881  0.00  0.00    +0.000 OA
ATOM     28  C   UNL     1       7.806   5.970  19.041  0.00  0.00    +0.000 C 
ENDBRANCH   7  27
TORSDOF 5
ENDMDL
MODEL 3
REMARK VINA RESULT:      -7.7      6.590      9.890
REMARK  Name = 
REMARK  7 active torsions:
REMARK  status: ('A' for Active; 'I' for Inactive)
REMARK    1  A    between atoms: C_1  and  O_2
REMARK    2  A    between atoms: O_2  and  C_3
REMARK    3  A    between atoms: C_6  and  C_7
REMARK    4  A    between atoms: C_7  and  N_8
REMARK    5  A    between atoms: C_9  and  C_11
REMARK    6  A    between atoms: C_17  and  O_18
REMARK    7  A    between atoms: O_18  and  C_19
REMARK                            x       y       z     vdW  Elec       q    Type
REMARK                         _______ _______ _______ _____ _____    ______ ____
ROOT
ATOM      1  C   UNL     1       8.224   8.859  18.232  0.00  0.00    +0.000 A 
ATOM      2  C   UNL     1       8.563   7.668  18.848  0.00  0.00    +0.000 A 
ATOM      3  C   UNL     1       7.687   6.696  18.350  0.00  0.00    +0.000 A 
ATOM      4  C   UNL     1       7.304   5.420  18.739  0.00  0.00    +0.000 A 
ATOM      5  C   UNL     1       6.147   4.971  18.108  0.00  0.00    +0.000 A 
ATOM      6  C   UNL     1       5.134   4.287  18.794  0.00  0.00    +0.000 A 
ATOM      7  C   UNL     1       4.067   3.755  18.086  0.00  0.00    +0.000 A 
ATOM      8  C   UNL     1       4.213   3.636  16.713  0.00  0.00    +0.000 A 
ATOM      9  C   UNL     1       5.140   4.463  16.064  0.00  0.00    +0.000 A 
ATOM     10  C   UNL     1       5.918   5.362  16.793  0.00  0.00    +0.000 A 
ATOM     11  N   UNL     1       6.364   6.557  16.319  0.00  0.00    +0.000 NA
ATOM     12  C   UNL     1       7.085   7.253  17.229  0.00  0.00    +0.000 A 
ATOM     13  O   UNL     1       7.333   8.617  17.211  0.00  0.00    +0.000 OA
ENDROOT
BRANCH   1  15
ATOM     14  N   UNL     1       9.714  10.330  19.583  0.00  0.00    +0.000 N 
ATOM     15  C   UNL     1       8.822  10.153  18.529  0.00  0.00    +0.000 C 
ATOM     16  O   UNL     1       8.619  11.090  17.742  0.00  0.00    +0.000 OA
ATOM     17  H   UNL     1      10.091   9.518  20.045  0.00  0.00    +0.000 HD
BRANCH  14  18
ATOM     18  C   UNL     1      10.485  11.568  19.508  0.00  0.00    +0.000 C 
BRANCH  18  22
ATOM     19  C   UNL     1       9.587  14.700  22.362  0.00  0.00    +0.000 A 
ATOM     20  C   UNL     1       8.914  13.485  22.369  0.00  0.00    +0.000 A 
ATOM     21  C   UNL     1       9.181  12.513  21.418  0.00  0.00    +0.000 A 
ATOM     22  C   UNL     1      10.146  12.728  20.404  0.00  0.00    +0.000 A 
ATOM     23  C   UNL     1      10.809  13.944  20.392  0.00  0.00    +0.000 A 
ATOM     24  C   UNL     1      10.542  14.932  21.360  0.00  0.00    +0.000 A 
BRANCH  19  26
ATOM     25  C   UNL     1       8.863  15.005  24.607  0.00  0.00    +0.000 C 
ATOM     26  O   UNL     1       9.237  15.575  23.362  0.00  0.00    +0.000 OA
ENDBRANCH  19  26
ENDBRANCH  18  22
ENDBRANCH  14  18
ENDBRANCH   1  15
BRANCH   7  27
ATOM     27  O   UNL     1       2.964   3.418  18.812  0.00  0.00    +0.000 OA
ATOM     28  C   UNL     1       2.262   2.248  18.396  0.00  0.00    +0.000 C 
ENDBRANCH   7  27
TORSDOF 5
ENDMDL
MODEL 4
REMARK VINA RESULT:      -7.7      1.603      2.310
REMARK  Name = 
REMARK  7 active torsions:
REMARK  status: ('A' for Active; 'I' for Inactive)
REMARK    1  A    between atoms: C_1  and  O_2
REMARK    2  A    between atoms: O_2  and  C_3
REMARK    3  A    between atoms: C_6  and  C_7
REMARK    4  A    between atoms: C_7  and  N_8
REMARK    5  A    between atoms: C_9  and  C_11
REMARK    6  A    between atoms: C_17  and  O_18
REMARK    7  A    between atoms: O_18  and  C_19
REMARK                            x       y       z     vdW  Elec       q    Type
REMARK                         _______ _______ _______ _____ _____    ______ ____
ROOT
ATOM      1  C   UNL     1       1.599   8.424  19.809  0.00  0.00    +0.000 A 
ATOM      2  C   UNL     1       1.373   9.566  19.062  0.00  0.00    +0.000 A 
ATOM      3  C   UNL     1       0.605  10.421  19.861  0.00  0.00    +0.000 A 
ATOM      4  C   UNL     1      -0.175  11.546  19.635  0.00  0.00    +0.000 A 
ATOM      5  C   UNL     1      -1.020  11.860  20.698  0.00  0.00    +0.000 A 
ATOM      6  C   UNL     1      -2.350  12.256  20.510  0.00  0.00    +0.000 A 
ATOM      7  C   UNL     1      -3.100  12.676  21.597  0.00  0.00    +0.000 A 
ATOM      8  C   UNL     1      -2.412  12.995  22.757  0.00  0.00    +0.000 A 
ATOM      9  C   UNL     1      -1.141  12.439  22.956  0.00  0.00    +0.000 A 
ATOM     10  C   UNL     1      -0.573  11.607  21.992  0.00  0.00    +0.000 A 
ATOM     11  N   UNL     1       0.281  10.585  22.262  0.00  0.00    +0.000 NA
ATOM     12  C   UNL     1       0.677   9.916  21.153  0.00  0.00    +0.000 A 
ATOM     13  O   UNL     1       1.200   8.633  21.111  0.00  0.00    +0.000 OA
ENDROOT
BRANCH   1  15
ATOM     14  N   UNL     1       2.900   6.334  20.191  0.00  0.00    +0.000 N 
ATOM     15  C   UNL     1       2.279   7.230  19.326  0.00  0.00    +0.000 C 
ATOM     16  O   UNL     1       2.194   6.951  18.121  0.00  0.00    +0.000 OA
ATOM     17  H   UNL     1       2.731   6.414  21.181  0.00  0.00    +0.000 HD
BRANCH  14  18
ATOM     18  C   UNL     1       3.199   5.037  19.589  0.00  0.00    +0.000 C 
BRANCH  18  22
ATOM     19  C   UNL     1       6.581   4.739  16.901  0.00  0.00    +0.000 A 
ATOM     20  C   UNL     1       5.304   4.351  16.520  0.00  0.00    +0.000 A 
ATOM     21  C   UNL     1       4.242   4.408  17.409  0.00  0.00    +0.000 A 
ATOM     22  C   UNL     1       4.426   4.859  18.738  0.00  0.00    +0.000 A 
ATOM     23  C   UNL     1       5.702   5.237  19.120  0.00  0.00    +0.000 A 
ATOM     24  C   UNL     1       6.782   5.183  18.218  0.00  0.00    +0.000 A 
BRANCH  19  26
ATOM     25  C   UNL     1       7.106   4.767  14.582  0.00  0.00    +0.000 C 
ATOM     26  O   UNL     1       7.544   4.643  15.926  0.00  0.00    +0.000 OA
ENDBRANCH  19  26
ENDBRANCH  18  22
ENDBRANCH  14  18
ENDBRANCH   1  15
BRANCH   7  27
ATOM     27  O   UNL     1      -4.452  12.711  21.425  0.00  0.00    +0.000 OA
ATOM     28  C   UNL     1      -4.927  12.546  20.090  0.00  0.00    +0.000 C 
ENDBRANCH   7  27
TORSDOF 5
ENDMDL
MODEL 5
REMARK VINA RESULT:      -7.7      2.435     10.358
REMARK  Name = 
REMARK  7 active torsions:
REMARK  status: ('A' for Active; 'I' for Inactive)
REMARK    1  A    between atoms: C_1  and  O_2
REMARK    2  A    between atoms: O_2  and  C_3
REMARK    3  A    between atoms: C_6  and  C_7
REMARK    4  A    between atoms: C_7  and  N_8
REMARK    5  A    between atoms: C_9  and  C_11
REMARK    6  A    between atoms: C_17  and  O_18
REMARK    7  A    between atoms: O_18  and  C_19
REMARK                            x       y       z     vdW  Elec       q    Type
REMARK                         _______ _______ _______ _____ _____    ______ ____
ROOT
ATOM      1  C   UNL     1       1.042   9.222  21.020  0.00  0.00    +0.000 A 
ATOM      2  C   UNL     1       1.029   9.518  19.669  0.00  0.00    +0.000 A 
ATOM      3  C   UNL     1       1.751   8.502  19.030  0.00  0.00    +0.000 A 
ATOM      4  C   UNL     1       2.342   8.346  17.784  0.00  0.00    +0.000 A 
ATOM      5  C   UNL     1       3.241   7.283  17.725  0.00  0.00    +0.000 A 
ATOM      6  C   UNL     1       4.478   7.380  17.074  0.00  0.00    +0.000 A 
ATOM      7  C   UNL     1       5.272   6.251  16.941  0.00  0.00    +0.000 A 
ATOM      8  C   UNL     1       4.670   5.023  17.162  0.00  0.00    +0.000 A 
ATOM      9  C   UNL     1       3.515   4.976  17.955  0.00  0.00    +0.000 A 
ATOM     10  C   UNL     1       2.970   6.147  18.481  0.00  0.00    +0.000 A 
ATOM     11  N   UNL     1       2.297   6.222  19.661  0.00  0.00    +0.000 NA
ATOM     12  C   UNL     1       1.884   7.477  19.958  0.00  0.00    +0.000 A 
ATOM     13  O   UNL     1       1.541   7.953  21.213  0.00  0.00    +0.000 OA
ENDROOT
BRANCH   1  15
ATOM     14  N   UNL     1      -0.331  11.158  21.777  0.00  0.00    +0.000 N 
ATOM     15  C   UNL     1       0.486  10.068  22.066  0.00  0.00    +0.000 C 
ATOM     16  O   UNL     1       0.650   9.730  23.248  0.00  0.00    +0.000 OA
ATOM     17  H   UNL     1      -0.688  11.267  20.841  0.00  0.00    +0.000 HD
BRANCH  14  18
ATOM     18  C   UNL     1      -1.086  11.657  22.924  0.00  0.00    +0.000 C 
BRANCH  18  22
ATOM     19  C   UNL     1      -5.075  13.145  22.133  0.00  0.00    +0.000 A 
ATOM     20  C   UNL     1      -4.125  13.022  21.129  0.00  0.00    +0.000 A 
ATOM     21  C   UNL     1      -2.839  12.590  21.408  0.00  0.00    +0.000 A 
ATOM     22  C   UNL     1      -2.449  12.263  22.730  0.00  0.00    +0.000 A 
ATOM     23  C   UNL     1      -3.394  12.396  23.733  0.00  0.00    +0.000 A 
ATOM     24  C   UNL     1      -4.703  12.832  23.450  0.00  0.00    +0.000 A 
BRANCH  19  26
ATOM     25  C   UNL     1      -6.734  13.178  20.430  0.00  0.00    +0.000 C 
ATOM     26  O   UNL     1      -6.315  13.575  21.726  0.00  0.00    +0.000 OA
ENDBRANCH  19  26
ENDBRANCH  18  22
ENDBRANCH  14  18
ENDBRANCH   1  15
BRANCH   7  27
ATOM     27  O   UNL     1       6.581   6.463  16.624  0.00  0.00    +0.000 OA
ATOM     28  C   UNL     1       7.276   7.429  17.413  0.00  0.00    +0.000 C 
ENDBRANCH   7  27
TORSDOF 5
ENDMDL
MODEL 6
REMARK VINA RESULT:      -7.7      6.756      8.371
REMARK  Name = 
REMARK  7 active torsions:
REMARK  status: ('A' for Active; 'I' for Inactive)
REMARK    1  A    between atoms: C_1  and  O_2
REMARK    2  A    between atoms: O_2  and  C_3
REMARK    3  A    between atoms: C_6  and  C_7
REMARK    4  A    between atoms: C_7  and  N_8
REMARK    5  A    between atoms: C_9  and  C_11
REMARK    6  A    between atoms: C_17  and  O_18
REMARK    7  A    between atoms: O_18  and  C_19
REMARK                            x       y       z     vdW  Elec       q    Type
REMARK                         _______ _______ _______ _____ _____    ______ ____
ROOT
ATOM      1  C   UNL     1       8.375   9.141  18.254  0.00  0.00    +0.000 A 
ATOM      2  C   UNL     1       8.232  10.214  17.393  0.00  0.00    +0.000 A 
ATOM      3  C   UNL     1       8.884  11.298  17.993  0.00  0.00    +0.000 A 
ATOM      4  C   UNL     1       8.876  12.675  17.817  0.00  0.00    +0.000 A 
ATOM      5  C   UNL     1       9.444  13.374  18.880  0.00  0.00    +0.000 A 
ATOM      6  C   UNL     1       8.876  14.546  19.398  0.00  0.00    +0.000 A 
ATOM      7  C   UNL     1       9.555  15.264  20.370  0.00  0.00    +0.000 A 
ATOM      8  C   UNL     1      10.898  14.975  20.549  0.00  0.00    +0.000 A 
ATOM      9  C   UNL     1      11.374  13.719  20.148  0.00  0.00    +0.000 A 
ATOM     10  C   UNL     1      10.515  12.795  19.554  0.00  0.00    +0.000 A 
ATOM     11  N   UNL     1      10.638  11.445  19.666  0.00  0.00    +0.000 NA
ATOM     12  C   UNL     1       9.666  10.767  19.011  0.00  0.00    +0.000 A 
ATOM     13  O   UNL     1       9.280   9.456  19.243  0.00  0.00    +0.000 OA
ENDROOT
BRANCH   1  15
ATOM     14  N   UNL     1       6.824   7.593  17.068  0.00  0.00    +0.000 N 
ATOM     15  C   UNL     1       7.767   7.832  18.065  0.00  0.00    +0.000 C 
ATOM     16  O   UNL     1       8.196   6.881  18.735  0.00  0.00    +0.000 OA
ATOM     17  H   UNL     1       6.683   8.287  16.353  0.00  0.00    +0.000 HD
BRANCH  14  18
ATOM     18  C   UNL     1       6.604   6.177  16.785  0.00  0.00    +0.000 C 
BRANCH  18  22
ATOM     19  C   UNL     1       2.736   4.491  17.762  0.00  0.00    +0.000 A 
ATOM     20  C   UNL     1       3.041   5.822  18.012  0.00  0.00    +0.000 A 
ATOM     21  C   UNL     1       4.299   6.332  17.738  0.00  0.00    +0.000 A 
ATOM     22  C   UNL     1       5.319   5.511  17.197  0.00  0.00    +0.000 A 
ATOM     23  C   UNL     1       5.017   4.181  16.958  0.00  0.00    +0.000 A 
ATOM     24  C   UNL     1       3.738   3.661  17.233  0.00  0.00    +0.000 A 
BRANCH  19  26
ATOM     25  C   UNL     1       1.268   2.768  18.493  0.00  0.00    +0.000 C 
ATOM     26  O   UNL     1       1.452   4.111  18.070  0.00  0.00    +0.000 OA
ENDBRANCH  19  26
ENDBRANCH  18  22
ENDBRANCH  14  18
ENDBRANCH   1  15
BRANCH   7  27
ATOM     27  O   UNL     1       8.824  16.173  21.075  0.00  0.00    +0.000 OA
ATOM     28  C   UNL     1       7.583  15.713  21.610  0.00  0.00    +0.000 C 
ENDBRANCH   7  27
TORSDOF 5
ENDMDL
MODEL 7
REMARK VINA RESULT:      -7.6      2.455     10.435
REMARK  Name = 
REMARK  7 active torsions:
REMARK  status: ('A' for Active; 'I' for Inactive)
REMARK    1  A    between atoms: C_1  and  O_2
REMARK    2  A    between atoms: O_2  and  C_3
REMARK    3  A    between atoms: C_6  and  C_7
REMARK    4  A    between atoms: C_7  and  N_8
REMARK    5  A    between atoms: C_9  and  C_11
REMARK    6  A    between atoms: C_17  and  O_18
REMARK    7  A    between atoms: O_18  and  C_19
REMARK                            x       y       z     vdW  Elec       q    Type
REMARK                         _______ _______ _______ _____ _____    ______ ____
ROOT
ATOM      1  C   UNL     1       1.317   9.723  19.772  0.00  0.00    +0.000 A 
ATOM      2  C   UNL     1       1.653   9.338  18.486  0.00  0.00    +0.000 A 
ATOM      3  C   UNL     1       2.207   8.056  18.584  0.00  0.00    +0.000 A 
ATOM      4  C   UNL     1       2.977   7.249  17.760  0.00  0.00    +0.000 A 
ATOM      5  C   UNL     1       3.570   6.179  18.426  0.00  0.00    +0.000 A 
ATOM      6  C   UNL     1       4.896   5.790  18.194  0.00  0.00    +0.000 A 
ATOM      7  C   UNL     1       5.387   4.641  18.794  0.00  0.00    +0.000 A 
ATOM      8  C   UNL     1       4.462   3.758  19.326  0.00  0.00    +0.000 A 
ATOM      9  C   UNL     1       3.197   4.247  19.682  0.00  0.00    +0.000 A 
ATOM     10  C   UNL     1       2.873   5.587  19.475  0.00  0.00    +0.000 A 
ATOM     11  N   UNL     1       2.017   6.302  20.253  0.00  0.00    +0.000 NA
ATOM     12  C   UNL     1       1.885   7.589  19.853  0.00  0.00    +0.000 A 
ATOM     13  O   UNL     1       1.428   8.646  20.623  0.00  0.00    +0.000 OA
ENDROOT
BRANCH   1  15
ATOM     14  N   UNL     1      -0.210  11.659  19.412  0.00  0.00    +0.000 N 
ATOM     15  C   UNL     1       0.794  11.031  20.143  0.00  0.00    +0.000 C 
ATOM     16  O   UNL     1       1.175  11.536  21.210  0.00  0.00    +0.000 OA
ATOM     17  H   UNL     1      -0.710  11.130  18.715  0.00  0.00    +0.000 HD
BRANCH  14  18
ATOM     18  C   UNL     1      -0.860  12.760  20.118  0.00  0.00    +0.000 C 
BRANCH  18  22
ATOM     19  C   UNL     1      -4.795  12.566  21.917  0.00  0.00    +0.000 A 
ATOM     20  C   UNL     1      -3.635  12.538  22.681  0.00  0.00    +0.000 A 
ATOM     21  C   UNL     1      -2.385  12.553  22.086  0.00  0.00    +0.000 A 
ATOM     22  C   UNL     1      -2.246  12.591  20.677  0.00  0.00    +0.000 A 
ATOM     23  C   UNL     1      -3.402  12.609  19.916  0.00  0.00    +0.000 A 
ATOM     24  C   UNL     1      -4.675  12.597  20.519  0.00  0.00    +0.000 A 
BRANCH  19  26
ATOM     25  C   UNL     1      -6.025  13.375  23.785  0.00  0.00    +0.000 C 
ATOM     26  O   UNL     1      -5.971  12.556  22.626  0.00  0.00    +0.000 OA
ENDBRANCH  19  26
ENDBRANCH  18  22
ENDBRANCH  14  18
ENDBRANCH   1  15
BRANCH   7  27
ATOM     27  O   UNL     1       6.743   4.502  18.820  0.00  0.00    +0.000 OA
ATOM     28  C   UNL     1       7.422   4.654  17.574  0.00  0.00    +0.000 C 
ENDBRANCH   7  27
TORSDOF 5
ENDMDL
MODEL 8
REMARK VINA RESULT:      -7.6      6.836      9.924
REMARK  Name = 
REMARK  7 active torsions:
REMARK  status: ('A' for Active; 'I' for Inactive)
REMARK    1  A    between atoms: C_1  and  O_2
REMARK    2  A    between atoms: O_2  and  C_3
REMARK    3  A    between atoms: C_6  and  C_7
REMARK    4  A    between atoms: C_7  and  N_8
REMARK    5  A    between atoms: C_9  and  C_11
REMARK    6  A    between atoms: C_17  and  O_18
REMARK    7  A    between atoms: O_18  and  C_19
REMARK                            x       y       z     vdW  Elec       q    Type
REMARK                         _______ _______ _______ _____ _____    ______ ____
ROOT
ATOM      1  C   UNL     1       8.194   8.898  18.193  0.00  0.00    +0.000 A 
ATOM      2  C   UNL     1       8.547   7.706  18.799  0.00  0.00    +0.000 A 
ATOM      3  C   UNL     1       7.663   6.734  18.315  0.00  0.00    +0.000 A 
ATOM      4  C   UNL     1       7.290   5.456  18.708  0.00  0.00    +0.000 A 
ATOM      5  C   UNL     1       6.121   5.006  18.099  0.00  0.00    +0.000 A 
ATOM      6  C   UNL     1       5.123   4.319  18.802  0.00  0.00    +0.000 A 
ATOM      7  C   UNL     1       4.044   3.787  18.114  0.00  0.00    +0.000 A 
ATOM      8  C   UNL     1       4.163   3.673  16.738  0.00  0.00    +0.000 A 
ATOM      9  C   UNL     1       5.076   4.503  16.073  0.00  0.00    +0.000 A 
ATOM     10  C   UNL     1       5.866   5.401  16.789  0.00  0.00    +0.000 A 
ATOM     11  N   UNL     1       6.301   6.598  16.310  0.00  0.00    +0.000 NA
ATOM     12  C   UNL     1       7.038   7.293  17.208  0.00  0.00    +0.000 A 
ATOM     13  O   UNL     1       7.283   8.657  17.188  0.00  0.00    +0.000 OA
ENDROOT
BRANCH   1  15
ATOM     14  N   UNL     1       9.746  10.357  19.485  0.00  0.00    +0.000 N 
ATOM     15  C   UNL     1       8.795  10.192  18.482  0.00  0.00    +0.000 C 
ATOM     16  O   UNL     1       8.537  11.143  17.728  0.00  0.00    +0.000 OA
ATOM     17  H   UNL     1      10.157   9.540  19.908  0.00  0.00    +0.000 HD
BRANCH  14  18
ATOM     18  C   UNL     1      10.499  11.606  19.392  0.00  0.00    +0.000 C 
BRANCH  18  22
ATOM     19  C   UNL     1       9.893  14.906  22.130  0.00  0.00    +0.000 A 
ATOM     20  C   UNL     1      10.782  14.988  21.066  0.00  0.00    +0.000 A 
ATOM     21  C   UNL     1      10.999  13.906  20.229  0.00  0.00    +0.000 A 
ATOM     22  C   UNL     1      10.324  12.677  20.433  0.00  0.00    +0.000 A 
ATOM     23  C   UNL     1       9.446  12.593  21.500  0.00  0.00    +0.000 A 
ATOM     24  C   UNL     1       9.221  13.693  22.350  0.00  0.00    +0.000 A 
BRANCH  19  26
ATOM     25  C   UNL     1      10.960  16.654  23.340  0.00  0.00    +0.000 C 
ATOM     26  O   UNL     1       9.761  16.050  22.879  0.00  0.00    +0.000 OA
ENDBRANCH  19  26
ENDBRANCH  18  22
ENDBRANCH  14  18
ENDBRANCH   1  15
BRANCH   7  27
ATOM     27  O   UNL     1       2.956   3.447  18.861  0.00  0.00    +0.000 OA
ATOM     28  C   UNL     1       3.180   3.248  20.256  0.00  0.00    +0.000 C 
ENDBRANCH   7  27
TORSDOF 5
ENDMDL
MODEL 9
REMARK VINA RESULT:      -7.6      2.588     10.219
REMARK  Name = 
REMARK  7 active torsions:
REMARK  status: ('A' for Active; 'I' for Inactive)
REMARK    1  A    between atoms: C_1  and  O_2
REMARK    2  A    between atoms: O_2  and  C_3
REMARK    3  A    between atoms: C_6  and  C_7
REMARK    4  A    between atoms: C_7  and  N_8
REMARK    5  A    between atoms: C_9  and  C_11
REMARK    6  A    between atoms: C_17  and  O_18
REMARK    7  A    between atoms: O_18  and  C_19
REMARK                            x       y       z     vdW  Elec       q    Type
REMARK                         _______ _______ _______ _____ _____    ______ ____
ROOT
ATOM      1  C   UNL     1       1.316   9.618  19.126  0.00  0.00    +0.000 A 
ATOM      2  C   UNL     1       1.865   9.256  17.909  0.00  0.00    +0.000 A 
ATOM      3  C   UNL     1       2.499   8.023  18.107  0.00  0.00    +0.000 A 
ATOM      4  C   UNL     1       3.443   7.277  17.415  0.00  0.00    +0.000 A 
ATOM      5  C   UNL     1       4.016   6.262  18.177  0.00  0.00    +0.000 A 
ATOM      6  C   UNL     1       5.388   5.980  18.146  0.00  0.00    +0.000 A 
ATOM      7  C   UNL     1       5.877   4.878  18.829  0.00  0.00    +0.000 A 
ATOM      8  C   UNL     1       4.957   3.925  19.236  0.00  0.00    +0.000 A 
ATOM      9  C   UNL     1       3.619   4.311  19.398  0.00  0.00    +0.000 A 
ATOM     10  C   UNL     1       3.223   5.620  19.124  0.00  0.00    +0.000 A 
ATOM     11  N   UNL     1       2.208   6.267  19.758  0.00  0.00    +0.000 NA
ATOM     12  C   UNL     1       2.034   7.537  19.322  0.00  0.00    +0.000 A 
ATOM     13  O   UNL     1       1.387   8.557  20.002  0.00  0.00    +0.000 OA
ENDROOT
BRANCH   1  15
ATOM     14  N   UNL     1      -0.422  11.330  18.620  0.00  0.00    +0.000 N 
ATOM     15  C   UNL     1       0.643  10.880  19.396  0.00  0.00    +0.000 C 
ATOM     16  O   UNL     1       0.954  11.507  20.420  0.00  0.00    +0.000 OA
ATOM     17  H   UNL     1      -0.851  10.696  17.966  0.00  0.00    +0.000 HD
BRANCH  14  18
ATOM     18  C   UNL     1      -1.200  12.399  19.240  0.00  0.00    +0.000 C 
BRANCH  18  22
ATOM     19  C   UNL     1      -5.483  12.287  19.874  0.00  0.00    +0.000 A 
ATOM     20  C   UNL     1      -4.613  12.802  20.826  0.00  0.00    +0.000 A 
ATOM     21  C   UNL     1      -3.242  12.786  20.627  0.00  0.00    +0.000 A 
ATOM     22  C   UNL     1      -2.681  12.239  19.447  0.00  0.00    +0.000 A 
ATOM     23  C   UNL     1      -3.549  11.716  18.503  0.00  0.00    +0.000 A 
ATOM     24  C   UNL     1      -4.943  11.735  18.702  0.00  0.00    +0.000 A 
BRANCH  19  26
ATOM     25  C   UNL     1      -7.504  11.145  20.387  0.00  0.00    +0.000 C 
ATOM     26  O   UNL     1      -6.818  12.371  20.187  0.00  0.00    +0.000 OA
ENDBRANCH  19  26
ENDBRANCH  18  22
ENDBRANCH  14  18
ENDBRANCH   1  15
BRANCH   7  27
ATOM     27  O   UNL     1       7.221   4.850  19.055  0.00  0.00    +0.000 OA
ATOM     28  C   UNL     1       7.917   6.085  18.897  0.00  0.00    +0.000 C 
ENDBRANCH   7  27
TORSDOF 5
ENDMDL
