MODEL 1
REMARK VINA RESULT:      -8.7      0.000      0.000
REMARK  Name = 
REMARK  5 active torsions:
REMARK  status: ('A' for Active; 'I' for Inactive)
REMARK    1  A    between atoms: O_1  and  C_2
REMARK    2  A    between atoms: C_2  and  C_3
REMARK    3  A    between atoms: N_5  and  C_6
REMARK    4  A    between atoms: C_9  and  N_10
REMARK    5  A    between atoms: C_13  and  C_14
REMARK                            x       y       z     vdW  Elec       q    Type
REMARK                         _______ _______ _______ _____ _____    ______ ____
ROOT
ATOM      1  N   UNL     1       0.586  10.223  21.238  0.00  0.00    +0.000 N 
ATOM      2  C   UNL     1      -0.483  11.031  20.893  0.00  0.00    +0.000 A 
ATOM      3  N   UNL     1      -1.135  10.858  19.770  0.00  0.00    +0.000 NA
ATOM      4  C   UNL     1      -2.190  11.671  19.404  0.00  0.00    +0.000 A 
ATOM      5  C   UNL     1      -2.592  12.703  20.172  0.00  0.00    +0.000 A 
ATOM      6  N   UNL     1      -1.939  12.924  21.362  0.00  0.00    +0.000 N 
ATOM      7  C   UNL     1      -2.116  13.864  22.341  0.00  0.00    +0.000 A 
ATOM      8  C   UNL     1      -1.166  13.566  23.296  0.00  0.00    +0.000 A 
ATOM      9  N   UNL     1      -0.396  12.488  22.922  0.00  0.00    +0.000 NA
ATOM     10  C   UNL     1      -0.898  12.127  21.757  0.00  0.00    +0.000 A 
ATOM     11  H   UNL     1       1.172  10.573  21.987  0.00  0.00    +0.000 HD
ENDROOT
BRANCH   4  12
ATOM     12  C   UNL     1      -2.825  11.370  18.095  0.00  0.00    +0.000 A 
ATOM     13  C   UNL     1      -4.171  11.671  17.833  0.00  0.00    +0.000 A 
ATOM     14  C   UNL     1      -4.765  11.381  16.593  0.00  0.00    +0.000 A 
ATOM     15  C   UNL     1      -3.991  10.759  15.601  0.00  0.00    +0.000 A 
ATOM     16  C   UNL     1      -4.190  10.321  14.273  0.00  0.00    +0.000 A 
ATOM     17  N   UNL     1      -3.100   9.757  13.745  0.00  0.00    +0.000 NA
ATOM     18  N   UNL     1      -2.198   9.833  14.742  0.00  0.00    +0.000 N 
ATOM     19  C   UNL     1      -2.671  10.435  15.877  0.00  0.00    +0.000 A 
ATOM     20  C   UNL     1      -2.060  10.719  17.105  0.00  0.00    +0.000 A 
ATOM     21  H   UNL     1      -1.270   9.458  14.583  0.00  0.00    +0.000 HD
ENDBRANCH   4  12
BRANCH   1  25
ATOM     22  C   UNL     1       2.271   6.871  19.218  0.00  0.00    +0.000 A 
ATOM     23  C   UNL     1       1.735   6.775  20.508  0.00  0.00    +0.000 A 
ATOM     24  C   UNL     1       1.157   7.874  21.159  0.00  0.00    +0.000 A 
ATOM     25  C   UNL     1       1.057   9.111  20.524  0.00  0.00    +0.000 A 
ATOM     26  C   UNL     1       1.519   9.189  19.205  0.00  0.00    +0.000 A 
ATOM     27  C   UNL     1       2.130   8.100  18.574  0.00  0.00    +0.000 A 
BRANCH  22  30
ATOM     28  C   UNL     1       2.557   3.362  18.680  0.00  0.00    +0.000 C 
ATOM     29  C   UNL     1       2.165   4.692  18.010  0.00  0.00    +0.000 C 
ATOM     30  N   UNL     1       2.903   5.816  18.598  0.00  0.00    +0.000 N 
ATOM     31  C   UNL     1       4.358   5.637  18.667  0.00  0.00    +0.000 C 
ATOM     32  C   UNL     1       4.689   4.273  19.298  0.00  0.00    +0.000 C 
ATOM     33  O   UNL     1       3.991   3.180  18.679  0.00  0.00    +0.000 OA
BRANCH  28  34
ATOM     34  C   UNL     1       1.963   3.182  20.084  0.00  0.00    +0.000 C 
BRANCH  34  35
ATOM     35  O   UNL     1       0.539   3.222  20.052  0.00  0.00    +0.000 OA
ATOM     36  H   UNL     1       0.241   3.309  20.975  0.00  0.00    +0.000 HD
ENDBRANCH  34  35
ENDBRANCH  28  34
ENDBRANCH  22  30
ENDBRANCH   1  25
TORSDOF 5
ENDMDL
MODEL 2
REMARK VINA RESULT:      -8.5      0.994      1.102
REMARK  Name = 
REMARK  5 active torsions:
REMARK  status: ('A' for Active; 'I' for Inactive)
REMARK    1  A    between atoms: O_1  and  C_2
REMARK    2  A    between atoms: C_2  and  C_3
REMARK    3  A    between atoms: N_5  and  C_6
REMARK    4  A    between atoms: C_9  and  N_10
REMARK    5  A    between atoms: C_13  and  C_14
REMARK                            x       y       z     vdW  Elec       q    Type
REMARK                         _______ _______ _______ _____ _____    ______ ____
ROOT
ATOM      1  N   UNL     1       0.791   9.939  20.816  0.00  0.00    +0.000 N 
ATOM      2  C   UNL     1      -0.345  10.691  20.577  0.00  0.00    +0.000 A 
ATOM      3  N   UNL     1      -1.008  10.586  19.451  0.00  0.00    +0.000 NA
ATOM      4  C   UNL     1      -2.132  11.345  19.192  0.00  0.00    +0.000 A 
ATOM      5  C   UNL     1      -2.595  12.255  20.072  0.00  0.00    +0.000 A 
ATOM      6  N   UNL     1      -1.932  12.400  21.269  0.00  0.00    +0.000 N 
ATOM      7  C   UNL     1      -2.159  13.213  22.346  0.00  0.00    +0.000 A 
ATOM      8  C   UNL     1      -1.166  12.893  23.249  0.00  0.00    +0.000 A 
ATOM      9  N   UNL     1      -0.323  11.927  22.749  0.00  0.00    +0.000 NA
ATOM     10  C   UNL     1      -0.824  11.652  21.559  0.00  0.00    +0.000 A 
ATOM     11  H   UNL     1       1.366  10.253  21.589  0.00  0.00    +0.000 HD
ENDROOT
BRANCH   4  12
ATOM     12  C   UNL     1      -2.773  11.135  17.868  0.00  0.00    +0.000 A 
ATOM     13  C   UNL     1      -4.080  11.570  17.595  0.00  0.00    +0.000 A 
ATOM     14  C   UNL     1      -4.679  11.365  16.341  0.00  0.00    +0.000 A 
ATOM     15  C   UNL     1      -3.954  10.693  15.345  0.00  0.00    +0.000 A 
ATOM     16  C   UNL     1      -4.174  10.304  14.006  0.00  0.00    +0.000 A 
ATOM     17  N   UNL     1      -3.135   9.649  13.480  0.00  0.00    +0.000 NA
ATOM     18  N   UNL     1      -2.246   9.617  14.490  0.00  0.00    +0.000 N 
ATOM     19  C   UNL     1      -2.675  10.237  15.632  0.00  0.00    +0.000 A 
ATOM     20  C   UNL     1      -2.059  10.435  16.874  0.00  0.00    +0.000 A 
ATOM     21  H   UNL     1      -1.356   9.157  14.335  0.00  0.00    +0.000 HD
ENDBRANCH   4  12
BRANCH   1  25
ATOM     22  C   UNL     1       2.692   6.990  18.397  0.00  0.00    +0.000 A 
ATOM     23  C   UNL     1       2.326   6.745  19.726  0.00  0.00    +0.000 A 
ATOM     24  C   UNL     1       1.676   7.709  20.511  0.00  0.00    +0.000 A 
ATOM     25  C   UNL     1       1.330   8.949  19.979  0.00  0.00    +0.000 A 
ATOM     26  C   UNL     1       1.623   9.168  18.628  0.00  0.00    +0.000 A 
ATOM     27  C   UNL     1       2.306   8.218  17.860  0.00  0.00    +0.000 A 
BRANCH  22  30
ATOM     28  C   UNL     1       4.182   3.770  18.091  0.00  0.00    +0.000 C 
ATOM     29  C   UNL     1       3.028   4.656  17.587  0.00  0.00    +0.000 C 
ATOM     30  N   UNL     1       3.392   6.076  17.641  0.00  0.00    +0.000 N 
ATOM     31  C   UNL     1       4.670   6.415  17.005  0.00  0.00    +0.000 C 
ATOM     32  C   UNL     1       5.774   5.468  17.509  0.00  0.00    +0.000 C 
ATOM     33  O   UNL     1       5.417   4.080  17.406  0.00  0.00    +0.000 OA
BRANCH  28  34
ATOM     34  C   UNL     1       4.357   3.797  19.616  0.00  0.00    +0.000 C 
BRANCH  34  35
ATOM     35  O   UNL     1       3.212   3.267  20.279  0.00  0.00    +0.000 OA
ATOM     36  H   UNL     1       2.667   2.837  19.596  0.00  0.00    +0.000 HD
ENDBRANCH  34  35
ENDBRANCH  28  34
ENDBRANCH  22  30
ENDBRANCH   1  25
TORSDOF 5
ENDMDL
MODEL 3
REMARK VINA RESULT:      -8.2      6.338      9.892
REMARK  Name = 
REMARK  5 active torsions:
REMARK  status: ('A' for Active; 'I' for Inactive)
REMARK    1  A    between atoms: O_1  and  C_2
REMARK    2  A    between atoms: C_2  and  C_3
REMARK    3  A    between atoms: N_5  and  C_6
REMARK    4  A    between atoms: C_9  and  N_10
REMARK    5  A    between atoms: C_13  and  C_14
REMARK                            x       y       z     vdW  Elec       q    Type
REMARK                         _______ _______ _______ _____ _____    ______ ____
ROOT
ATOM      1  N   UNL     1       7.786   7.516  17.241  0.00  0.00    +0.000 N 
ATOM      2  C   UNL     1       6.540   6.922  17.166  0.00  0.00    +0.000 A 
ATOM      3  N   UNL     1       5.490   7.465  17.732  0.00  0.00    +0.000 NA
ATOM      4  C   UNL     1       4.243   6.872  17.683  0.00  0.00    +0.000 A 
ATOM      5  C   UNL     1       4.043   5.688  17.070  0.00  0.00    +0.000 A 
ATOM      6  N   UNL     1       5.115   5.079  16.460  0.00  0.00    +0.000 N 
ATOM      7  C   UNL     1       5.226   3.906  15.765  0.00  0.00    +0.000 A 
ATOM      8  C   UNL     1       6.550   3.841  15.386  0.00  0.00    +0.000 A 
ATOM      9  N   UNL     1       7.260   4.926  15.847  0.00  0.00    +0.000 NA
ATOM     10  C   UNL     1       6.359   5.650  16.482  0.00  0.00    +0.000 A 
ATOM     11  H   UNL     1       8.568   6.921  16.993  0.00  0.00    +0.000 HD
ENDROOT
BRANCH   4  12
ATOM     12  C   UNL     1       3.148   7.591  18.383  0.00  0.00    +0.000 A 
ATOM     13  C   UNL     1       2.667   7.178  19.637  0.00  0.00    +0.000 A 
ATOM     14  C   UNL     1       1.630   7.861  20.291  0.00  0.00    +0.000 A 
ATOM     15  C   UNL     1       1.051   8.976  19.664  0.00  0.00    +0.000 A 
ATOM     16  C   UNL     1       0.035   9.908  19.968  0.00  0.00    +0.000 A 
ATOM     17  N   UNL     1      -0.152  10.805  18.996  0.00  0.00    +0.000 NA
ATOM     18  N   UNL     1       0.749  10.443  18.064  0.00  0.00    +0.000 N 
ATOM     19  C   UNL     1       1.509   9.360  18.412  0.00  0.00    +0.000 A 
ATOM     20  C   UNL     1       2.544   8.694  17.745  0.00  0.00    +0.000 A 
ATOM     21  H   UNL     1       0.799  10.983  17.206  0.00  0.00    +0.000 HD
ENDBRANCH   4  12
BRANCH   1  25
ATOM     22  C   UNL     1       8.910  11.316  18.810  0.00  0.00    +0.000 A 
ATOM     23  C   UNL     1       8.069  11.185  17.697  0.00  0.00    +0.000 A 
ATOM     24  C   UNL     1       7.680   9.932  17.200  0.00  0.00    +0.000 A 
ATOM     25  C   UNL     1       8.088   8.756  17.826  0.00  0.00    +0.000 A 
ATOM     26  C   UNL     1       8.862   8.886  18.985  0.00  0.00    +0.000 A 
ATOM     27  C   UNL     1       9.280  10.136  19.454  0.00  0.00    +0.000 A 
BRANCH  22  30
ATOM     28  C   UNL     1      10.660  14.356  18.196  0.00  0.00    +0.000 C 
ATOM     29  C   UNL     1       9.264  13.758  18.451  0.00  0.00    +0.000 C 
ATOM     30  N   UNL     1       9.354  12.538  19.262  0.00  0.00    +0.000 N 
ATOM     31  C   UNL     1      10.134  12.669  20.497  0.00  0.00    +0.000 C 
ATOM     32  C   UNL     1      11.497  13.317  20.191  0.00  0.00    +0.000 C 
ATOM     33  O   UNL     1      11.386  14.533  19.434  0.00  0.00    +0.000 OA
BRANCH  28  34
ATOM     34  C   UNL     1      11.484  13.577  17.162  0.00  0.00    +0.000 C 
BRANCH  34  35
ATOM     35  O   UNL     1      11.068  13.878  15.833  0.00  0.00    +0.000 OA
ATOM     36  H   UNL     1      11.548  14.682  15.565  0.00  0.00    +0.000 HD
ENDBRANCH  34  35
ENDBRANCH  28  34
ENDBRANCH  22  30
ENDBRANCH   1  25
TORSDOF 5
ENDMDL
MODEL 4
REMARK VINA RESULT:      -8.1      6.337     10.019
REMARK  Name = 
REMARK  5 active torsions:
REMARK  status: ('A' for Active; 'I' for Inactive)
REMARK    1  A    between atoms: O_1  and  C_2
REMARK    2  A    between atoms: C_2  and  C_3
REMARK    3  A    between atoms: N_5  and  C_6
REMARK    4  A    between atoms: C_9  and  N_10
REMARK    5  A    between atoms: C_13  and  C_14
REMARK                            x       y       z     vdW  Elec       q    Type
REMARK                         _______ _______ _______ _____ _____    ______ ____
ROOT
ATOM      1  N   UNL     1       7.790   7.449  17.253  0.00  0.00    +0.000 N 
ATOM      2  C   UNL     1       6.534   6.879  17.154  0.00  0.00    +0.000 A 
ATOM      3  N   UNL     1       5.481   7.449  17.688  0.00  0.00    +0.000 NA
ATOM      4  C   UNL     1       4.225   6.880  17.613  0.00  0.00    +0.000 A 
ATOM      5  C   UNL     1       4.016   5.694  17.008  0.00  0.00    +0.000 A 
ATOM      6  N   UNL     1       5.090   5.057  16.431  0.00  0.00    +0.000 N 
ATOM      7  C   UNL     1       5.194   3.875  15.751  0.00  0.00    +0.000 A 
ATOM      8  C   UNL     1       6.526   3.779  15.405  0.00  0.00    +0.000 A 
ATOM      9  N   UNL     1       7.246   4.855  15.873  0.00  0.00    +0.000 NA
ATOM     10  C   UNL     1       6.344   5.603  16.478  0.00  0.00    +0.000 A 
ATOM     11  H   UNL     1       8.565   6.835  17.031  0.00  0.00    +0.000 HD
ENDROOT
BRANCH   4  12
ATOM     12  C   UNL     1       3.128   7.628  18.279  0.00  0.00    +0.000 A 
ATOM     13  C   UNL     1       2.484   8.713  17.663  0.00  0.00    +0.000 A 
ATOM     14  C   UNL     1       1.449   9.417  18.301  0.00  0.00    +0.000 A 
ATOM     15  C   UNL     1       1.064   9.030  19.594  0.00  0.00    +0.000 A 
ATOM     16  C   UNL     1       0.106   9.448  20.544  0.00  0.00    +0.000 A 
ATOM     17  N   UNL     1       0.152   8.736  21.673  0.00  0.00    +0.000 NA
ATOM     18  N   UNL     1       1.147   7.858  21.445  0.00  0.00    +0.000 N 
ATOM     19  C   UNL     1       1.725   7.978  20.210  0.00  0.00    +0.000 A 
ATOM     20  C   UNL     1       2.756   7.262  19.590  0.00  0.00    +0.000 A 
ATOM     21  H   UNL     1       1.383   7.196  22.175  0.00  0.00    +0.000 HD
ENDBRANCH   4  12
BRANCH   1  25
ATOM     22  C   UNL     1       8.949  11.244  18.808  0.00  0.00    +0.000 A 
ATOM     23  C   UNL     1       8.125  11.116  17.683  0.00  0.00    +0.000 A 
ATOM     24  C   UNL     1       7.724   9.866  17.190  0.00  0.00    +0.000 A 
ATOM     25  C   UNL     1       8.102   8.688  17.833  0.00  0.00    +0.000 A 
ATOM     26  C   UNL     1       8.859   8.816  19.003  0.00  0.00    +0.000 A 
ATOM     27  C   UNL     1       9.289  10.063  19.469  0.00  0.00    +0.000 A 
BRANCH  22  30
ATOM     28  C   UNL     1      10.628  14.316  18.154  0.00  0.00    +0.000 C 
ATOM     29  C   UNL     1       9.255  13.696  18.477  0.00  0.00    +0.000 C 
ATOM     30  N   UNL     1       9.405  12.462  19.258  0.00  0.00    +0.000 N 
ATOM     31  C   UNL     1      10.255  12.579  20.448  0.00  0.00    +0.000 C 
ATOM     32  C   UNL     1      11.590  13.249  20.076  0.00  0.00    +0.000 C 
ATOM     33  O   UNL     1      11.422  14.478  19.351  0.00  0.00    +0.000 OA
BRANCH  28  34
ATOM     34  C   UNL     1      11.399  13.565  17.058  0.00  0.00    +0.000 C 
BRANCH  34  35
ATOM     35  O   UNL     1      11.095  14.080  15.765  0.00  0.00    +0.000 OA
ATOM     36  H   UNL     1      10.866  15.019  15.885  0.00  0.00    +0.000 HD
ENDBRANCH  34  35
ENDBRANCH  28  34
ENDBRANCH  22  30
ENDBRANCH   1  25
TORSDOF 5
ENDMDL
MODEL 5
REMARK VINA RESULT:      -8.0      4.012      9.143
REMARK  Name = 
REMARK  5 active torsions:
REMARK  status: ('A' for Active; 'I' for Inactive)
REMARK    1  A    between atoms: O_1  and  C_2
REMARK    2  A    between atoms: C_2  and  C_3
REMARK    3  A    between atoms: N_5  and  C_6
REMARK    4  A    between atoms: C_9  and  N_10
REMARK    5  A    between atoms: C_13  and  C_14
REMARK                            x       y       z     vdW  Elec       q    Type
REMARK                         _______ _______ _______ _____ _____    ______ ____
ROOT
ATOM      1  N   UNL     1       1.694   6.497  20.708  0.00  0.00    +0.000 N 
ATOM      2  C   UNL     1       2.438   5.462  20.171  0.00  0.00    +0.000 A 
ATOM      3  N   UNL     1       3.117   5.615  19.060  0.00  0.00    +0.000 NA
ATOM      4  C   UNL     1       3.847   4.584  18.502  0.00  0.00    +0.000 A 
ATOM      5  C   UNL     1       3.882   3.356  19.056  0.00  0.00    +0.000 A 
ATOM      6  N   UNL     1       3.186   3.147  20.224  0.00  0.00    +0.000 N 
ATOM      7  C   UNL     1       3.039   2.040  21.014  0.00  0.00    +0.000 A 
ATOM      8  C   UNL     1       2.236   2.452  22.057  0.00  0.00    +0.000 A 
ATOM      9  N   UNL     1       1.866   3.770  21.918  0.00  0.00    +0.000 NA
ATOM     10  C   UNL     1       2.465   4.153  20.807  0.00  0.00    +0.000 A 
ATOM     11  H   UNL     1       1.022   6.227  21.416  0.00  0.00    +0.000 HD
ENDROOT
BRANCH   4  12
ATOM     12  C   UNL     1       4.552   4.894  17.231  0.00  0.00    +0.000 A 
ATOM     13  C   UNL     1       4.720   6.212  16.774  0.00  0.00    +0.000 A 
ATOM     14  C   UNL     1       5.385   6.496  15.570  0.00  0.00    +0.000 A 
ATOM     15  C   UNL     1       5.879   5.431  14.801  0.00  0.00    +0.000 A 
ATOM     16  C   UNL     1       6.583   5.288  13.585  0.00  0.00    +0.000 A 
ATOM     17  N   UNL     1       6.811   4.010  13.267  0.00  0.00    +0.000 NA
ATOM     18  N   UNL     1       6.247   3.333  14.284  0.00  0.00    +0.000 N 
ATOM     19  C   UNL     1       5.682   4.131  15.242  0.00  0.00    +0.000 A 
ATOM     20  C   UNL     1       5.024   3.827  16.440  0.00  0.00    +0.000 A 
ATOM     21  H   UNL     1       6.285   2.320  14.269  0.00  0.00    +0.000 HD
ENDBRANCH   4  12
BRANCH   1  25
ATOM     22  C   UNL     1       1.176  10.455  19.215  0.00  0.00    +0.000 A 
ATOM     23  C   UNL     1       0.933  10.122  20.554  0.00  0.00    +0.000 A 
ATOM     24  C   UNL     1       1.130   8.825  21.048  0.00  0.00    +0.000 A 
ATOM     25  C   UNL     1       1.620   7.812  20.224  0.00  0.00    +0.000 A 
ATOM     26  C   UNL     1       1.940   8.161  18.907  0.00  0.00    +0.000 A 
ATOM     27  C   UNL     1       1.705   9.448  18.409  0.00  0.00    +0.000 A 
BRANCH  22  30
ATOM     28  C   UNL     1       1.546  13.990  19.445  0.00  0.00    +0.000 C 
ATOM     29  C   UNL     1       1.947  12.751  18.623  0.00  0.00    +0.000 C 
ATOM     30  N   UNL     1       0.919  11.708  18.706  0.00  0.00    +0.000 N 
ATOM     31  C   UNL     1      -0.446  12.155  18.404  0.00  0.00    +0.000 C 
ATOM     32  C   UNL     1      -0.774  13.422  19.216  0.00  0.00    +0.000 C 
ATOM     33  O   UNL     1       0.223  14.448  19.087  0.00  0.00    +0.000 OA
BRANCH  28  34
ATOM     34  C   UNL     1       1.687  13.793  20.961  0.00  0.00    +0.000 C 
BRANCH  34  35
ATOM     35  O   UNL     1       3.017  13.423  21.315  0.00  0.00    +0.000 OA
ATOM     36  H   UNL     1       3.613  14.008  20.814  0.00  0.00    +0.000 HD
ENDBRANCH  34  35
ENDBRANCH  28  34
ENDBRANCH  22  30
ENDBRANCH   1  25
TORSDOF 5
ENDMDL
MODEL 6
REMARK VINA RESULT:      -8.0      3.640      5.458
REMARK  Name = 
REMARK  5 active torsions:
REMARK  status: ('A' for Active; 'I' for Inactive)
REMARK    1  A    between atoms: O_1  and  C_2
REMARK    2  A    between atoms: C_2  and  C_3
REMARK    3  A    between atoms: N_5  and  C_6
REMARK    4  A    between atoms: C_9  and  N_10
REMARK    5  A    between atoms: C_13  and  C_14
REMARK                            x       y       z     vdW  Elec       q    Type
REMARK                         _______ _______ _______ _____ _____    ______ ____
ROOT
ATOM      1  N   UNL     1       0.290   9.552  21.238  0.00  0.00    +0.000 N 
ATOM      2  C   UNL     1       0.341  10.928  21.370  0.00  0.00    +0.000 A 
ATOM      3  N   UNL     1       1.272  11.636  20.777  0.00  0.00    +0.000 NA
ATOM      4  C   UNL     1       1.347  13.008  20.917  0.00  0.00    +0.000 A 
ATOM      5  C   UNL     1       0.482  13.692  21.692  0.00  0.00    +0.000 A 
ATOM      6  N   UNL     1      -0.514  12.993  22.334  0.00  0.00    +0.000 N 
ATOM      7  C   UNL     1      -1.526  13.395  23.162  0.00  0.00    +0.000 A 
ATOM      8  C   UNL     1      -2.209  12.239  23.477  0.00  0.00    +0.000 A 
ATOM      9  N   UNL     1      -1.632  11.137  22.888  0.00  0.00    +0.000 NA
ATOM     10  C   UNL     1      -0.621  11.634  22.203  0.00  0.00    +0.000 A 
ATOM     11  H   UNL     1      -0.297   9.072  21.910  0.00  0.00    +0.000 HD
ENDROOT
BRANCH   4  12
ATOM     12  C   UNL     1       2.464  13.679  20.203  0.00  0.00    +0.000 A 
ATOM     13  C   UNL     1       2.555  13.686  18.802  0.00  0.00    +0.000 A 
ATOM     14  C   UNL     1       3.616  14.320  18.135  0.00  0.00    +0.000 A 
ATOM     15  C   UNL     1       4.616  14.947  18.894  0.00  0.00    +0.000 A 
ATOM     16  C   UNL     1       5.798  15.672  18.629  0.00  0.00    +0.000 A 
ATOM     17  N   UNL     1       6.428  16.059  19.743  0.00  0.00    +0.000 NA
ATOM     18  N   UNL     1       5.646  15.576  20.725  0.00  0.00    +0.000 N 
ATOM     19  C   UNL     1       4.537  14.909  20.279  0.00  0.00    +0.000 A 
ATOM     20  C   UNL     1       3.486  14.285  20.962  0.00  0.00    +0.000 A 
ATOM     21  H   UNL     1       5.922  15.739  21.687  0.00  0.00    +0.000 HD
ENDBRANCH   4  12
BRANCH   1  25
ATOM     22  C   UNL     1       2.574   7.050  18.652  0.00  0.00    +0.000 A 
ATOM     23  C   UNL     1       2.127   8.319  18.263  0.00  0.00    +0.000 A 
ATOM     24  C   UNL     1       1.398   9.150  19.126  0.00  0.00    +0.000 A 
ATOM     25  C   UNL     1       1.122   8.758  20.434  0.00  0.00    +0.000 A 
ATOM     26  C   UNL     1       1.637   7.525  20.851  0.00  0.00    +0.000 A 
ATOM     27  C   UNL     1       2.330   6.682  19.975  0.00  0.00    +0.000 A 
BRANCH  22  30
ATOM     28  C   UNL     1       3.975   3.844  17.991  0.00  0.00    +0.000 C 
ATOM     29  C   UNL     1       2.829   4.799  17.611  0.00  0.00    +0.000 C 
ATOM     30  N   UNL     1       3.229   6.200  17.790  0.00  0.00    +0.000 N 
ATOM     31  C   UNL     1       4.496   6.571  17.150  0.00  0.00    +0.000 C 
ATOM     32  C   UNL     1       5.590   5.556  17.525  0.00  0.00    +0.000 C 
ATOM     33  O   UNL     1       5.196   4.192  17.301  0.00  0.00    +0.000 OA
BRANCH  28  34
ATOM     34  C   UNL     1       4.195   3.719  19.505  0.00  0.00    +0.000 C 
BRANCH  34  35
ATOM     35  O   UNL     1       5.197   2.752  19.806  0.00  0.00    +0.000 OA
ATOM     36  H   UNL     1       5.169   2.610  20.768  0.00  0.00    +0.000 HD
ENDBRANCH  34  35
ENDBRANCH  28  34
ENDBRANCH  22  30
ENDBRANCH   1  25
TORSDOF 5
ENDMDL
MODEL 7
REMARK VINA RESULT:      -8.0      3.600      4.677
REMARK  Name = 
REMARK  5 active torsions:
REMARK  status: ('A' for Active; 'I' for Inactive)
REMARK    1  A    between atoms: O_1  and  C_2
REMARK    2  A    between atoms: C_2  and  C_3
REMARK    3  A    between atoms: N_5  and  C_6
REMARK    4  A    between atoms: C_9  and  N_10
REMARK    5  A    between atoms: C_13  and  C_14
REMARK                            x       y       z     vdW  Elec       q    Type
REMARK                         _______ _______ _______ _____ _____    ______ ____
ROOT
ATOM      1  N   UNL     1       0.227   9.481  21.367  0.00  0.00    +0.000 N 
ATOM      2  C   UNL     1       0.047  10.852  21.360  0.00  0.00    +0.000 A 
ATOM      3  N   UNL     1       0.750  11.629  20.572  0.00  0.00    +0.000 NA
ATOM      4  C   UNL     1       0.594  13.001  20.570  0.00  0.00    +0.000 A 
ATOM      5  C   UNL     1      -0.272  13.620  21.396  0.00  0.00    +0.000 A 
ATOM      6  N   UNL     1      -1.034  12.847  22.242  0.00  0.00    +0.000 N 
ATOM      7  C   UNL     1      -1.986  13.172  23.169  0.00  0.00    +0.000 A 
ATOM      8  C   UNL     1      -2.403  11.965  23.689  0.00  0.00    +0.000 A 
ATOM      9  N   UNL     1      -1.719  10.911  23.127  0.00  0.00    +0.000 NA
ATOM     10  C   UNL     1      -0.911  11.484  22.256  0.00  0.00    +0.000 A 
ATOM     11  H   UNL     1      -0.172   8.994  22.161  0.00  0.00    +0.000 HD
ENDROOT
BRANCH   4  12
ATOM     12  C   UNL     1       1.470  13.758  19.639  0.00  0.00    +0.000 A 
ATOM     13  C   UNL     1       2.656  13.211  19.120  0.00  0.00    +0.000 A 
ATOM     14  C   UNL     1       3.480  13.934  18.243  0.00  0.00    +0.000 A 
ATOM     15  C   UNL     1       3.112  15.242  17.890  0.00  0.00    +0.000 A 
ATOM     16  C   UNL     1       3.632  16.265  17.067  0.00  0.00    +0.000 A 
ATOM     17  N   UNL     1       2.885  17.372  17.083  0.00  0.00    +0.000 NA
ATOM     18  N   UNL     1       1.882  17.056  17.923  0.00  0.00    +0.000 N 
ATOM     19  C   UNL     1       1.956  15.788  18.430  0.00  0.00    +0.000 A 
ATOM     20  C   UNL     1       1.120  15.082  19.304  0.00  0.00    +0.000 A 
ATOM     21  H   UNL     1       1.169  17.754  18.107  0.00  0.00    +0.000 HD
ENDBRANCH   4  12
BRANCH   1  25
ATOM     22  C   UNL     1       2.568   7.163  18.663  0.00  0.00    +0.000 A 
ATOM     23  C   UNL     1       2.110   8.448  18.345  0.00  0.00    +0.000 A 
ATOM     24  C   UNL     1       1.362   9.218  19.247  0.00  0.00    +0.000 A 
ATOM     25  C   UNL     1       1.077   8.745  20.527  0.00  0.00    +0.000 A 
ATOM     26  C   UNL     1       1.602   7.495  20.876  0.00  0.00    +0.000 A 
ATOM     27  C   UNL     1       2.314   6.714  19.959  0.00  0.00    +0.000 A 
BRANCH  22  30
ATOM     28  C   UNL     1       4.147   4.068  17.884  0.00  0.00    +0.000 C 
ATOM     29  C   UNL     1       2.927   4.953  17.567  0.00  0.00    +0.000 C 
ATOM     30  N   UNL     1       3.242   6.373  17.760  0.00  0.00    +0.000 N 
ATOM     31  C   UNL     1       4.456   6.838  17.080  0.00  0.00    +0.000 C 
ATOM     32  C   UNL     1       5.628   5.890  17.392  0.00  0.00    +0.000 C 
ATOM     33  O   UNL     1       5.315   4.508  17.154  0.00  0.00    +0.000 OA
BRANCH  28  34
ATOM     34  C   UNL     1       4.434   3.931  19.386  0.00  0.00    +0.000 C 
BRANCH  34  35
ATOM     35  O   UNL     1       5.323   2.849  19.647  0.00  0.00    +0.000 OA
ATOM     36  H   UNL     1       4.858   2.035  19.384  0.00  0.00    +0.000 HD
ENDBRANCH  34  35
ENDBRANCH  28  34
ENDBRANCH  22  30
ENDBRANCH   1  25
TORSDOF 5
ENDMDL
MODEL 8
REMARK VINA RESULT:      -7.9      3.527      5.346
REMARK  Name = 
REMARK  5 active torsions:
REMARK  status: ('A' for Active; 'I' for Inactive)
REMARK    1  A    between atoms: O_1  and  C_2
REMARK    2  A    between atoms: C_2  and  C_3
REMARK    3  A    between atoms: N_5  and  C_6
REMARK    4  A    between atoms: C_9  and  N_10
REMARK    5  A    between atoms: C_13  and  C_14
REMARK                            x       y       z     vdW  Elec       q    Type
REMARK                         _______ _______ _______ _____ _____    ______ ____
ROOT
ATOM      1  N   UNL     1       0.116   9.794  21.094  0.00  0.00    +0.000 N 
ATOM      2  C   UNL     1       0.230  11.146  21.361  0.00  0.00    +0.000 A 
ATOM      3  N   UNL     1       1.265  11.838  20.948  0.00  0.00    +0.000 NA
ATOM      4  C   UNL     1       1.401  13.184  21.225  0.00  0.00    +0.000 A 
ATOM      5  C   UNL     1       0.490  13.856  21.956  0.00  0.00    +0.000 A 
ATOM      6  N   UNL     1      -0.615  13.173  22.410  0.00  0.00    +0.000 N 
ATOM      7  C   UNL     1      -1.694  13.571  23.151  0.00  0.00    +0.000 A 
ATOM      8  C   UNL     1      -2.476  12.441  23.275  0.00  0.00    +0.000 A 
ATOM      9  N   UNL     1      -1.897  11.357  22.655  0.00  0.00    +0.000 NA
ATOM     10  C   UNL     1      -0.783  11.842  22.140  0.00  0.00    +0.000 A 
ATOM     11  H   UNL     1      -0.575   9.299  21.646  0.00  0.00    +0.000 HD
ENDROOT
BRANCH   4  12
ATOM     12  C   UNL     1       2.633  13.836  20.711  0.00  0.00    +0.000 A 
ATOM     13  C   UNL     1       3.509  14.543  21.550  0.00  0.00    +0.000 A 
ATOM     14  C   UNL     1       4.670  15.160  21.056  0.00  0.00    +0.000 A 
ATOM     15  C   UNL     1       4.948  15.076  19.682  0.00  0.00    +0.000 A 
ATOM     16  C   UNL     1       5.967  15.528  18.816  0.00  0.00    +0.000 A 
ATOM     17  N   UNL     1       5.753  15.186  17.542  0.00  0.00    +0.000 NA
ATOM     18  N   UNL     1       4.589  14.513  17.594  0.00  0.00    +0.000 N 
ATOM     19  C   UNL     1       4.063  14.404  18.853  0.00  0.00    +0.000 A 
ATOM     20  C   UNL     1       2.902  13.780  19.328  0.00  0.00    +0.000 A 
ATOM     21  H   UNL     1       4.205  14.146  16.730  0.00  0.00    +0.000 HD
ENDBRANCH   4  12
BRANCH   1  25
ATOM     22  C   UNL     1       2.538   7.332  18.598  0.00  0.00    +0.000 A 
ATOM     23  C   UNL     1       2.038   8.568  18.171  0.00  0.00    +0.000 A 
ATOM     24  C   UNL     1       1.263   9.387  19.004  0.00  0.00    +0.000 A 
ATOM     25  C   UNL     1       0.991   9.017  20.320  0.00  0.00    +0.000 A 
ATOM     26  C   UNL     1       1.558   7.821  20.775  0.00  0.00    +0.000 A 
ATOM     27  C   UNL     1       2.297   6.988  19.928  0.00  0.00    +0.000 A 
BRANCH  22  30
ATOM     28  C   UNL     1       3.984   4.135  17.989  0.00  0.00    +0.000 C 
ATOM     29  C   UNL     1       2.855   5.089  17.557  0.00  0.00    +0.000 C 
ATOM     30  N   UNL     1       3.240   6.489  17.766  0.00  0.00    +0.000 N 
ATOM     31  C   UNL     1       4.537   6.870  17.194  0.00  0.00    +0.000 C 
ATOM     32  C   UNL     1       5.615   5.856  17.619  0.00  0.00    +0.000 C 
ATOM     33  O   UNL     1       5.238   4.492  17.365  0.00  0.00    +0.000 OA
BRANCH  28  34
ATOM     34  C   UNL     1       4.126   4.001  19.512  0.00  0.00    +0.000 C 
BRANCH  34  35
ATOM     35  O   UNL     1       5.067   2.988  19.858  0.00  0.00    +0.000 OA
ATOM     36  H   UNL     1       4.553   2.228  20.183  0.00  0.00    +0.000 HD
ENDBRANCH  34  35
ENDBRANCH  28  34
ENDBRANCH  22  30
ENDBRANCH   1  25
TORSDOF 5
ENDMDL
MODEL 9
REMARK VINA RESULT:      -7.8      5.476      7.790
REMARK  Name = 
REMARK  5 active torsions:
REMARK  status: ('A' for Active; 'I' for Inactive)
REMARK    1  A    between atoms: O_1  and  C_2
REMARK    2  A    between atoms: C_2  and  C_3
REMARK    3  A    between atoms: N_5  and  C_6
REMARK    4  A    between atoms: C_9  and  N_10
REMARK    5  A    between atoms: C_13  and  C_14
REMARK                            x       y       z     vdW  Elec       q    Type
REMARK                         _______ _______ _______ _____ _____    ______ ____
ROOT
ATOM      1  N   UNL     1       1.428  14.354  19.765  0.00  0.00    +0.000 N 
ATOM      2  C   UNL     1       0.677  13.193  19.740  0.00  0.00    +0.000 A 
ATOM      3  N   UNL     1       1.227  12.028  19.495  0.00  0.00    +0.000 NA
ATOM      4  C   UNL     1       0.485  10.865  19.447  0.00  0.00    +0.000 A 
ATOM      5  C   UNL     1      -0.851  10.865  19.626  0.00  0.00    +0.000 A 
ATOM      6  N   UNL     1      -1.474  12.063  19.887  0.00  0.00    +0.000 N 
ATOM      7  C   UNL     1      -2.785  12.380  20.118  0.00  0.00    +0.000 A 
ATOM      8  C   UNL     1      -2.789  13.742  20.331  0.00  0.00    +0.000 A 
ATOM      9  N   UNL     1      -1.525  14.275  20.213  0.00  0.00    +0.000 NA
ATOM     10  C   UNL     1      -0.763  13.230  19.953  0.00  0.00    +0.000 A 
ATOM     11  H   UNL     1       0.898  15.216  19.719  0.00  0.00    +0.000 HD
ENDROOT
BRANCH   4  12
ATOM     12  C   UNL     1       1.238   9.621  19.142  0.00  0.00    +0.000 A 
ATOM     13  C   UNL     1       1.762   9.361  17.865  0.00  0.00    +0.000 A 
ATOM     14  C   UNL     1       2.470   8.181  17.583  0.00  0.00    +0.000 A 
ATOM     15  C   UNL     1       2.642   7.234  18.605  0.00  0.00    +0.000 A 
ATOM     16  C   UNL     1       3.268   5.975  18.738  0.00  0.00    +0.000 A 
ATOM     17  N   UNL     1       3.129   5.455  19.961  0.00  0.00    +0.000 NA
ATOM     18  N   UNL     1       2.407   6.386  20.612  0.00  0.00    +0.000 N 
ATOM     19  C   UNL     1       2.094   7.481  19.855  0.00  0.00    +0.000 A 
ATOM     20  C   UNL     1       1.388   8.653  20.156  0.00  0.00    +0.000 A 
ATOM     21  H   UNL     1       2.162   6.215  21.581  0.00  0.00    +0.000 HD
ENDBRANCH   4  12
BRANCH   1  25
ATOM     22  C   UNL     1       5.635  14.936  19.408  0.00  0.00    +0.000 A 
ATOM     23  C   UNL     1       5.009  14.740  20.645  0.00  0.00    +0.000 A 
ATOM     24  C   UNL     1       3.628  14.522  20.756  0.00  0.00    +0.000 A 
ATOM     25  C   UNL     1       2.821  14.451  19.622  0.00  0.00    +0.000 A 
ATOM     26  C   UNL     1       3.456  14.566  18.380  0.00  0.00    +0.000 A 
ATOM     27  C   UNL     1       4.827  14.822  18.276  0.00  0.00    +0.000 A 
BRANCH  22  30
ATOM     28  C   UNL     1       8.805  14.213  17.956  0.00  0.00    +0.000 C 
ATOM     29  C   UNL     1       7.668  15.251  18.001  0.00  0.00    +0.000 C 
ATOM     30  N   UNL     1       6.977  15.220  19.294  0.00  0.00    +0.000 N 
ATOM     31  C   UNL     1       7.852  15.304  20.469  0.00  0.00    +0.000 C 
ATOM     32  C   UNL     1       8.995  14.280  20.347  0.00  0.00    +0.000 C 
ATOM     33  O   UNL     1       9.689  14.356  19.091  0.00  0.00    +0.000 OA
BRANCH  28  34
ATOM     34  C   UNL     1       8.311  12.767  17.800  0.00  0.00    +0.000 C 
BRANCH  34  35
ATOM     35  O   UNL     1       7.389  12.648  16.720  0.00  0.00    +0.000 OA
ATOM     36  H   UNL     1       7.902  12.356  15.946  0.00  0.00    +0.000 HD
ENDBRANCH  34  35
ENDBRANCH  28  34
ENDBRANCH  22  30
ENDBRANCH   1  25
TORSDOF 5
ENDMDL
