MODEL 1
REMARK VINA RESULT:      -5.8      0.000      0.000
REMARK  Name = 
REMARK  7 active torsions:
REMARK  status: ('A' for Active; 'I' for Inactive)
REMARK    1  A    between atoms: C_1  and  C_2
REMARK    2  A    between atoms: C_2  and  C_3
REMARK    3  A    between atoms: C_3  and  O_4
REMARK    4  A    between atoms: C_3  and  C_5
REMARK    5  A    between atoms: C_10  and  O_11
REMARK    6  A    between atoms: O_11  and  C_12
REMARK    7  A    between atoms: C_13  and  C_14
REMARK                            x       y       z     vdW  Elec       q    Type
REMARK                         _______ _______ _______ _____ _____    ______ ____
ROOT
ATOM      1  C   UNL     1       4.700   3.618  19.032  0.00  0.00    +0.000 A 
ATOM      2  O   UNL     1       5.794   4.109  19.791  0.00  0.00    +0.000 OA
ATOM      3  C   UNL     1       6.552   5.148  19.353  0.00  0.00    +0.000 A 
ATOM      4  O   UNL     1       7.495   5.588  19.998  0.00  0.00    +0.000 OA
ATOM      5  C   UNL     1       6.204   5.734  18.056  0.00  0.00    +0.000 A 
ATOM      6  C   UNL     1       5.169   5.275  17.338  0.00  0.00    +0.000 A 
ATOM      7  C   UNL     1       4.364   4.168  17.844  0.00  0.00    +0.000 A 
ATOM      8  C   UNL     1       3.206   3.650  17.030  0.00  0.00    +0.000 C 
ENDROOT
BRANCH   6   9
ATOM      9  O   UNL     1       4.782   5.757  16.105  0.00  0.00    +0.000 OA
ATOM     10  C   UNL     1       5.628   5.484  14.991  0.00  0.00    +0.000 C 
ENDBRANCH   6   9
BRANCH   1  11
ATOM     11  C   UNL     1       4.045   2.417  19.678  0.00  0.00    +0.000 C 
BRANCH  11  13
ATOM     12  C   UNL     1       1.601   2.666  20.385  0.00  0.00    +0.000 C 
ATOM     13  C   UNL     1       3.059   2.760  20.802  0.00  0.00    +0.000 C 
ENDBRANCH  11  13
BRANCH  11  14
ATOM     14  O   UNL     1       5.082   1.604  20.238  0.00  0.00    +0.000 OA
ATOM     15  H   UNL     1       4.647   0.815  20.610  0.00  0.00    +0.000 HD
ENDBRANCH  11  14
ENDBRANCH   1  11
TORSDOF 4
ENDMDL
MODEL 2
REMARK VINA RESULT:      -5.8      1.971      2.786
REMARK  Name = 
REMARK  7 active torsions:
REMARK  status: ('A' for Active; 'I' for Inactive)
REMARK    1  A    between atoms: C_1  and  C_2
REMARK    2  A    between atoms: C_2  and  C_3
REMARK    3  A    between atoms: C_3  and  O_4
REMARK    4  A    between atoms: C_3  and  C_5
REMARK    5  A    between atoms: C_10  and  O_11
REMARK    6  A    between atoms: O_11  and  C_12
REMARK    7  A    between atoms: C_13  and  C_14
REMARK                            x       y       z     vdW  Elec       q    Type
REMARK                         _______ _______ _______ _____ _____    ______ ____
ROOT
ATOM      1  C   UNL     1       5.628   5.156  18.195  0.00  0.00    +0.000 A 
ATOM      2  O   UNL     1       6.372   4.769  19.339  0.00  0.00    +0.000 OA
ATOM      3  C   UNL     1       7.500   5.429  19.709  0.00  0.00    +0.000 A 
ATOM      4  O   UNL     1       8.151   5.112  20.696  0.00  0.00    +0.000 OA
ATOM      5  C   UNL     1       7.927   6.552  18.869  0.00  0.00    +0.000 A 
ATOM      6  C   UNL     1       7.225   6.922  17.789  0.00  0.00    +0.000 A 
ATOM      7  C   UNL     1       6.007   6.202  17.429  0.00  0.00    +0.000 A 
ATOM      8  C   UNL     1       5.224   6.617  16.210  0.00  0.00    +0.000 C 
ENDROOT
BRANCH   6   9
ATOM      9  O   UNL     1       7.561   7.954  16.939  0.00  0.00    +0.000 OA
ATOM     10  C   UNL     1       7.975   9.187  17.522  0.00  0.00    +0.000 C 
ENDBRANCH   6   9
BRANCH   1  11
ATOM     11  C   UNL     1       4.452   4.239  17.936  0.00  0.00    +0.000 C 
BRANCH  11  13
ATOM     12  C   UNL     1       1.934   4.652  17.791  0.00  0.00    +0.000 C 
ATOM     13  C   UNL     1       3.168   4.628  18.678  0.00  0.00    +0.000 C 
ENDBRANCH  11  13
BRANCH  11  14
ATOM     14  O   UNL     1       4.823   2.924  18.365  0.00  0.00    +0.000 OA
ATOM     15  H   UNL     1       4.579   2.316  17.644  0.00  0.00    +0.000 HD
ENDBRANCH  11  14
ENDBRANCH   1  11
TORSDOF 4
ENDMDL
MODEL 3
REMARK VINA RESULT:      -5.6      1.989      4.223
REMARK  Name = 
REMARK  7 active torsions:
REMARK  status: ('A' for Active; 'I' for Inactive)
REMARK    1  A    between atoms: C_1  and  C_2
REMARK    2  A    between atoms: C_2  and  C_3
REMARK    3  A    between atoms: C_3  and  O_4
REMARK    4  A    between atoms: C_3  and  C_5
REMARK    5  A    between atoms: C_10  and  O_11
REMARK    6  A    between atoms: O_11  and  C_12
REMARK    7  A    between atoms: C_13  and  C_14
REMARK                            x       y       z     vdW  Elec       q    Type
REMARK                         _______ _______ _______ _____ _____    ______ ____
ROOT
ATOM      1  C   UNL     1       5.829   4.879  17.780  0.00  0.00    +0.000 A 
ATOM      2  O   UNL     1       5.832   3.725  18.606  0.00  0.00    +0.000 OA
ATOM      3  C   UNL     1       4.771   3.414  19.395  0.00  0.00    +0.000 A 
ATOM      4  O   UNL     1       4.754   2.419  20.108  0.00  0.00    +0.000 OA
ATOM      5  C   UNL     1       3.625   4.326  19.369  0.00  0.00    +0.000 A 
ATOM      6  C   UNL     1       3.617   5.416  18.589  0.00  0.00    +0.000 A 
ATOM      7  C   UNL     1       4.767   5.714  17.741  0.00  0.00    +0.000 A 
ATOM      8  C   UNL     1       4.758   6.944  16.870  0.00  0.00    +0.000 C 
ENDROOT
BRANCH   6   9
ATOM      9  O   UNL     1       2.590   6.333  18.516  0.00  0.00    +0.000 OA
ATOM     10  C   UNL     1       2.293   7.092  19.685  0.00  0.00    +0.000 C 
ENDBRANCH   6   9
BRANCH   1  11
ATOM     11  C   UNL     1       7.139   5.064  17.045  0.00  0.00    +0.000 C 
BRANCH  11  13
ATOM     12  C   UNL     1       6.104   3.732  15.124  0.00  0.00    +0.000 C 
ATOM     13  C   UNL     1       7.051   4.849  15.529  0.00  0.00    +0.000 C 
ENDBRANCH  11  13
BRANCH  11  14
ATOM     14  O   UNL     1       8.071   4.111  17.569  0.00  0.00    +0.000 OA
ATOM     15  H   UNL     1       7.577   3.555  18.198  0.00  0.00    +0.000 HD
ENDBRANCH  11  14
ENDBRANCH   1  11
TORSDOF 4
ENDMDL
MODEL 4
REMARK VINA RESULT:      -5.6      1.948      2.833
REMARK  Name = 
REMARK  7 active torsions:
REMARK  status: ('A' for Active; 'I' for Inactive)
REMARK    1  A    between atoms: C_1  and  C_2
REMARK    2  A    between atoms: C_2  and  C_3
REMARK    3  A    between atoms: C_3  and  O_4
REMARK    4  A    between atoms: C_3  and  C_5
REMARK    5  A    between atoms: C_10  and  O_11
REMARK    6  A    between atoms: O_11  and  C_12
REMARK    7  A    between atoms: C_13  and  C_14
REMARK                            x       y       z     vdW  Elec       q    Type
REMARK                         _______ _______ _______ _____ _____    ______ ____
ROOT
ATOM      1  C   UNL     1       5.777   5.094  18.207  0.00  0.00    +0.000 A 
ATOM      2  O   UNL     1       6.518   4.728  19.361  0.00  0.00    +0.000 OA
ATOM      3  C   UNL     1       7.613   5.430  19.754  0.00  0.00    +0.000 A 
ATOM      4  O   UNL     1       8.260   5.133  20.750  0.00  0.00    +0.000 OA
ATOM      5  C   UNL     1       8.007   6.576  18.930  0.00  0.00    +0.000 A 
ATOM      6  C   UNL     1       7.308   6.926  17.841  0.00  0.00    +0.000 A 
ATOM      7  C   UNL     1       6.127   6.160  17.455  0.00  0.00    +0.000 A 
ATOM      8  C   UNL     1       5.348   6.553  16.226  0.00  0.00    +0.000 C 
ENDROOT
BRANCH   6   9
ATOM      9  O   UNL     1       7.617   7.977  17.003  0.00  0.00    +0.000 OA
ATOM     10  C   UNL     1       8.020   9.207  17.602  0.00  0.00    +0.000 C 
ENDBRANCH   6   9
BRANCH   1  11
ATOM     11  C   UNL     1       4.645   4.132  17.922  0.00  0.00    +0.000 C 
BRANCH  11  13
ATOM     12  C   UNL     1       3.701   1.940  18.838  0.00  0.00    +0.000 C 
ATOM     13  C   UNL     1       4.144   3.360  19.149  0.00  0.00    +0.000 C 
ENDBRANCH  11  13
BRANCH  11  14
ATOM     14  O   UNL     1       5.115   3.176  16.966  0.00  0.00    +0.000 OA
ATOM     15  H   UNL     1       5.439   3.684  16.201  0.00  0.00    +0.000 HD
ENDBRANCH  11  14
ENDBRANCH   1  11
TORSDOF 4
ENDMDL
MODEL 5
REMARK VINA RESULT:      -5.5      1.425      1.633
REMARK  Name = 
REMARK  7 active torsions:
REMARK  status: ('A' for Active; 'I' for Inactive)
REMARK    1  A    between atoms: C_1  and  C_2
REMARK    2  A    between atoms: C_2  and  C_3
REMARK    3  A    between atoms: C_3  and  O_4
REMARK    4  A    between atoms: C_3  and  C_5
REMARK    5  A    between atoms: C_10  and  O_11
REMARK    6  A    between atoms: O_11  and  C_12
REMARK    7  A    between atoms: C_13  and  C_14
REMARK                            x       y       z     vdW  Elec       q    Type
REMARK                         _______ _______ _______ _____ _____    ______ ____
ROOT
ATOM      1  C   UNL     1       4.053   3.897  19.053  0.00  0.00    +0.000 A 
ATOM      2  O   UNL     1       5.414   4.029  19.432  0.00  0.00    +0.000 OA
ATOM      3  C   UNL     1       6.147   5.118  19.079  0.00  0.00    +0.000 A 
ATOM      4  O   UNL     1       7.320   5.250  19.403  0.00  0.00    +0.000 OA
ATOM      5  C   UNL     1       5.478   6.147  18.280  0.00  0.00    +0.000 A 
ATOM      6  C   UNL     1       4.192   6.027  17.922  0.00  0.00    +0.000 A 
ATOM      7  C   UNL     1       3.428   4.853  18.331  0.00  0.00    +0.000 A 
ATOM      8  C   UNL     1       1.983   4.718  17.922  0.00  0.00    +0.000 C 
ENDROOT
BRANCH   6   9
ATOM      9  O   UNL     1       3.491   6.938  17.160  0.00  0.00    +0.000 OA
ATOM     10  C   UNL     1       2.936   8.072  17.824  0.00  0.00    +0.000 C 
ENDBRANCH   6   9
BRANCH   1  11
ATOM     11  C   UNL     1       3.459   2.578  19.494  0.00  0.00    +0.000 C 
BRANCH  11  13
ATOM     12  C   UNL     1       1.455   2.850  21.058  0.00  0.00    +0.000 C 
ATOM     13  C   UNL     1       2.943   2.565  20.939  0.00  0.00    +0.000 C 
ENDBRANCH  11  13
BRANCH  11  14
ATOM     14  O   UNL     1       4.482   1.581  19.387  0.00  0.00    +0.000 OA
ATOM     15  H   UNL     1       4.109   0.759  19.751  0.00  0.00    +0.000 HD
ENDBRANCH  11  14
ENDBRANCH   1  11
TORSDOF 4
ENDMDL
MODEL 6
REMARK VINA RESULT:      -5.5      2.867      4.138
REMARK  Name = 
REMARK  7 active torsions:
REMARK  status: ('A' for Active; 'I' for Inactive)
REMARK    1  A    between atoms: C_1  and  C_2
REMARK    2  A    between atoms: C_2  and  C_3
REMARK    3  A    between atoms: C_3  and  O_4
REMARK    4  A    between atoms: C_3  and  C_5
REMARK    5  A    between atoms: C_10  and  O_11
REMARK    6  A    between atoms: O_11  and  C_12
REMARK    7  A    between atoms: C_13  and  C_14
REMARK                            x       y       z     vdW  Elec       q    Type
REMARK                         _______ _______ _______ _____ _____    ______ ____
ROOT
ATOM      1  C   UNL     1       3.189   5.842  18.696  0.00  0.00    +0.000 A 
ATOM      2  O   UNL     1       4.481   6.098  19.224  0.00  0.00    +0.000 OA
ATOM      3  C   UNL     1       5.438   5.135  19.256  0.00  0.00    +0.000 A 
ATOM      4  O   UNL     1       6.559   5.340  19.703  0.00  0.00    +0.000 OA
ATOM      5  C   UNL     1       5.079   3.814  18.734  0.00  0.00    +0.000 A 
ATOM      6  C   UNL     1       3.861   3.569  18.231  0.00  0.00    +0.000 A 
ATOM      7  C   UNL     1       2.860   4.631  18.196  0.00  0.00    +0.000 A 
ATOM      8  C   UNL     1       1.489   4.350  17.637  0.00  0.00    +0.000 C 
ENDROOT
BRANCH   6   9
ATOM      9  O   UNL     1       3.436   2.355  17.734  0.00  0.00    +0.000 OA
ATOM     10  C   UNL     1       3.666   1.195  18.530  0.00  0.00    +0.000 C 
ENDBRANCH   6   9
BRANCH   1  11
ATOM     11  C   UNL     1       2.268   7.035  18.826  0.00  0.00    +0.000 C 
BRANCH  11  13
ATOM     12  C   UNL     1       1.571   9.306  17.880  0.00  0.00    +0.000 C 
ATOM     13  C   UNL     1       2.637   8.223  17.929  0.00  0.00    +0.000 C 
ENDBRANCH  11  13
BRANCH  11  14
ATOM     14  O   UNL     1       2.322   7.481  20.186  0.00  0.00    +0.000 OA
ATOM     15  H   UNL     1       1.865   8.341  20.216  0.00  0.00    +0.000 HD
ENDBRANCH  11  14
ENDBRANCH   1  11
TORSDOF 4
ENDMDL
MODEL 7
REMARK VINA RESULT:      -5.5      1.183      1.215
REMARK  Name = 
REMARK  7 active torsions:
REMARK  status: ('A' for Active; 'I' for Inactive)
REMARK    1  A    between atoms: C_1  and  C_2
REMARK    2  A    between atoms: C_2  and  C_3
REMARK    3  A    between atoms: C_3  and  O_4
REMARK    4  A    between atoms: C_3  and  C_5
REMARK    5  A    between atoms: C_10  and  O_11
REMARK    6  A    between atoms: O_11  and  C_12
REMARK    7  A    between atoms: C_13  and  C_14
REMARK                            x       y       z     vdW  Elec       q    Type
REMARK                         _______ _______ _______ _____ _____    ______ ____
ROOT
ATOM      1  C   UNL     1       5.238   4.106  18.518  0.00  0.00    +0.000 A 
ATOM      2  O   UNL     1       6.283   4.479  19.402  0.00  0.00    +0.000 OA
ATOM      3  C   UNL     1       7.315   5.261  18.992  0.00  0.00    +0.000 A 
ATOM      4  O   UNL     1       8.221   5.598  19.743  0.00  0.00    +0.000 OA
ATOM      5  C   UNL     1       7.313   5.696  17.593  0.00  0.00    +0.000 A 
ATOM      6  C   UNL     1       6.326   5.348  16.755  0.00  0.00    +0.000 A 
ATOM      7  C   UNL     1       5.223   4.519  17.231  0.00  0.00    +0.000 A 
ATOM      8  C   UNL     1       4.119   4.124  16.285  0.00  0.00    +0.000 C 
ENDROOT
BRANCH   6   9
ATOM      9  O   UNL     1       6.254   5.699  15.423  0.00  0.00    +0.000 OA
ATOM     10  C   UNL     1       7.053   4.965  14.499  0.00  0.00    +0.000 C 
ENDBRANCH   6   9
BRANCH   1  11
ATOM     11  C   UNL     1       4.237   3.178  19.170  0.00  0.00    +0.000 C 
BRANCH  11  13
ATOM     12  C   UNL     1       1.933   4.269  19.367  0.00  0.00    +0.000 C 
ATOM     13  C   UNL     1       3.219   3.879  20.078  0.00  0.00    +0.000 C 
ENDBRANCH  11  13
BRANCH  11  14
ATOM     14  O   UNL     1       4.967   2.243  19.972  0.00  0.00    +0.000 OA
ATOM     15  H   UNL     1       4.901   2.554  20.892  0.00  0.00    +0.000 HD
ENDBRANCH  11  14
ENDBRANCH   1  11
TORSDOF 4
ENDMDL
MODEL 8
REMARK VINA RESULT:      -5.5      1.699      4.382
REMARK  Name = 
REMARK  7 active torsions:
REMARK  status: ('A' for Active; 'I' for Inactive)
REMARK    1  A    between atoms: C_1  and  C_2
REMARK    2  A    between atoms: C_2  and  C_3
REMARK    3  A    between atoms: C_3  and  O_4
REMARK    4  A    between atoms: C_3  and  C_5
REMARK    5  A    between atoms: C_10  and  O_11
REMARK    6  A    between atoms: O_11  and  C_12
REMARK    7  A    between atoms: C_13  and  C_14
REMARK                            x       y       z     vdW  Elec       q    Type
REMARK                         _______ _______ _______ _____ _____    ______ ____
ROOT
ATOM      1  C   UNL     1       4.775   3.896  18.631  0.00  0.00    +0.000 A 
ATOM      2  O   UNL     1       5.386   2.978  19.524  0.00  0.00    +0.000 OA
ATOM      3  C   UNL     1       4.661   2.300  20.451  0.00  0.00    +0.000 A 
ATOM      4  O   UNL     1       5.172   1.499  21.225  0.00  0.00    +0.000 OA
ATOM      5  C   UNL     1       3.221   2.564  20.502  0.00  0.00    +0.000 A 
ATOM      6  C   UNL     1       2.639   3.428  19.659  0.00  0.00    +0.000 A 
ATOM      7  C   UNL     1       3.444   4.129  18.663  0.00  0.00    +0.000 A 
ATOM      8  C   UNL     1       2.788   5.106  17.722  0.00  0.00    +0.000 C 
ENDROOT
BRANCH   6   9
ATOM      9  O   UNL     1       1.298   3.746  19.649  0.00  0.00    +0.000 OA
ATOM     10  C   UNL     1       0.389   2.775  19.135  0.00  0.00    +0.000 C 
ENDBRANCH   6   9
BRANCH   1  11
ATOM     11  C   UNL     1       5.781   4.585  17.736  0.00  0.00    +0.000 C 
BRANCH  11  13
ATOM     12  C   UNL     1       5.626   5.268  15.278  0.00  0.00    +0.000 C 
ATOM     13  C   UNL     1       5.748   4.126  16.273  0.00  0.00    +0.000 C 
ENDBRANCH  11  13
BRANCH  11  14
ATOM     14  O   UNL     1       7.087   4.305  18.252  0.00  0.00    +0.000 OA
ATOM     15  H   UNL     1       7.098   4.626  19.172  0.00  0.00    +0.000 HD
ENDBRANCH  11  14
ENDBRANCH   1  11
TORSDOF 4
ENDMDL
MODEL 9
REMARK VINA RESULT:      -5.4      2.999      4.476
REMARK  Name = 
REMARK  7 active torsions:
REMARK  status: ('A' for Active; 'I' for Inactive)
REMARK    1  A    between atoms: C_1  and  C_2
REMARK    2  A    between atoms: C_2  and  C_3
REMARK    3  A    between atoms: C_3  and  O_4
REMARK    4  A    between atoms: C_3  and  C_5
REMARK    5  A    between atoms: C_10  and  O_11
REMARK    6  A    between atoms: O_11  and  C_12
REMARK    7  A    between atoms: C_13  and  C_14
REMARK                            x       y       z     vdW  Elec       q    Type
REMARK                         _______ _______ _______ _____ _____    ______ ____
ROOT
ATOM      1  C   UNL     1       3.883   4.934  18.941  0.00  0.00    +0.000 A 
ATOM      2  O   UNL     1       3.418   4.045  19.945  0.00  0.00    +0.000 OA
ATOM      3  C   UNL     1       2.430   4.401  20.806  0.00  0.00    +0.000 A 
ATOM      4  O   UNL     1       2.012   3.645  21.674  0.00  0.00    +0.000 OA
ATOM      5  C   UNL     1       1.871   5.748  20.666  0.00  0.00    +0.000 A 
ATOM      6  C   UNL     1       2.305   6.590  19.718  0.00  0.00    +0.000 A 
ATOM      7  C   UNL     1       3.357   6.170  18.797  0.00  0.00    +0.000 A 
ATOM      8  C   UNL     1       3.848   7.121  17.736  0.00  0.00    +0.000 C 
ENDROOT
BRANCH   6   9
ATOM      9  O   UNL     1       1.846   7.876  19.526  0.00  0.00    +0.000 OA
ATOM     10  C   UNL     1       1.295   8.558  20.650  0.00  0.00    +0.000 C 
ENDBRANCH   6   9
BRANCH   1  11
ATOM     11  C   UNL     1       5.031   4.352  18.146  0.00  0.00    +0.000 C 
BRANCH  11  13
ATOM     12  C   UNL     1       5.419   4.202  15.623  0.00  0.00    +0.000 C 
ATOM     13  C   UNL     1       4.620   3.705  16.817  0.00  0.00    +0.000 C 
ENDBRANCH  11  13
BRANCH  11  14
ATOM     14  O   UNL     1       5.651   3.343  18.950  0.00  0.00    +0.000 OA
ATOM     15  H   UNL     1       6.385   2.978  18.422  0.00  0.00    +0.000 HD
ENDBRANCH  11  14
ENDBRANCH   1  11
TORSDOF 4
ENDMDL
