MODEL 1
REMARK VINA RESULT:      -6.5      0.000      0.000
REMARK  Name = 
REMARK  7 active torsions:
REMARK  status: ('A' for Active; 'I' for Inactive)
REMARK    1  A    between atoms: C_2  and  O_3
REMARK    2  A    between atoms: C_2  and  C_12
REMARK    3  A    between atoms: O_3  and  C_4
REMARK    4  A    between atoms: C_12  and  O_13
REMARK    5  A    between atoms: C_12  and  C_14
REMARK    6  A    between atoms: C_12  and  C_21
REMARK    7  A    between atoms: C_14  and  N_15
REMARK                            x       y       z     vdW  Elec       q    Type
REMARK                         _______ _______ _______ _____ _____    ______ ____
ROOT
ATOM      1  C   UNL     1       2.323   6.369  19.672  0.00  0.00    +0.000 C 
ENDROOT
BRANCH   1   2
ATOM      2  C   UNL     1       1.787   4.931  19.637  0.00  0.00    +0.000 A 
ATOM      3  C   UNL     1       1.533   4.210  20.831  0.00  0.00    +0.000 A 
ATOM      4  C   UNL     1       1.061   2.894  20.786  0.00  0.00    +0.000 A 
ATOM      5  C   UNL     1       0.837   2.272  19.561  0.00  0.00    +0.000 A 
ATOM      6  C   UNL     1       1.075   2.961  18.373  0.00  0.00    +0.000 A 
ATOM      7  C   UNL     1       1.544   4.286  18.408  0.00  0.00    +0.000 A 
ENDBRANCH   1   2
BRANCH   1   9
ATOM      8  O   UNL     1       1.838   7.460  17.625  0.00  0.00    +0.000 OA
ATOM      9  C   UNL     1       2.700   6.871  18.263  0.00  0.00    +0.000 C 
BRANCH   9  10
ATOM     10  O   UNL     1       3.993   6.877  17.795  0.00  0.00    +0.000 OA
BRANCH  10  11
ATOM     11  C   UNL     1       4.484   5.890  16.927  0.00  0.00    +0.000 C 
ATOM     12  C   UNL     1       4.948   4.622  17.700  0.00  0.00    +0.000 C 
ATOM     13  N   UNL     1       6.242   4.115  17.174  0.00  0.00    +0.000 NA
ATOM     14  C   UNL     1       6.142   3.905  15.709  0.00  0.00    +0.000 C 
ATOM     15  C   UNL     1       5.924   5.253  14.975  0.00  0.00    +0.000 C 
ATOM     16  C   UNL     1       5.658   6.365  16.025  0.00  0.00    +0.000 C 
ATOM     17  C   UNL     1       6.950   6.496  16.855  0.00  0.00    +0.000 C 
ATOM     18  C   UNL     1       7.301   5.112  17.465  0.00  0.00    +0.000 C 
ENDBRANCH  10  11
ENDBRANCH   9  10
ENDBRANCH   1   9
BRANCH   1  19
ATOM     19  O   UNL     1       3.512   6.400  20.427  0.00  0.00    +0.000 OA
ATOM     20  H   UNL     1       3.956   7.274  20.287  0.00  0.00    +0.000 HD
ENDBRANCH   1  19
BRANCH   1  21
ATOM     21  C   UNL     1       1.261   7.336  20.336  0.00  0.00    +0.000 C 
BRANCH  21  22
ATOM     22  N   UNL     1       1.737   8.706  20.719  0.00  0.00    +0.000 NA
ATOM     23  C   UNL     1       1.256   9.836  19.892  0.00  0.00    +0.000 C 
ATOM     24  C   UNL     1      -0.270  10.021  19.938  0.00  0.00    +0.000 C 
ATOM     25  S   UNL     1      -0.840  10.476  21.608  0.00  0.00    +0.000 S 
ATOM     26  C   UNL     1      -0.028   9.101  22.490  0.00  0.00    +0.000 C 
ATOM     27  C   UNL     1       1.470   9.003  22.152  0.00  0.00    +0.000 C 
ENDBRANCH  21  22
ENDBRANCH   1  21
TORSDOF 7
ENDMDL
MODEL 2
REMARK VINA RESULT:      -6.4      2.659      6.385
REMARK  Name = 
REMARK  7 active torsions:
REMARK  status: ('A' for Active; 'I' for Inactive)
REMARK    1  A    between atoms: C_2  and  O_3
REMARK    2  A    between atoms: C_2  and  C_12
REMARK    3  A    between atoms: O_3  and  C_4
REMARK    4  A    between atoms: C_12  and  O_13
REMARK    5  A    between atoms: C_12  and  C_14
REMARK    6  A    between atoms: C_12  and  C_21
REMARK    7  A    between atoms: C_14  and  N_15
REMARK                            x       y       z     vdW  Elec       q    Type
REMARK                         _______ _______ _______ _____ _____    ______ ____
ROOT
ATOM      1  C   UNL     1       2.498   6.084  18.882  0.00  0.00    +0.000 C 
ENDROOT
BRANCH   1   2
ATOM      2  C   UNL     1       2.082   4.835  19.671  0.00  0.00    +0.000 A 
ATOM      3  C   UNL     1       2.524   4.624  21.002  0.00  0.00    +0.000 A 
ATOM      4  C   UNL     1       2.152   3.474  21.705  0.00  0.00    +0.000 A 
ATOM      5  C   UNL     1       1.343   2.515  21.102  0.00  0.00    +0.000 A 
ATOM      6  C   UNL     1       0.892   2.701  19.796  0.00  0.00    +0.000 A 
ATOM      7  C   UNL     1       1.255   3.857  19.083  0.00  0.00    +0.000 A 
ENDBRANCH   1   2
BRANCH   1   9
ATOM      8  O   UNL     1       1.724   7.288  20.772  0.00  0.00    +0.000 OA
ATOM      9  C   UNL     1       2.075   7.381  19.604  0.00  0.00    +0.000 C 
BRANCH   9  10
ATOM     10  O   UNL     1       2.280   8.632  19.070  0.00  0.00    +0.000 OA
BRANCH  10  11
ATOM     11  C   UNL     1       1.221   9.486  18.725  0.00  0.00    +0.000 C 
ATOM     12  C   UNL     1       1.734  10.879  18.257  0.00  0.00    +0.000 C 
ATOM     13  N   UNL     1       0.922  11.975  18.845  0.00  0.00    +0.000 NA
ATOM     14  C   UNL     1      -0.514  11.751  18.554  0.00  0.00    +0.000 C 
ATOM     15  C   UNL     1      -1.024  10.468  19.259  0.00  0.00    +0.000 C 
ATOM     16  C   UNL     1       0.187   9.707  19.864  0.00  0.00    +0.000 C 
ATOM     17  C   UNL     1       0.778  10.626  20.951  0.00  0.00    +0.000 C 
ATOM     18  C   UNL     1       1.138  11.996  20.314  0.00  0.00    +0.000 C 
ENDBRANCH  10  11
ENDBRANCH   9  10
ENDBRANCH   1   9
BRANCH   1  19
ATOM     19  O   UNL     1       1.826   6.093  17.643  0.00  0.00    +0.000 OA
ATOM     20  H   UNL     1       1.316   6.938  17.563  0.00  0.00    +0.000 HD
ENDBRANCH   1  19
BRANCH   1  21
ATOM     21  C   UNL     1       4.059   6.080  18.626  0.00  0.00    +0.000 C 
BRANCH  21  22
ATOM     22  N   UNL     1       4.721   4.740  18.494  0.00  0.00    +0.000 NA
ATOM     23  C   UNL     1       4.579   4.050  17.191  0.00  0.00    +0.000 C 
ATOM     24  C   UNL     1       5.213   4.819  16.019  0.00  0.00    +0.000 C 
ATOM     25  S   UNL     1       7.021   4.954  16.206  0.00  0.00    +0.000 S 
ATOM     26  C   UNL     1       7.008   5.646  17.894  0.00  0.00    +0.000 C 
ATOM     27  C   UNL     1       6.161   4.797  18.859  0.00  0.00    +0.000 C 
ENDBRANCH  21  22
ENDBRANCH   1  21
TORSDOF 7
ENDMDL
MODEL 3
REMARK VINA RESULT:      -6.4      2.710      6.308
REMARK  Name = 
REMARK  7 active torsions:
REMARK  status: ('A' for Active; 'I' for Inactive)
REMARK    1  A    between atoms: C_2  and  O_3
REMARK    2  A    between atoms: C_2  and  C_12
REMARK    3  A    between atoms: O_3  and  C_4
REMARK    4  A    between atoms: C_12  and  O_13
REMARK    5  A    between atoms: C_12  and  C_14
REMARK    6  A    between atoms: C_12  and  C_21
REMARK    7  A    between atoms: C_14  and  N_15
REMARK                            x       y       z     vdW  Elec       q    Type
REMARK                         _______ _______ _______ _____ _____    ______ ____
ROOT
ATOM      1  C   UNL     1       2.411   5.207  18.413  0.00  0.00    +0.000 C 
ENDROOT
BRANCH   1   2
ATOM      2  C   UNL     1       2.375   4.146  19.522  0.00  0.00    +0.000 A 
ATOM      3  C   UNL     1       1.207   3.930  20.296  0.00  0.00    +0.000 A 
ATOM      4  C   UNL     1       1.192   2.973  21.315  0.00  0.00    +0.000 A 
ATOM      5  C   UNL     1       2.331   2.219  21.587  0.00  0.00    +0.000 A 
ATOM      6  C   UNL     1       3.490   2.410  20.837  0.00  0.00    +0.000 A 
ATOM      7  C   UNL     1       3.514   3.366  19.806  0.00  0.00    +0.000 A 
ENDBRANCH   1   2
BRANCH   1   9
ATOM      8  O   UNL     1       3.160   6.833  19.965  0.00  0.00    +0.000 OA
ATOM      9  C   UNL     1       2.446   6.637  18.992  0.00  0.00    +0.000 C 
BRANCH   9  10
ATOM     10  O   UNL     1       1.894   7.717  18.345  0.00  0.00    +0.000 OA
BRANCH  10  11
ATOM     11  C   UNL     1       1.860   8.999  18.914  0.00  0.00    +0.000 C 
ATOM     12  C   UNL     1       1.058   9.015  20.249  0.00  0.00    +0.000 C 
ATOM     13  N   UNL     1       0.166  10.201  20.324  0.00  0.00    +0.000 NA
ATOM     14  C   UNL     1       0.950  11.438  20.096  0.00  0.00    +0.000 C 
ATOM     15  C   UNL     1       1.519  11.470  18.653  0.00  0.00    +0.000 C 
ATOM     16  C   UNL     1       1.271  10.093  17.981  0.00  0.00    +0.000 C 
ATOM     17  C   UNL     1      -0.258   9.934  17.870  0.00  0.00    +0.000 C 
ATOM     18  C   UNL     1      -0.885  10.076  19.283  0.00  0.00    +0.000 C 
ENDBRANCH  10  11
ENDBRANCH   9  10
ENDBRANCH   1   9
BRANCH   1  19
ATOM     19  O   UNL     1       1.226   5.124  17.655  0.00  0.00    +0.000 OA
ATOM     20  H   UNL     1       1.028   6.015  17.274  0.00  0.00    +0.000 HD
ENDBRANCH   1  19
BRANCH   1  21
ATOM     21  C   UNL     1       3.652   4.967  17.462  0.00  0.00    +0.000 C 
BRANCH  21  22
ATOM     22  N   UNL     1       4.719   6.022  17.459  0.00  0.00    +0.000 NA
ATOM     23  C   UNL     1       5.997   5.682  18.126  0.00  0.00    +0.000 C 
ATOM     24  C   UNL     1       6.735   4.502  17.469  0.00  0.00    +0.000 C 
ATOM     25  S   UNL     1       7.263   4.904  15.772  0.00  0.00    +0.000 S 
ATOM     26  C   UNL     1       5.632   5.453  15.167  0.00  0.00    +0.000 C 
ATOM     27  C   UNL     1       5.004   6.516  16.085  0.00  0.00    +0.000 C 
ENDBRANCH  21  22
ENDBRANCH   1  21
TORSDOF 7
ENDMDL
MODEL 4
REMARK VINA RESULT:      -6.3      2.689      6.400
REMARK  Name = 
REMARK  7 active torsions:
REMARK  status: ('A' for Active; 'I' for Inactive)
REMARK    1  A    between atoms: C_2  and  O_3
REMARK    2  A    between atoms: C_2  and  C_12
REMARK    3  A    between atoms: O_3  and  C_4
REMARK    4  A    between atoms: C_12  and  O_13
REMARK    5  A    between atoms: C_12  and  C_14
REMARK    6  A    between atoms: C_12  and  C_21
REMARK    7  A    between atoms: C_14  and  N_15
REMARK                            x       y       z     vdW  Elec       q    Type
REMARK                         _______ _______ _______ _____ _____    ______ ____
ROOT
ATOM      1  C   UNL     1       2.458   6.237  19.007  0.00  0.00    +0.000 C 
ENDROOT
BRANCH   1   2
ATOM      2  C   UNL     1       2.068   4.924  19.700  0.00  0.00    +0.000 A 
ATOM      3  C   UNL     1       2.494   4.633  21.020  0.00  0.00    +0.000 A 
ATOM      4  C   UNL     1       2.146   3.426  21.634  0.00  0.00    +0.000 A 
ATOM      5  C   UNL     1       1.376   2.488  20.951  0.00  0.00    +0.000 A 
ATOM      6  C   UNL     1       0.941   2.753  19.653  0.00  0.00    +0.000 A 
ATOM      7  C   UNL     1       1.280   3.966  19.030  0.00  0.00    +0.000 A 
ENDBRANCH   1   2
BRANCH   1   9
ATOM      8  O   UNL     1       1.493   7.277  20.906  0.00  0.00    +0.000 OA
ATOM      9  C   UNL     1       1.940   7.467  19.784  0.00  0.00    +0.000 C 
BRANCH   9  10
ATOM     10  O   UNL     1       2.156   8.758  19.364  0.00  0.00    +0.000 OA
BRANCH  10  11
ATOM     11  C   UNL     1       1.115   9.590  18.923  0.00  0.00    +0.000 C 
ATOM     12  C   UNL     1       1.651  10.952  18.392  0.00  0.00    +0.000 C 
ATOM     13  N   UNL     1       0.819  12.083  18.878  0.00  0.00    +0.000 NA
ATOM     14  C   UNL     1      -0.604  11.842  18.542  0.00  0.00    +0.000 C 
ATOM     15  C   UNL     1      -1.147  10.605  19.303  0.00  0.00    +0.000 C 
ATOM     16  C   UNL     1       0.035   9.882  20.003  0.00  0.00    +0.000 C 
ATOM     17  C   UNL     1       0.584  10.866  21.055  0.00  0.00    +0.000 C 
ATOM     18  C   UNL     1       0.974  12.193  20.350  0.00  0.00    +0.000 C 
ENDBRANCH  10  11
ENDBRANCH   9  10
ENDBRANCH   1   9
BRANCH   1  19
ATOM     19  O   UNL     1       1.845   6.292  17.740  0.00  0.00    +0.000 OA
ATOM     20  H   UNL     1       2.545   6.224  17.043  0.00  0.00    +0.000 HD
ENDBRANCH   1  19
BRANCH   1  21
ATOM     21  C   UNL     1       4.028   6.320  18.829  0.00  0.00    +0.000 C 
BRANCH  21  22
ATOM     22  N   UNL     1       4.558   6.209  17.430  0.00  0.00    +0.000 NA
ATOM     23  C   UNL     1       5.819   6.929  17.134  0.00  0.00    +0.000 C 
ATOM     24  C   UNL     1       7.018   6.426  17.955  0.00  0.00    +0.000 C 
ATOM     25  S   UNL     1       7.436   4.701  17.541  0.00  0.00    +0.000 S 
ATOM     26  C   UNL     1       5.765   4.013  17.791  0.00  0.00    +0.000 C 
ATOM     27  C   UNL     1       4.697   4.791  17.003  0.00  0.00    +0.000 C 
ENDBRANCH  21  22
ENDBRANCH   1  21
TORSDOF 7
ENDMDL
MODEL 5
REMARK VINA RESULT:      -6.2      0.803      1.773
REMARK  Name = 
REMARK  7 active torsions:
REMARK  status: ('A' for Active; 'I' for Inactive)
REMARK    1  A    between atoms: C_2  and  O_3
REMARK    2  A    between atoms: C_2  and  C_12
REMARK    3  A    between atoms: O_3  and  C_4
REMARK    4  A    between atoms: C_12  and  O_13
REMARK    5  A    between atoms: C_12  and  C_14
REMARK    6  A    between atoms: C_12  and  C_21
REMARK    7  A    between atoms: C_14  and  N_15
REMARK                            x       y       z     vdW  Elec       q    Type
REMARK                         _______ _______ _______ _____ _____    ______ ____
ROOT
ATOM      1  C   UNL     1       2.277   6.497  19.712  0.00  0.00    +0.000 C 
ENDROOT
BRANCH   1   2
ATOM      2  C   UNL     1       1.939   5.045  20.079  0.00  0.00    +0.000 A 
ATOM      3  C   UNL     1       1.210   4.213  19.193  0.00  0.00    +0.000 A 
ATOM      4  C   UNL     1       0.894   2.897  19.545  0.00  0.00    +0.000 A 
ATOM      5  C   UNL     1       1.290   2.387  20.778  0.00  0.00    +0.000 A 
ATOM      6  C   UNL     1       2.012   3.184  21.665  0.00  0.00    +0.000 A 
ATOM      7  C   UNL     1       2.340   4.506  21.318  0.00  0.00    +0.000 A 
ENDBRANCH   1   2
BRANCH   1   9
ATOM      8  O   UNL     1       1.979   7.725  17.707  0.00  0.00    +0.000 OA
ATOM      9  C   UNL     1       2.407   6.684  18.186  0.00  0.00    +0.000 C 
BRANCH   9  10
ATOM     10  O   UNL     1       3.161   5.849  17.395  0.00  0.00    +0.000 OA
BRANCH  10  11
ATOM     11  C   UNL     1       4.564   5.881  17.389  0.00  0.00    +0.000 C 
ATOM     12  C   UNL     1       5.118   6.645  16.151  0.00  0.00    +0.000 C 
ATOM     13  N   UNL     1       6.267   5.923  15.546  0.00  0.00    +0.000 NA
ATOM     14  C   UNL     1       7.296   5.658  16.580  0.00  0.00    +0.000 C 
ATOM     15  C   UNL     1       6.752   4.687  17.659  0.00  0.00    +0.000 C 
ATOM     16  C   UNL     1       5.231   4.478  17.433  0.00  0.00    +0.000 C 
ATOM     17  C   UNL     1       5.088   3.776  16.069  0.00  0.00    +0.000 C 
ATOM     18  C   UNL     1       5.783   4.639  14.980  0.00  0.00    +0.000 C 
ENDBRANCH  10  11
ENDBRANCH   9  10
ENDBRANCH   1   9
BRANCH   1  19
ATOM     19  O   UNL     1       3.534   6.830  20.253  0.00  0.00    +0.000 OA
ATOM     20  H   UNL     1       4.232   6.650  19.574  0.00  0.00    +0.000 HD
ENDBRANCH   1  19
BRANCH   1  21
ATOM     21  C   UNL     1       1.184   7.481  20.296  0.00  0.00    +0.000 C 
BRANCH  21  22
ATOM     22  N   UNL     1       1.655   8.835  20.736  0.00  0.00    +0.000 NA
ATOM     23  C   UNL     1       1.142  10.000  19.978  0.00  0.00    +0.000 C 
ATOM     24  C   UNL     1      -0.384  10.165  20.071  0.00  0.00    +0.000 C 
ATOM     25  S   UNL     1      -0.917  10.530  21.775  0.00  0.00    +0.000 S 
ATOM     26  C   UNL     1      -0.069   9.121  22.567  0.00  0.00    +0.000 C 
ATOM     27  C   UNL     1       1.421   9.058  22.187  0.00  0.00    +0.000 C 
ENDBRANCH  21  22
ENDBRANCH   1  21
TORSDOF 7
ENDMDL
MODEL 6
REMARK VINA RESULT:      -6.2      2.903      5.913
REMARK  Name = 
REMARK  7 active torsions:
REMARK  status: ('A' for Active; 'I' for Inactive)
REMARK    1  A    between atoms: C_2  and  O_3
REMARK    2  A    between atoms: C_2  and  C_12
REMARK    3  A    between atoms: O_3  and  C_4
REMARK    4  A    between atoms: C_12  and  O_13
REMARK    5  A    between atoms: C_12  and  C_14
REMARK    6  A    between atoms: C_12  and  C_21
REMARK    7  A    between atoms: C_14  and  N_15
REMARK                            x       y       z     vdW  Elec       q    Type
REMARK                         _______ _______ _______ _____ _____    ______ ____
ROOT
ATOM      1  C   UNL     1       0.948   9.982  18.690  0.00  0.00    +0.000 C 
ENDROOT
BRANCH   1   2
ATOM      2  C   UNL     1       1.505  11.368  19.044  0.00  0.00    +0.000 A 
ATOM      3  C   UNL     1       2.340  12.077  18.145  0.00  0.00    +0.000 A 
ATOM      4  C   UNL     1       2.856  13.332  18.485  0.00  0.00    +0.000 A 
ATOM      5  C   UNL     1       2.556  13.902  19.719  0.00  0.00    +0.000 A 
ATOM      6  C   UNL     1       1.732  13.226  20.619  0.00  0.00    +0.000 A 
ATOM      7  C   UNL     1       1.205  11.967  20.284  0.00  0.00    +0.000 A 
ENDBRANCH   1   2
BRANCH   1   9
ATOM      8  O   UNL     1       0.819   8.795  20.738  0.00  0.00    +0.000 OA
ATOM      9  C   UNL     1       1.430   8.904  19.684  0.00  0.00    +0.000 C 
BRANCH   9  10
ATOM     10  O   UNL     1       2.353   7.942  19.350  0.00  0.00    +0.000 OA
BRANCH  10  11
ATOM     11  C   UNL     1       2.011   6.588  19.205  0.00  0.00    +0.000 C 
ATOM     12  C   UNL     1       2.480   5.742  20.425  0.00  0.00    +0.000 C 
ATOM     13  N   UNL     1       3.087   4.459  19.986  0.00  0.00    +0.000 NA
ATOM     14  C   UNL     1       2.148   3.735  19.096  0.00  0.00    +0.000 C 
ATOM     15  C   UNL     1       1.916   4.525  17.782  0.00  0.00    +0.000 C 
ATOM     16  C   UNL     1       2.568   5.927  17.913  0.00  0.00    +0.000 C 
ATOM     17  C   UNL     1       4.085   5.690  18.046  0.00  0.00    +0.000 C 
ATOM     18  C   UNL     1       4.346   4.750  19.254  0.00  0.00    +0.000 C 
ENDBRANCH  10  11
ENDBRANCH   9  10
ENDBRANCH   1   9
BRANCH   1  19
ATOM     19  O   UNL     1       1.440   9.594  17.428  0.00  0.00    +0.000 OA
ATOM     20  H   UNL     1       0.693   9.599  16.779  0.00  0.00    +0.000 HD
ENDBRANCH   1  19
BRANCH   1  21
ATOM     21  C   UNL     1      -0.633  10.020  18.642  0.00  0.00    +0.000 C 
BRANCH  21  22
ATOM     22  N   UNL     1      -1.259  10.754  17.494  0.00  0.00    +0.000 NA
ATOM     23  C   UNL     1      -2.268  10.016  16.699  0.00  0.00    +0.000 C 
ATOM     24  C   UNL     1      -3.508   9.608  17.511  0.00  0.00    +0.000 C 
ATOM     25  S   UNL     1      -4.440  11.064  18.088  0.00  0.00    +0.000 S 
ATOM     26  C   UNL     1      -3.034  11.917  18.876  0.00  0.00    +0.000 C 
ATOM     27  C   UNL     1      -1.835  12.058  17.920  0.00  0.00    +0.000 C 
ENDBRANCH  21  22
ENDBRANCH   1  21
TORSDOF 7
ENDMDL
MODEL 7
REMARK VINA RESULT:      -6.2      2.200      6.412
REMARK  Name = 
REMARK  7 active torsions:
REMARK  status: ('A' for Active; 'I' for Inactive)
REMARK    1  A    between atoms: C_2  and  O_3
REMARK    2  A    between atoms: C_2  and  C_12
REMARK    3  A    between atoms: O_3  and  C_4
REMARK    4  A    between atoms: C_12  and  O_13
REMARK    5  A    between atoms: C_12  and  C_14
REMARK    6  A    between atoms: C_12  and  C_21
REMARK    7  A    between atoms: C_14  and  N_15
REMARK                            x       y       z     vdW  Elec       q    Type
REMARK                         _______ _______ _______ _____ _____    ______ ____
ROOT
ATOM      1  C   UNL     1       3.721   5.867  18.438  0.00  0.00    +0.000 C 
ENDROOT
BRANCH   1   2
ATOM      2  C   UNL     1       4.934   5.353  17.651  0.00  0.00    +0.000 A 
ATOM      3  C   UNL     1       4.787   4.789  16.358  0.00  0.00    +0.000 A 
ATOM      4  C   UNL     1       5.898   4.308  15.657  0.00  0.00    +0.000 A 
ATOM      5  C   UNL     1       7.167   4.375  16.225  0.00  0.00    +0.000 A 
ATOM      6  C   UNL     1       7.338   4.930  17.492  0.00  0.00    +0.000 A 
ATOM      7  C   UNL     1       6.229   5.421  18.202  0.00  0.00    +0.000 A 
ENDBRANCH   1   2
BRANCH   1   9
ATOM      8  O   UNL     1       3.849   7.726  16.974  0.00  0.00    +0.000 OA
ATOM      9  C   UNL     1       3.231   7.230  17.905  0.00  0.00    +0.000 C 
BRANCH   9  10
ATOM     10  O   UNL     1       2.031   7.788  18.279  0.00  0.00    +0.000 OA
BRANCH  10  11
ATOM     11  C   UNL     1       1.950   9.022  18.944  0.00  0.00    +0.000 C 
ATOM     12  C   UNL     1       1.146   8.908  20.272  0.00  0.00    +0.000 C 
ATOM     13  N   UNL     1       0.211  10.052  20.433  0.00  0.00    +0.000 NA
ATOM     14  C   UNL     1       0.951  11.330  20.303  0.00  0.00    +0.000 C 
ATOM     15  C   UNL     1       1.520  11.491  18.870  0.00  0.00    +0.000 C 
ATOM     16  C   UNL     1       1.323  10.162  18.093  0.00  0.00    +0.000 C 
ATOM     17  C   UNL     1      -0.198   9.957  17.963  0.00  0.00    +0.000 C 
ATOM     18  C   UNL     1      -0.833   9.968  19.380  0.00  0.00    +0.000 C 
ENDBRANCH  10  11
ENDBRANCH   9  10
ENDBRANCH   1   9
BRANCH   1  19
ATOM     19  O   UNL     1       4.099   6.087  19.778  0.00  0.00    +0.000 OA
ATOM     20  H   UNL     1       3.355   6.540  20.249  0.00  0.00    +0.000 HD
ENDBRANCH   1  19
BRANCH   1  21
ATOM     21  C   UNL     1       2.548   4.806  18.398  0.00  0.00    +0.000 C 
BRANCH  21  22
ATOM     22  N   UNL     1       2.909   3.384  18.712  0.00  0.00    +0.000 NA
ATOM     23  C   UNL     1       3.607   3.139  19.995  0.00  0.00    +0.000 C 
ATOM     24  C   UNL     1       2.772   3.520  21.229  0.00  0.00    +0.000 C 
ATOM     25  S   UNL     1       1.285   2.479  21.379  0.00  0.00    +0.000 S 
ATOM     26  C   UNL     1       0.657   2.762  19.689  0.00  0.00    +0.000 C 
ATOM     27  C   UNL     1       1.729   2.482  18.621  0.00  0.00    +0.000 C 
ENDBRANCH  21  22
ENDBRANCH   1  21
TORSDOF 7
ENDMDL
MODEL 8
REMARK VINA RESULT:      -6.1      2.638      6.532
REMARK  Name = 
REMARK  7 active torsions:
REMARK  status: ('A' for Active; 'I' for Inactive)
REMARK    1  A    between atoms: C_2  and  O_3
REMARK    2  A    between atoms: C_2  and  C_12
REMARK    3  A    between atoms: O_3  and  C_4
REMARK    4  A    between atoms: C_12  and  O_13
REMARK    5  A    between atoms: C_12  and  C_14
REMARK    6  A    between atoms: C_12  and  C_21
REMARK    7  A    between atoms: C_14  and  N_15
REMARK                            x       y       z     vdW  Elec       q    Type
REMARK                         _______ _______ _______ _____ _____    ______ ____
ROOT
ATOM      1  C   UNL     1       2.357   6.428  19.113  0.00  0.00    +0.000 C 
ENDROOT
BRANCH   1   2
ATOM      2  C   UNL     1       2.003   5.072  19.739  0.00  0.00    +0.000 A 
ATOM      3  C   UNL     1       1.227   4.116  19.035  0.00  0.00    +0.000 A 
ATOM      4  C   UNL     1       0.895   2.891  19.622  0.00  0.00    +0.000 A 
ATOM      5  C   UNL     1       1.323   2.595  20.914  0.00  0.00    +0.000 A 
ATOM      6  C   UNL     1       2.091   3.516  21.624  0.00  0.00    +0.000 A 
ATOM      7  C   UNL     1       2.434   4.748  21.040  0.00  0.00    +0.000 A 
ENDBRANCH   1   2
BRANCH   1   9
ATOM      8  O   UNL     1       1.644   7.456  21.126  0.00  0.00    +0.000 OA
ATOM      9  C   UNL     1       1.757   7.601  19.916  0.00  0.00    +0.000 C 
BRANCH   9  10
ATOM     10  O   UNL     1       1.553   8.848  19.375  0.00  0.00    +0.000 OA
BRANCH  10  11
ATOM     11  C   UNL     1       0.395   9.599  19.629  0.00  0.00    +0.000 C 
ATOM     12  C   UNL     1      -0.194  10.209  18.323  0.00  0.00    +0.000 C 
ATOM     13  N   UNL     1      -0.609  11.621  18.529  0.00  0.00    +0.000 NA
ATOM     14  C   UNL     1      -1.531  11.711  19.686  0.00  0.00    +0.000 C 
ATOM     15  C   UNL     1      -0.804  11.323  21.000  0.00  0.00    +0.000 C 
ATOM     16  C   UNL     1       0.597  10.750  20.654  0.00  0.00    +0.000 C 
ATOM     17  C   UNL     1       1.391  11.904  20.011  0.00  0.00    +0.000 C 
ATOM     18  C   UNL     1       0.600  12.442  18.788  0.00  0.00    +0.000 C 
ENDBRANCH  10  11
ENDBRANCH   9  10
ENDBRANCH   1   9
BRANCH   1  19
ATOM     19  O   UNL     1       1.787   6.506  17.827  0.00  0.00    +0.000 OA
ATOM     20  H   UNL     1       1.708   7.459  17.570  0.00  0.00    +0.000 HD
ENDBRANCH   1  19
BRANCH   1  21
ATOM     21  C   UNL     1       3.927   6.587  18.995  0.00  0.00    +0.000 C 
BRANCH  21  22
ATOM     22  N   UNL     1       4.634   5.658  18.052  0.00  0.00    +0.000 NA
ATOM     23  C   UNL     1       5.338   6.278  16.906  0.00  0.00    +0.000 C 
ATOM     24  C   UNL     1       6.483   7.215  17.326  0.00  0.00    +0.000 C 
ATOM     25  S   UNL     1       7.817   6.305  18.171  0.00  0.00    +0.000 S 
ATOM     26  C   UNL     1       6.761   5.488  19.414  0.00  0.00    +0.000 C 
ATOM     27  C   UNL     1       5.573   4.754  18.768  0.00  0.00    +0.000 C 
ENDBRANCH  21  22
ENDBRANCH   1  21
TORSDOF 7
ENDMDL
MODEL 9
REMARK VINA RESULT:      -6.1      2.455      6.102
REMARK  Name = 
REMARK  7 active torsions:
REMARK  status: ('A' for Active; 'I' for Inactive)
REMARK    1  A    between atoms: C_2  and  O_3
REMARK    2  A    between atoms: C_2  and  C_12
REMARK    3  A    between atoms: O_3  and  C_4
REMARK    4  A    between atoms: C_12  and  O_13
REMARK    5  A    between atoms: C_12  and  C_14
REMARK    6  A    between atoms: C_12  and  C_21
REMARK    7  A    between atoms: C_14  and  N_15
REMARK                            x       y       z     vdW  Elec       q    Type
REMARK                         _______ _______ _______ _____ _____    ______ ____
ROOT
ATOM      1  C   UNL     1       3.435   5.444  18.258  0.00  0.00    +0.000 C 
ENDROOT
BRANCH   1   2
ATOM      2  C   UNL     1       2.579   4.585  19.200  0.00  0.00    +0.000 A 
ATOM      3  C   UNL     1       1.475   3.838  18.716  0.00  0.00    +0.000 A 
ATOM      4  C   UNL     1       0.692   3.073  19.586  0.00  0.00    +0.000 A 
ATOM      5  C   UNL     1       0.987   3.038  20.946  0.00  0.00    +0.000 A 
ATOM      6  C   UNL     1       2.070   3.760  21.446  0.00  0.00    +0.000 A 
ATOM      7  C   UNL     1       2.866   4.527  20.578  0.00  0.00    +0.000 A 
ENDBRANCH   1   2
BRANCH   1   9
ATOM      8  O   UNL     1       3.131   7.483  17.089  0.00  0.00    +0.000 OA
ATOM      9  C   UNL     1       2.866   6.872  18.115  0.00  0.00    +0.000 C 
BRANCH   9  10
ATOM     10  O   UNL     1       1.921   7.386  18.970  0.00  0.00    +0.000 OA
BRANCH  10  11
ATOM     11  C   UNL     1       1.898   8.740  19.340  0.00  0.00    +0.000 C 
ATOM     12  C   UNL     1       0.973   8.986  20.568  0.00  0.00    +0.000 C 
ATOM     13  N   UNL     1       0.140  10.201  20.378  0.00  0.00    +0.000 NA
ATOM     14  C   UNL     1       1.006  11.360  20.055  0.00  0.00    +0.000 C 
ATOM     15  C   UNL     1       1.712  11.155  18.690  0.00  0.00    +0.000 C 
ATOM     16  C   UNL     1       1.459   9.703  18.202  0.00  0.00    +0.000 C 
ATOM     17  C   UNL     1      -0.057   9.585  17.958  0.00  0.00    +0.000 C 
ATOM     18  C   UNL     1      -0.810   9.960  19.263  0.00  0.00    +0.000 C 
ENDBRANCH  10  11
ENDBRANCH   9  10
ENDBRANCH   1   9
BRANCH   1  19
ATOM     19  O   UNL     1       3.405   4.883  16.966  0.00  0.00    +0.000 OA
ATOM     20  H   UNL     1       2.710   5.345  16.433  0.00  0.00    +0.000 HD
ENDBRANCH   1  19
BRANCH   1  21
ATOM     21  C   UNL     1       4.931   5.495  18.768  0.00  0.00    +0.000 C 
BRANCH  21  22
ATOM     22  N   UNL     1       6.005   5.301  17.739  0.00  0.00    +0.000 NA
ATOM     23  C   UNL     1       6.185   6.387  16.747  0.00  0.00    +0.000 C 
ATOM     24  C   UNL     1       6.605   7.726  17.376  0.00  0.00    +0.000 C 
ATOM     25  S   UNL     1       8.251   7.615  18.151  0.00  0.00    +0.000 S 
ATOM     26  C   UNL     1       7.899   6.155  19.186  0.00  0.00    +0.000 C 
ATOM     27  C   UNL     1       7.319   4.991  18.363  0.00  0.00    +0.000 C 
ENDBRANCH  21  22
ENDBRANCH   1  21
TORSDOF 7
ENDMDL
