MODEL 1
REMARK VINA RESULT:      -9.0      0.000      0.000
REMARK  Name = 
REMARK  12 active torsions:
REMARK  status: ('A' for Active; 'I' for Inactive)
REMARK    1  A    between atoms: C_1  and  C_2
REMARK    2  A    between atoms: C_2  and  C_3
REMARK    3  A    between atoms: C_2  and  C_4
REMARK    4  A    between atoms: C_2  and  N_18
REMARK    5  A    between atoms: C_4  and  C_5
REMARK    6  A    between atoms: C_5  and  C_6
REMARK    7  A    between atoms: C_5  and  C_12
REMARK    8  A    between atoms: N_18  and  C_19
REMARK    9  A    between atoms: C_19  and  C_20
REMARK   10  A    between atoms: C_20  and  O_21
REMARK   11  A    between atoms: C_20  and  C_22
REMARK   12  A    between atoms: C_25  and  O_26
REMARK                            x       y       z     vdW  Elec       q    Type
REMARK                         _______ _______ _______ _____ _____    ______ ____
ROOT
ATOM      1  N   UNL     1       3.006   4.692  17.746  0.00  0.00    +0.000 NA
ATOM      2  H   UNL     1       2.422   4.756  16.911  0.00  0.00    +0.000 HD
ENDROOT
BRANCH   1   4
ATOM      3  C   UNL     1       2.575   2.254  17.504  0.00  0.00    +0.000 C 
ATOM      4  C   UNL     1       3.626   3.328  17.834  0.00  0.00    +0.000 C 
ATOM      5  C   UNL     1       4.193   3.080  19.249  0.00  0.00    +0.000 C 
BRANCH   4   6
ATOM      6  C   UNL     1       4.794   3.329  16.791  0.00  0.00    +0.000 C 
BRANCH   6   7
ATOM      7  C   UNL     1       5.263   4.680  16.143  0.00  0.00    +0.000 C 
BRANCH   7   8
ATOM      8  C   UNL     1       6.238   5.493  16.989  0.00  0.00    +0.000 A 
ATOM      9  C   UNL     1       6.341   6.886  16.857  0.00  0.00    +0.000 A 
ATOM     10  C   UNL     1       7.233   7.612  17.650  0.00  0.00    +0.000 A 
ATOM     11  C   UNL     1       8.026   6.961  18.592  0.00  0.00    +0.000 A 
ATOM     12  C   UNL     1       7.936   5.579  18.737  0.00  0.00    +0.000 A 
ATOM     13  C   UNL     1       7.047   4.850  17.943  0.00  0.00    +0.000 A 
ENDBRANCH   7   8
BRANCH   7  14
ATOM     14  C   UNL     1       5.813   4.490  14.716  0.00  0.00    +0.000 A 
ATOM     15  C   UNL     1       5.076   3.738  13.781  0.00  0.00    +0.000 A 
ATOM     16  C   UNL     1       5.587   3.469  12.508  0.00  0.00    +0.000 A 
ATOM     17  C   UNL     1       6.841   3.956  12.143  0.00  0.00    +0.000 A 
ATOM     18  C   UNL     1       7.561   4.745  13.034  0.00  0.00    +0.000 A 
ATOM     19  C   UNL     1       7.045   5.023  14.302  0.00  0.00    +0.000 A 
ENDBRANCH   7  14
ENDBRANCH   6   7
ENDBRANCH   4   6
ENDBRANCH   1   4
BRANCH   1  20
ATOM     20  C   UNL     1       2.216   5.095  18.923  0.00  0.00    +0.000 C 
BRANCH  20  21
ATOM     21  C   UNL     1       2.769   6.300  19.745  0.00  0.00    +0.000 C 
BRANCH  21  22
ATOM     22  C   UNL     1       2.085   7.596  19.295  0.00  0.00    +0.000 A 
ATOM     23  C   UNL     1       2.462   8.110  18.031  0.00  0.00    +0.000 A 
ATOM     24  C   UNL     1       2.101   9.403  17.631  0.00  0.00    +0.000 A 
ATOM     25  C   UNL     1       1.423  10.220  18.525  0.00  0.00    +0.000 A 
ATOM     26  C   UNL     1       1.038   9.732  19.772  0.00  0.00    +0.000 A 
ATOM     27  N   UNL     1       0.496  10.622  20.714  0.00  0.00    +0.000 N 
ATOM     28  C   UNL     1       0.142  10.259  21.982  0.00  0.00    +0.000 A 
ATOM     29  O   UNL     1      -0.145  11.062  22.861  0.00  0.00    +0.000 OA
ATOM     30  C   UNL     1       0.072   8.801  22.231  0.00  0.00    +0.000 A 
ATOM     31  C   UNL     1       0.598   7.931  21.362  0.00  0.00    +0.000 A 
ATOM     32  C   UNL     1       1.264   8.391  20.131  0.00  0.00    +0.000 A 
ATOM     33  H   UNL     1       0.502  11.608  20.487  0.00  0.00    +0.000 HD
BRANCH  25  34
ATOM     34  O   UNL     1       1.127  11.514  18.204  0.00  0.00    +0.000 OA
ATOM     35  H   UNL     1       1.912  12.058  18.370  0.00  0.00    +0.000 HD
ENDBRANCH  25  34
ENDBRANCH  21  22
BRANCH  21  36
ATOM     36  O   UNL     1       4.184   6.434  19.682  0.00  0.00    +0.000 OA
ATOM     37  H   UNL     1       4.407   6.943  18.891  0.00  0.00    +0.000 HD
ENDBRANCH  21  36
ENDBRANCH  20  21
ENDBRANCH   1  20
TORSDOF 10
ENDMDL
MODEL 2
REMARK VINA RESULT:      -8.5      0.696      1.374
REMARK  Name = 
REMARK  12 active torsions:
REMARK  status: ('A' for Active; 'I' for Inactive)
REMARK    1  A    between atoms: C_1  and  C_2
REMARK    2  A    between atoms: C_2  and  C_3
REMARK    3  A    between atoms: C_2  and  C_4
REMARK    4  A    between atoms: C_2  and  N_18
REMARK    5  A    between atoms: C_4  and  C_5
REMARK    6  A    between atoms: C_5  and  C_6
REMARK    7  A    between atoms: C_5  and  C_12
REMARK    8  A    between atoms: N_18  and  C_19
REMARK    9  A    between atoms: C_19  and  C_20
REMARK   10  A    between atoms: C_20  and  O_21
REMARK   11  A    between atoms: C_20  and  C_22
REMARK   12  A    between atoms: C_25  and  O_26
REMARK                            x       y       z     vdW  Elec       q    Type
REMARK                         _______ _______ _______ _____ _____    ______ ____
ROOT
ATOM      1  N   UNL     1       3.253   5.403  17.781  0.00  0.00    +0.000 NA
ATOM      2  H   UNL     1       2.326   5.575  17.389  0.00  0.00    +0.000 HD
ENDROOT
BRANCH   1   4
ATOM      3  C   UNL     1       2.245   3.145  17.514  0.00  0.00    +0.000 C 
ATOM      4  C   UNL     1       3.537   3.930  17.797  0.00  0.00    +0.000 C 
ATOM      5  C   UNL     1       4.113   3.502  19.164  0.00  0.00    +0.000 C 
BRANCH   4   6
ATOM      6  C   UNL     1       4.608   3.697  16.678  0.00  0.00    +0.000 C 
BRANCH   6   7
ATOM      7  C   UNL     1       5.349   4.923  16.037  0.00  0.00    +0.000 C 
BRANCH   7   8
ATOM      8  C   UNL     1       6.344   5.624  16.956  0.00  0.00    +0.000 A 
ATOM      9  C   UNL     1       7.088   4.915  17.911  0.00  0.00    +0.000 A 
ATOM     10  C   UNL     1       8.002   5.577  18.736  0.00  0.00    +0.000 A 
ATOM     11  C   UNL     1       8.194   6.950  18.612  0.00  0.00    +0.000 A 
ATOM     12  C   UNL     1       7.466   7.669  17.668  0.00  0.00    +0.000 A 
ATOM     13  C   UNL     1       6.549   7.011  16.845  0.00  0.00    +0.000 A 
ENDBRANCH   7   8
BRANCH   7  14
ATOM     14  C   UNL     1       6.010   4.574  14.689  0.00  0.00    +0.000 A 
ATOM     15  C   UNL     1       7.243   5.162  14.348  0.00  0.00    +0.000 A 
ATOM     16  C   UNL     1       7.827   4.941  13.097  0.00  0.00    +0.000 A 
ATOM     17  C   UNL     1       7.192   4.119  12.168  0.00  0.00    +0.000 A 
ATOM     18  C   UNL     1       5.999   3.488  12.506  0.00  0.00    +0.000 A 
ATOM     19  C   UNL     1       5.422   3.701  13.760  0.00  0.00    +0.000 A 
ENDBRANCH   7  14
ENDBRANCH   6   7
ENDBRANCH   4   6
ENDBRANCH   1   4
BRANCH   1  20
ATOM     20  C   UNL     1       3.357   6.072  19.090  0.00  0.00    +0.000 C 
BRANCH  20  21
ATOM     21  C   UNL     1       2.011   6.416  19.799  0.00  0.00    +0.000 C 
BRANCH  21  22
ATOM     22  C   UNL     1       1.557   7.825  19.400  0.00  0.00    +0.000 A 
ATOM     23  C   UNL     1       2.081   8.345  18.191  0.00  0.00    +0.000 A 
ATOM     24  C   UNL     1       1.943   9.698  17.858  0.00  0.00    +0.000 A 
ATOM     25  C   UNL     1       1.344  10.559  18.768  0.00  0.00    +0.000 A 
ATOM     26  C   UNL     1       0.818  10.067  19.960  0.00  0.00    +0.000 A 
ATOM     27  N   UNL     1       0.362  10.976  20.930  0.00  0.00    +0.000 N 
ATOM     28  C   UNL     1      -0.117  10.601  22.153  0.00  0.00    +0.000 A 
ATOM     29  O   UNL     1      -0.330  11.388  23.066  0.00  0.00    +0.000 OA
ATOM     30  C   UNL     1      -0.420   9.159  22.304  0.00  0.00    +0.000 A 
ATOM     31  C   UNL     1       0.019   8.269  21.408  0.00  0.00    +0.000 A 
ATOM     32  C   UNL     1       0.819   8.689  20.243  0.00  0.00    +0.000 A 
ATOM     33  H   UNL     1       0.529  11.960  20.768  0.00  0.00    +0.000 HD
BRANCH  25  34
ATOM     34  O   UNL     1       1.265  11.899  18.516  0.00  0.00    +0.000 OA
ATOM     35  H   UNL     1       2.044  12.161  18.001  0.00  0.00    +0.000 HD
ENDBRANCH  25  34
ENDBRANCH  21  22
BRANCH  21  36
ATOM     36  O   UNL     1       2.062   6.290  21.216  0.00  0.00    +0.000 OA
ATOM     37  H   UNL     1       1.252   6.669  21.584  0.00  0.00    +0.000 HD
ENDBRANCH  21  36
ENDBRANCH  20  21
ENDBRANCH   1  20
TORSDOF 10
ENDMDL
MODEL 3
REMARK VINA RESULT:      -8.4      0.624      3.286
REMARK  Name = 
REMARK  12 active torsions:
REMARK  status: ('A' for Active; 'I' for Inactive)
REMARK    1  A    between atoms: C_1  and  C_2
REMARK    2  A    between atoms: C_2  and  C_3
REMARK    3  A    between atoms: C_2  and  C_4
REMARK    4  A    between atoms: C_2  and  N_18
REMARK    5  A    between atoms: C_4  and  C_5
REMARK    6  A    between atoms: C_5  and  C_6
REMARK    7  A    between atoms: C_5  and  C_12
REMARK    8  A    between atoms: N_18  and  C_19
REMARK    9  A    between atoms: C_19  and  C_20
REMARK   10  A    between atoms: C_20  and  O_21
REMARK   11  A    between atoms: C_20  and  C_22
REMARK   12  A    between atoms: C_25  and  O_26
REMARK                            x       y       z     vdW  Elec       q    Type
REMARK                         _______ _______ _______ _____ _____    ______ ____
ROOT
ATOM      1  N   UNL     1       2.353   4.370  18.079  0.00  0.00    +0.000 NA
ATOM      2  H   UNL     1       1.423   4.043  17.812  0.00  0.00    +0.000 HD
ENDROOT
BRANCH   1   4
ATOM      3  C   UNL     1       2.737   2.214  16.898  0.00  0.00    +0.000 C 
ATOM      4  C   UNL     1       3.400   3.467  17.496  0.00  0.00    +0.000 C 
ATOM      5  C   UNL     1       4.419   3.047  18.577  0.00  0.00    +0.000 C 
BRANCH   4   6
ATOM      6  C   UNL     1       4.121   4.316  16.395  0.00  0.00    +0.000 C 
BRANCH   6   7
ATOM      7  C   UNL     1       5.663   4.146  16.160  0.00  0.00    +0.000 C 
BRANCH   7   8
ATOM      8  C   UNL     1       6.092   4.135  14.695  0.00  0.00    +0.000 A 
ATOM      9  C   UNL     1       7.238   4.816  14.259  0.00  0.00    +0.000 A 
ATOM     10  C   UNL     1       7.617   4.783  12.915  0.00  0.00    +0.000 A 
ATOM     11  C   UNL     1       6.865   4.063  11.990  0.00  0.00    +0.000 A 
ATOM     12  C   UNL     1       5.725   3.380  12.405  0.00  0.00    +0.000 A 
ATOM     13  C   UNL     1       5.342   3.414  13.748  0.00  0.00    +0.000 A 
ENDBRANCH   7   8
BRANCH   7  14
ATOM     14  C   UNL     1       6.499   5.164  16.960  0.00  0.00    +0.000 A 
ATOM     15  C   UNL     1       7.396   4.705  17.943  0.00  0.00    +0.000 A 
ATOM     16  C   UNL     1       8.102   5.603  18.751  0.00  0.00    +0.000 A 
ATOM     17  C   UNL     1       7.930   6.975  18.581  0.00  0.00    +0.000 A 
ATOM     18  C   UNL     1       7.088   7.448  17.580  0.00  0.00    +0.000 A 
ATOM     19  C   UNL     1       6.391   6.551  16.767  0.00  0.00    +0.000 A 
ENDBRANCH   7  14
ENDBRANCH   6   7
ENDBRANCH   4   6
ENDBRANCH   1   4
BRANCH   1  20
ATOM     20  C   UNL     1       2.410   4.526  19.544  0.00  0.00    +0.000 C 
BRANCH  20  21
ATOM     21  C   UNL     1       3.084   5.829  20.073  0.00  0.00    +0.000 C 
BRANCH  21  22
ATOM     22  C   UNL     1       2.477   7.051  19.374  0.00  0.00    +0.000 A 
ATOM     23  C   UNL     1       2.942   7.334  18.066  0.00  0.00    +0.000 A 
ATOM     24  C   UNL     1       2.654   8.551  17.437  0.00  0.00    +0.000 A 
ATOM     25  C   UNL     1       1.961   9.526  18.140  0.00  0.00    +0.000 A 
ATOM     26  C   UNL     1       1.491   9.267  19.426  0.00  0.00    +0.000 A 
ATOM     27  N   UNL     1       0.934  10.319  20.173  0.00  0.00    +0.000 N 
ATOM     28  C   UNL     1       0.498  10.184  21.460  0.00  0.00    +0.000 A 
ATOM     29  O   UNL     1       0.196  11.131  22.175  0.00  0.00    +0.000 OA
ATOM     30  C   UNL     1       0.357   8.791  21.943  0.00  0.00    +0.000 A 
ATOM     31  C   UNL     1       0.895   7.772  21.263  0.00  0.00    +0.000 A 
ATOM     32  C   UNL     1       1.645   7.999  20.015  0.00  0.00    +0.000 A 
ATOM     33  H   UNL     1       0.991  11.251  19.787  0.00  0.00    +0.000 HD
BRANCH  25  34
ATOM     34  O   UNL     1       1.734  10.757  17.592  0.00  0.00    +0.000 OA
ATOM     35  H   UNL     1       1.639  10.652  16.633  0.00  0.00    +0.000 HD
ENDBRANCH  25  34
ENDBRANCH  21  22
BRANCH  21  36
ATOM     36  O   UNL     1       4.502   5.832  19.943  0.00  0.00    +0.000 OA
ATOM     37  H   UNL     1       4.882   5.459  20.750  0.00  0.00    +0.000 HD
ENDBRANCH  21  36
ENDBRANCH  20  21
ENDBRANCH   1  20
TORSDOF 10
ENDMDL
MODEL 4
REMARK VINA RESULT:      -8.3      2.835      8.515
REMARK  Name = 
REMARK  12 active torsions:
REMARK  status: ('A' for Active; 'I' for Inactive)
REMARK    1  A    between atoms: C_1  and  C_2
REMARK    2  A    between atoms: C_2  and  C_3
REMARK    3  A    between atoms: C_2  and  C_4
REMARK    4  A    between atoms: C_2  and  N_18
REMARK    5  A    between atoms: C_4  and  C_5
REMARK    6  A    between atoms: C_5  and  C_6
REMARK    7  A    between atoms: C_5  and  C_12
REMARK    8  A    between atoms: N_18  and  C_19
REMARK    9  A    between atoms: C_19  and  C_20
REMARK   10  A    between atoms: C_20  and  O_21
REMARK   11  A    between atoms: C_20  and  C_22
REMARK   12  A    between atoms: C_25  and  O_26
REMARK                            x       y       z     vdW  Elec       q    Type
REMARK                         _______ _______ _______ _____ _____    ______ ____
ROOT
ATOM      1  N   UNL     1       1.601   7.264  20.712  0.00  0.00    +0.000 NA
ATOM      2  H   UNL     1       0.913   6.580  20.394  0.00  0.00    +0.000 HD
ENDROOT
BRANCH   1   4
ATOM      3  C   UNL     1       1.635   9.120  22.369  0.00  0.00    +0.000 C 
ATOM      4  C   UNL     1       0.908   8.521  21.153  0.00  0.00    +0.000 C 
ATOM      5  C   UNL     1      -0.562   8.230  21.521  0.00  0.00    +0.000 C 
BRANCH   4   6
ATOM      6  C   UNL     1       0.962   9.485  19.920  0.00  0.00    +0.000 C 
BRANCH   6   7
ATOM      7  C   UNL     1       0.189  10.850  19.959  0.00  0.00    +0.000 C 
BRANCH   7   8
ATOM      8  C   UNL     1       1.055  12.085  19.729  0.00  0.00    +0.000 A 
ATOM      9  C   UNL     1       1.811  12.246  18.558  0.00  0.00    +0.000 A 
ATOM     10  C   UNL     1       2.589  13.390  18.364  0.00  0.00    +0.000 A 
ATOM     11  C   UNL     1       2.615  14.394  19.328  0.00  0.00    +0.000 A 
ATOM     12  C   UNL     1       1.870  14.252  20.496  0.00  0.00    +0.000 A 
ATOM     13  C   UNL     1       1.094  13.108  20.694  0.00  0.00    +0.000 A 
ENDBRANCH   7   8
BRANCH   7  14
ATOM     14  C   UNL     1      -1.033  10.865  19.021  0.00  0.00    +0.000 A 
ATOM     15  C   UNL     1      -1.055  10.018  17.896  0.00  0.00    +0.000 A 
ATOM     16  C   UNL     1      -2.105  10.071  16.974  0.00  0.00    +0.000 A 
ATOM     17  C   UNL     1      -3.158  10.964  17.166  0.00  0.00    +0.000 A 
ATOM     18  C   UNL     1      -3.180  11.771  18.299  0.00  0.00    +0.000 A 
ATOM     19  C   UNL     1      -2.136  11.710  19.226  0.00  0.00    +0.000 A 
ENDBRANCH   7  14
ENDBRANCH   6   7
ENDBRANCH   4   6
ENDBRANCH   1   4
BRANCH   1  20
ATOM     20  C   UNL     1       2.621   7.450  19.664  0.00  0.00    +0.000 C 
BRANCH  20  21
ATOM     21  C   UNL     1       2.198   7.063  18.214  0.00  0.00    +0.000 C 
BRANCH  21  22
ATOM     22  C   UNL     1       2.773   5.689  17.852  0.00  0.00    +0.000 A 
ATOM     23  C   UNL     1       1.866   4.601  17.843  0.00  0.00    +0.000 A 
ATOM     24  C   UNL     1       2.315   3.276  17.780  0.00  0.00    +0.000 A 
ATOM     25  C   UNL     1       3.680   3.026  17.800  0.00  0.00    +0.000 A 
ATOM     26  C   UNL     1       4.590   4.082  17.805  0.00  0.00    +0.000 A 
ATOM     27  N   UNL     1       5.955   3.804  17.986  0.00  0.00    +0.000 N 
ATOM     28  C   UNL     1       6.919   4.768  18.063  0.00  0.00    +0.000 A 
ATOM     29  O   UNL     1       8.072   4.546  18.413  0.00  0.00    +0.000 OA
ATOM     30  C   UNL     1       6.500   6.125  17.643  0.00  0.00    +0.000 A 
ATOM     31  C   UNL     1       5.206   6.423  17.484  0.00  0.00    +0.000 A 
ATOM     32  C   UNL     1       4.155   5.417  17.721  0.00  0.00    +0.000 A 
ATOM     33  H   UNL     1       6.216   2.853  18.211  0.00  0.00    +0.000 HD
BRANCH  25  34
ATOM     34  O   UNL     1       4.157   1.746  17.825  0.00  0.00    +0.000 OA
ATOM     35  H   UNL     1       4.865   1.695  18.486  0.00  0.00    +0.000 HD
ENDBRANCH  25  34
ENDBRANCH  21  22
BRANCH  21  36
ATOM     36  O   UNL     1       2.562   8.031  17.235  0.00  0.00    +0.000 OA
ATOM     37  H   UNL     1       3.498   8.243  17.351  0.00  0.00    +0.000 HD
ENDBRANCH  21  36
ENDBRANCH  20  21
ENDBRANCH   1  20
TORSDOF 10
ENDMDL
MODEL 5
REMARK VINA RESULT:      -8.1      0.999      1.395
REMARK  Name = 
REMARK  12 active torsions:
REMARK  status: ('A' for Active; 'I' for Inactive)
REMARK    1  A    between atoms: C_1  and  C_2
REMARK    2  A    between atoms: C_2  and  C_3
REMARK    3  A    between atoms: C_2  and  C_4
REMARK    4  A    between atoms: C_2  and  N_18
REMARK    5  A    between atoms: C_4  and  C_5
REMARK    6  A    between atoms: C_5  and  C_6
REMARK    7  A    between atoms: C_5  and  C_12
REMARK    8  A    between atoms: N_18  and  C_19
REMARK    9  A    between atoms: C_19  and  C_20
REMARK   10  A    between atoms: C_20  and  O_21
REMARK   11  A    between atoms: C_20  and  C_22
REMARK   12  A    between atoms: C_25  and  O_26
REMARK                            x       y       z     vdW  Elec       q    Type
REMARK                         _______ _______ _______ _____ _____    ______ ____
ROOT
ATOM      1  N   UNL     1       3.549   5.952  18.122  0.00  0.00    +0.000 NA
ATOM      2  H   UNL     1       4.222   6.325  17.451  0.00  0.00    +0.000 HD
ENDROOT
BRANCH   1   4
ATOM      3  C   UNL     1       1.957   4.129  17.547  0.00  0.00    +0.000 C 
ATOM      4  C   UNL     1       3.406   4.470  17.935  0.00  0.00    +0.000 C 
ATOM      5  C   UNL     1       3.784   3.720  19.230  0.00  0.00    +0.000 C 
BRANCH   4   6
ATOM      6  C   UNL     1       4.410   4.091  16.795  0.00  0.00    +0.000 C 
BRANCH   6   7
ATOM      7  C   UNL     1       5.276   5.209  16.112  0.00  0.00    +0.000 C 
BRANCH   7   8
ATOM      8  C   UNL     1       6.341   5.833  17.009  0.00  0.00    +0.000 A 
ATOM      9  C   UNL     1       6.670   7.194  16.923  0.00  0.00    +0.000 A 
ATOM     10  C   UNL     1       7.641   7.747  17.762  0.00  0.00    +0.000 A 
ATOM     11  C   UNL     1       8.289   6.953  18.705  0.00  0.00    +0.000 A 
ATOM     12  C   UNL     1       7.974   5.600  18.806  0.00  0.00    +0.000 A 
ATOM     13  C   UNL     1       7.006   5.044  17.966  0.00  0.00    +0.000 A 
ENDBRANCH   7   8
BRANCH   7  14
ATOM     14  C   UNL     1       5.896   4.745  14.780  0.00  0.00    +0.000 A 
ATOM     15  C   UNL     1       7.142   5.262  14.376  0.00  0.00    +0.000 A 
ATOM     16  C   UNL     1       7.691   4.934  13.133  0.00  0.00    +0.000 A 
ATOM     17  C   UNL     1       7.008   4.074  12.275  0.00  0.00    +0.000 A 
ATOM     18  C   UNL     1       5.800   3.512  12.677  0.00  0.00    +0.000 A 
ATOM     19  C   UNL     1       5.258   3.832  13.924  0.00  0.00    +0.000 A 
ENDBRANCH   7  14
ENDBRANCH   6   7
ENDBRANCH   4   6
ENDBRANCH   1   4
BRANCH   1  20
ATOM     20  C   UNL     1       2.293   6.716  18.025  0.00  0.00    +0.000 C 
BRANCH  20  21
ATOM     21  C   UNL     1       1.756   7.333  19.353  0.00  0.00    +0.000 C 
BRANCH  21  22
ATOM     22  C   UNL     1       1.419   8.813  19.141  0.00  0.00    +0.000 A 
ATOM     23  C   UNL     1       2.058   9.464  18.057  0.00  0.00    +0.000 A 
ATOM     24  C   UNL     1       2.028  10.857  17.921  0.00  0.00    +0.000 A 
ATOM     25  C   UNL     1       1.420  11.618  18.910  0.00  0.00    +0.000 A 
ATOM     26  C   UNL     1       0.781  10.998  19.982  0.00  0.00    +0.000 A 
ATOM     27  N   UNL     1       0.314  11.788  21.047  0.00  0.00    +0.000 N 
ATOM     28  C   UNL     1      -0.272  11.275  22.168  0.00  0.00    +0.000 A 
ATOM     29  O   UNL     1      -0.501  11.936  23.174  0.00  0.00    +0.000 OA
ATOM     30  C   UNL     1      -0.673   9.852  22.085  0.00  0.00    +0.000 A 
ATOM     31  C   UNL     1      -0.227   9.072  21.094  0.00  0.00    +0.000 A 
ATOM     32  C   UNL     1       0.677   9.597  20.056  0.00  0.00    +0.000 A 
ATOM     33  H   UNL     1       0.553  12.770  21.043  0.00  0.00    +0.000 HD
BRANCH  25  34
ATOM     34  O   UNL     1       1.442  12.983  18.857  0.00  0.00    +0.000 OA
ATOM     35  H   UNL     1       0.864  13.326  19.555  0.00  0.00    +0.000 HD
ENDBRANCH  25  34
ENDBRANCH  21  22
BRANCH  21  36
ATOM     36  O   UNL     1       2.641   7.175  20.456  0.00  0.00    +0.000 OA
ATOM     37  H   UNL     1       3.136   6.353  20.333  0.00  0.00    +0.000 HD
ENDBRANCH  21  36
ENDBRANCH  20  21
ENDBRANCH   1  20
TORSDOF 10
ENDMDL
MODEL 6
REMARK VINA RESULT:      -8.0      3.305      9.688
REMARK  Name = 
REMARK  12 active torsions:
REMARK  status: ('A' for Active; 'I' for Inactive)
REMARK    1  A    between atoms: C_1  and  C_2
REMARK    2  A    between atoms: C_2  and  C_3
REMARK    3  A    between atoms: C_2  and  C_4
REMARK    4  A    between atoms: C_2  and  N_18
REMARK    5  A    between atoms: C_4  and  C_5
REMARK    6  A    between atoms: C_5  and  C_6
REMARK    7  A    between atoms: C_5  and  C_12
REMARK    8  A    between atoms: N_18  and  C_19
REMARK    9  A    between atoms: C_19  and  C_20
REMARK   10  A    between atoms: C_20  and  O_21
REMARK   11  A    between atoms: C_20  and  C_22
REMARK   12  A    between atoms: C_25  and  O_26
REMARK                            x       y       z     vdW  Elec       q    Type
REMARK                         _______ _______ _______ _____ _____    ______ ____
ROOT
ATOM      1  N   UNL     1       1.861   9.559  18.178  0.00  0.00    +0.000 NA
ATOM      2  H   UNL     1       2.722   9.815  18.661  0.00  0.00    +0.000 HD
ENDROOT
BRANCH   1   4
ATOM      3  C   UNL     1       0.374   9.589  20.172  0.00  0.00    +0.000 C 
ATOM      4  C   UNL     1       0.690  10.246  18.817  0.00  0.00    +0.000 C 
ATOM      5  C   UNL     1      -0.552  10.169  17.903  0.00  0.00    +0.000 C 
BRANCH   4   6
ATOM      6  C   UNL     1       1.124  11.740  18.992  0.00  0.00    +0.000 C 
BRANCH   6   7
ATOM      7  C   UNL     1       0.034  12.865  19.095  0.00  0.00    +0.000 C 
BRANCH   7   8
ATOM      8  C   UNL     1      -0.798  12.837  20.373  0.00  0.00    +0.000 A 
ATOM      9  C   UNL     1      -0.214  13.022  21.635  0.00  0.00    +0.000 A 
ATOM     10  C   UNL     1      -0.998  13.003  22.792  0.00  0.00    +0.000 A 
ATOM     11  C   UNL     1      -2.374  12.810  22.705  0.00  0.00    +0.000 A 
ATOM     12  C   UNL     1      -2.971  12.626  21.461  0.00  0.00    +0.000 A 
ATOM     13  C   UNL     1      -2.190  12.641  20.303  0.00  0.00    +0.000 A 
ENDBRANCH   7   8
BRANCH   7  14
ATOM     14  C   UNL     1       0.614  14.273  18.858  0.00  0.00    +0.000 A 
ATOM     15  C   UNL     1      -0.253  15.382  18.807  0.00  0.00    +0.000 A 
ATOM     16  C   UNL     1       0.227  16.659  18.503  0.00  0.00    +0.000 A 
ATOM     17  C   UNL     1       1.585  16.853  18.255  0.00  0.00    +0.000 A 
ATOM     18  C   UNL     1       2.464  15.780  18.352  0.00  0.00    +0.000 A 
ATOM     19  C   UNL     1       1.986  14.506  18.666  0.00  0.00    +0.000 A 
ENDBRANCH   7  14
ENDBRANCH   6   7
ENDBRANCH   4   6
ENDBRANCH   1   4
BRANCH   1  20
ATOM     20  C   UNL     1       1.761   8.090  18.111  0.00  0.00    +0.000 C 
BRANCH  20  21
ATOM     21  C   UNL     1       2.796   7.288  18.959  0.00  0.00    +0.000 C 
BRANCH  21  22
ATOM     22  C   UNL     1       3.078   5.936  18.295  0.00  0.00    +0.000 A 
ATOM     23  C   UNL     1       2.076   4.943  18.419  0.00  0.00    +0.000 A 
ATOM     24  C   UNL     1       2.326   3.608  18.081  0.00  0.00    +0.000 A 
ATOM     25  C   UNL     1       3.604   3.241  17.684  0.00  0.00    +0.000 A 
ATOM     26  C   UNL     1       4.604   4.202  17.551  0.00  0.00    +0.000 A 
ATOM     27  N   UNL     1       5.923   3.785  17.304  0.00  0.00    +0.000 N 
ATOM     28  C   UNL     1       6.982   4.642  17.215  0.00  0.00    +0.000 A 
ATOM     29  O   UNL     1       8.150   4.273  17.195  0.00  0.00    +0.000 OA
ATOM     30  C   UNL     1       6.635   6.076  17.089  0.00  0.00    +0.000 A 
ATOM     31  C   UNL     1       5.392   6.504  17.338  0.00  0.00    +0.000 A 
ATOM     32  C   UNL     1       4.330   5.568  17.747  0.00  0.00    +0.000 A 
ATOM     33  H   UNL     1       6.116   2.793  17.336  0.00  0.00    +0.000 HD
BRANCH  25  34
ATOM     34  O   UNL     1       3.909   1.934  17.426  0.00  0.00    +0.000 OA
ATOM     35  H   UNL     1       4.870   1.823  17.500  0.00  0.00    +0.000 HD
ENDBRANCH  25  34
ENDBRANCH  21  22
BRANCH  21  36
ATOM     36  O   UNL     1       2.405   7.107  20.316  0.00  0.00    +0.000 OA
ATOM     37  H   UNL     1       2.394   6.159  20.506  0.00  0.00    +0.000 HD
ENDBRANCH  21  36
ENDBRANCH  20  21
ENDBRANCH   1  20
TORSDOF 10
ENDMDL
MODEL 7
REMARK VINA RESULT:      -8.0      2.538      5.611
REMARK  Name = 
REMARK  12 active torsions:
REMARK  status: ('A' for Active; 'I' for Inactive)
REMARK    1  A    between atoms: C_1  and  C_2
REMARK    2  A    between atoms: C_2  and  C_3
REMARK    3  A    between atoms: C_2  and  C_4
REMARK    4  A    between atoms: C_2  and  N_18
REMARK    5  A    between atoms: C_4  and  C_5
REMARK    6  A    between atoms: C_5  and  C_6
REMARK    7  A    between atoms: C_5  and  C_12
REMARK    8  A    between atoms: N_18  and  C_19
REMARK    9  A    between atoms: C_19  and  C_20
REMARK   10  A    between atoms: C_20  and  O_21
REMARK   11  A    between atoms: C_20  and  C_22
REMARK   12  A    between atoms: C_25  and  O_26
REMARK                            x       y       z     vdW  Elec       q    Type
REMARK                         _______ _______ _______ _____ _____    ______ ____
ROOT
ATOM      1  N   UNL     1       1.663   8.815  19.907  0.00  0.00    +0.000 NA
ATOM      2  H   UNL     1       2.371   9.432  20.306  0.00  0.00    +0.000 HD
ENDROOT
BRANCH   1   4
ATOM      3  C   UNL     1       2.547  10.135  17.992  0.00  0.00    +0.000 C 
ATOM      4  C   UNL     1       1.611   8.990  18.417  0.00  0.00    +0.000 C 
ATOM      5  C   UNL     1       0.172   9.301  17.956  0.00  0.00    +0.000 C 
BRANCH   4   6
ATOM      6  C   UNL     1       2.073   7.619  17.817  0.00  0.00    +0.000 C 
BRANCH   6   7
ATOM      7  C   UNL     1       2.906   6.621  18.696  0.00  0.00    +0.000 C 
BRANCH   7   8
ATOM      8  C   UNL     1       2.180   5.330  19.065  0.00  0.00    +0.000 A 
ATOM      9  C   UNL     1       1.832   5.036  20.391  0.00  0.00    +0.000 A 
ATOM     10  C   UNL     1       1.158   3.853  20.705  0.00  0.00    +0.000 A 
ATOM     11  C   UNL     1       0.813   2.953  19.699  0.00  0.00    +0.000 A 
ATOM     12  C   UNL     1       1.149   3.230  18.376  0.00  0.00    +0.000 A 
ATOM     13  C   UNL     1       1.826   4.410  18.061  0.00  0.00    +0.000 A 
ENDBRANCH   7   8
BRANCH   7  14
ATOM     14  C   UNL     1       4.287   6.309  18.087  0.00  0.00    +0.000 A 
ATOM     15  C   UNL     1       4.587   6.749  16.784  0.00  0.00    +0.000 A 
ATOM     16  C   UNL     1       5.794   6.406  16.166  0.00  0.00    +0.000 A 
ATOM     17  C   UNL     1       6.727   5.625  16.846  0.00  0.00    +0.000 A 
ATOM     18  C   UNL     1       6.471   5.224  18.153  0.00  0.00    +0.000 A 
ATOM     19  C   UNL     1       5.269   5.576  18.773  0.00  0.00    +0.000 A 
ENDBRANCH   7  14
ENDBRANCH   6   7
ENDBRANCH   4   6
ENDBRANCH   1   4
BRANCH   1  20
ATOM     20  C   UNL     1       0.383   9.031  20.604  0.00  0.00    +0.000 C 
BRANCH  20  21
ATOM     21  C   UNL     1       0.476   9.495  22.090  0.00  0.00    +0.000 C 
BRANCH  21  22
ATOM     22  C   UNL     1      -0.284  10.812  22.274  0.00  0.00    +0.000 A 
ATOM     23  C   UNL     1      -1.372  10.800  23.182  0.00  0.00    +0.000 A 
ATOM     24  C   UNL     1      -2.287  11.858  23.239  0.00  0.00    +0.000 A 
ATOM     25  C   UNL     1      -2.164  12.905  22.337  0.00  0.00    +0.000 A 
ATOM     26  C   UNL     1      -1.099  12.940  21.440  0.00  0.00    +0.000 A 
ATOM     27  N   UNL     1      -1.085  13.923  20.436  0.00  0.00    +0.000 N 
ATOM     28  C   UNL     1      -0.120  14.008  19.474  0.00  0.00    +0.000 A 
ATOM     29  O   UNL     1      -0.206  14.734  18.491  0.00  0.00    +0.000 OA
ATOM     30  C   UNL     1       1.093  13.193  19.713  0.00  0.00    +0.000 A 
ATOM     31  C   UNL     1       1.101  12.236  20.647  0.00  0.00    +0.000 A 
ATOM     32  C   UNL     1      -0.091  11.959  21.468  0.00  0.00    +0.000 A 
ATOM     33  H   UNL     1      -1.905  14.507  20.339  0.00  0.00    +0.000 HD
BRANCH  25  34
ATOM     34  O   UNL     1      -3.084  13.914  22.306  0.00  0.00    +0.000 OA
ATOM     35  H   UNL     1      -3.492  13.985  23.183  0.00  0.00    +0.000 HD
ENDBRANCH  25  34
ENDBRANCH  21  22
BRANCH  21  36
ATOM     36  O   UNL     1       1.812   9.617  22.568  0.00  0.00    +0.000 OA
ATOM     37  H   UNL     1       1.813  10.233  23.313  0.00  0.00    +0.000 HD
ENDBRANCH  21  36
ENDBRANCH  20  21
ENDBRANCH   1  20
TORSDOF 10
ENDMDL
MODEL 8
REMARK VINA RESULT:      -8.0      3.286      9.692
REMARK  Name = 
REMARK  12 active torsions:
REMARK  status: ('A' for Active; 'I' for Inactive)
REMARK    1  A    between atoms: C_1  and  C_2
REMARK    2  A    between atoms: C_2  and  C_3
REMARK    3  A    between atoms: C_2  and  C_4
REMARK    4  A    between atoms: C_2  and  N_18
REMARK    5  A    between atoms: C_4  and  C_5
REMARK    6  A    between atoms: C_5  and  C_6
REMARK    7  A    between atoms: C_5  and  C_12
REMARK    8  A    between atoms: N_18  and  C_19
REMARK    9  A    between atoms: C_19  and  C_20
REMARK   10  A    between atoms: C_20  and  O_21
REMARK   11  A    between atoms: C_20  and  C_22
REMARK   12  A    between atoms: C_25  and  O_26
REMARK                            x       y       z     vdW  Elec       q    Type
REMARK                         _______ _______ _______ _____ _____    ______ ____
ROOT
ATOM      1  N   UNL     1       1.937   9.527  18.313  0.00  0.00    +0.000 NA
ATOM      2  H   UNL     1       2.765   9.752  18.867  0.00  0.00    +0.000 HD
ENDROOT
BRANCH   1   4
ATOM      3  C   UNL     1       0.392   9.559  20.263  0.00  0.00    +0.000 C 
ATOM      4  C   UNL     1       0.729  10.195  18.903  0.00  0.00    +0.000 C 
ATOM      5  C   UNL     1      -0.483  10.061  17.956  0.00  0.00    +0.000 C 
BRANCH   4   6
ATOM      6  C   UNL     1       1.116  11.705  19.056  0.00  0.00    +0.000 C 
BRANCH   6   7
ATOM      7  C   UNL     1      -0.007  12.801  19.090  0.00  0.00    +0.000 C 
BRANCH   7   8
ATOM      8  C   UNL     1      -0.863  12.803  20.353  0.00  0.00    +0.000 A 
ATOM      9  C   UNL     1      -2.253  12.623  20.300  0.00  0.00    +0.000 A 
ATOM     10  C   UNL     1      -3.016  12.619  21.471  0.00  0.00    +0.000 A 
ATOM     11  C   UNL     1      -2.402  12.782  22.710  0.00  0.00    +0.000 A 
ATOM     12  C   UNL     1      -1.023  12.960  22.782  0.00  0.00    +0.000 A 
ATOM     13  C   UNL     1      -0.259  12.969  21.613  0.00  0.00    +0.000 A 
ENDBRANCH   7   8
BRANCH   7  14
ATOM     14  C   UNL     1       0.537  14.213  18.803  0.00  0.00    +0.000 A 
ATOM     15  C   UNL     1       1.919  14.399  18.609  0.00  0.00    +0.000 A 
ATOM     16  C   UNL     1       2.458  15.678  18.439  0.00  0.00    +0.000 A 
ATOM     17  C   UNL     1       1.623  16.793  18.447  0.00  0.00    +0.000 A 
ATOM     18  C   UNL     1       0.249  16.626  18.585  0.00  0.00    +0.000 A 
ATOM     19  C   UNL     1      -0.290  15.347  18.745  0.00  0.00    +0.000 A 
ENDBRANCH   7  14
ENDBRANCH   6   7
ENDBRANCH   4   6
ENDBRANCH   1   4
BRANCH   1  20
ATOM     20  C   UNL     1       1.833   8.064  18.170  0.00  0.00    +0.000 C 
BRANCH  20  21
ATOM     21  C   UNL     1       2.810   7.214  19.039  0.00  0.00    +0.000 C 
BRANCH  21  22
ATOM     22  C   UNL     1       3.085   5.872  18.352  0.00  0.00    +0.000 A 
ATOM     23  C   UNL     1       2.093   4.870  18.488  0.00  0.00    +0.000 A 
ATOM     24  C   UNL     1       2.343   3.541  18.127  0.00  0.00    +0.000 A 
ATOM     25  C   UNL     1       3.614   3.188  17.695  0.00  0.00    +0.000 A 
ATOM     26  C   UNL     1       4.603   4.158  17.549  0.00  0.00    +0.000 A 
ATOM     27  N   UNL     1       5.918   3.753  17.265  0.00  0.00    +0.000 N 
ATOM     28  C   UNL     1       6.970   4.618  17.160  0.00  0.00    +0.000 A 
ATOM     29  O   UNL     1       8.139   4.258  17.107  0.00  0.00    +0.000 OA
ATOM     30  C   UNL     1       6.610   6.051  17.060  0.00  0.00    +0.000 A 
ATOM     31  C   UNL     1       5.371   6.467  17.345  0.00  0.00    +0.000 A 
ATOM     32  C   UNL     1       4.325   5.519  17.768  0.00  0.00    +0.000 A 
ATOM     33  H   UNL     1       6.119   2.762  17.280  0.00  0.00    +0.000 HD
BRANCH  25  34
ATOM     34  O   UNL     1       3.921   1.887  17.414  0.00  0.00    +0.000 OA
ATOM     35  H   UNL     1       3.593   1.679  16.525  0.00  0.00    +0.000 HD
ENDBRANCH  25  34
ENDBRANCH  21  22
BRANCH  21  36
ATOM     36  O   UNL     1       2.357   7.009  20.373  0.00  0.00    +0.000 OA
ATOM     37  H   UNL     1       1.939   7.825  20.681  0.00  0.00    +0.000 HD
ENDBRANCH  21  36
ENDBRANCH  20  21
ENDBRANCH   1  20
TORSDOF 10
ENDMDL
MODEL 9
REMARK VINA RESULT:      -8.0      2.560      5.614
REMARK  Name = 
REMARK  12 active torsions:
REMARK  status: ('A' for Active; 'I' for Inactive)
REMARK    1  A    between atoms: C_1  and  C_2
REMARK    2  A    between atoms: C_2  and  C_3
REMARK    3  A    between atoms: C_2  and  C_4
REMARK    4  A    between atoms: C_2  and  N_18
REMARK    5  A    between atoms: C_4  and  C_5
REMARK    6  A    between atoms: C_5  and  C_6
REMARK    7  A    between atoms: C_5  and  C_12
REMARK    8  A    between atoms: N_18  and  C_19
REMARK    9  A    between atoms: C_19  and  C_20
REMARK   10  A    between atoms: C_20  and  O_21
REMARK   11  A    between atoms: C_20  and  C_22
REMARK   12  A    between atoms: C_25  and  O_26
REMARK                            x       y       z     vdW  Elec       q    Type
REMARK                         _______ _______ _______ _____ _____    ______ ____
ROOT
ATOM      1  N   UNL     1       1.684   8.782  19.896  0.00  0.00    +0.000 NA
ATOM      2  H   UNL     1       2.402   9.385  20.301  0.00  0.00    +0.000 HD
ENDROOT
BRANCH   1   4
ATOM      3  C   UNL     1       2.518  10.168  18.006  0.00  0.00    +0.000 C 
ATOM      4  C   UNL     1       1.626   8.982  18.409  0.00  0.00    +0.000 C 
ATOM      5  C   UNL     1       0.175   9.248  17.954  0.00  0.00    +0.000 C 
BRANCH   4   6
ATOM      6  C   UNL     1       2.137   7.640  17.785  0.00  0.00    +0.000 C 
BRANCH   6   7
ATOM      7  C   UNL     1       2.934   6.619  18.670  0.00  0.00    +0.000 C 
BRANCH   7   8
ATOM      8  C   UNL     1       2.183   5.332  19.001  0.00  0.00    +0.000 A 
ATOM      9  C   UNL     1       1.901   4.372  18.018  0.00  0.00    +0.000 A 
ATOM     10  C   UNL     1       1.220   3.196  18.345  0.00  0.00    +0.000 A 
ATOM     11  C   UNL     1       0.822   2.958  19.658  0.00  0.00    +0.000 A 
ATOM     12  C   UNL     1       1.095   3.899  20.647  0.00  0.00    +0.000 A 
ATOM     13  C   UNL     1       1.772   5.077  20.322  0.00  0.00    +0.000 A 
ENDBRANCH   7   8
BRANCH   7  14
ATOM     14  C   UNL     1       4.327   6.298  18.094  0.00  0.00    +0.000 A 
ATOM     15  C   UNL     1       5.277   5.640  18.898  0.00  0.00    +0.000 A 
ATOM     16  C   UNL     1       6.579   5.416  18.440  0.00  0.00    +0.000 A 
ATOM     17  C   UNL     1       6.951   5.836  17.164  0.00  0.00    +0.000 A 
ATOM     18  C   UNL     1       6.011   6.440  16.335  0.00  0.00    +0.000 A 
ATOM     19  C   UNL     1       4.708   6.655  16.790  0.00  0.00    +0.000 A 
ENDBRANCH   7  14
ENDBRANCH   6   7
ENDBRANCH   4   6
ENDBRANCH   1   4
BRANCH   1  20
ATOM     20  C   UNL     1       0.411   9.000  20.605  0.00  0.00    +0.000 C 
BRANCH  20  21
ATOM     21  C   UNL     1       0.519   9.468  22.089  0.00  0.00    +0.000 C 
BRANCH  21  22
ATOM     22  C   UNL     1      -0.250  10.780  22.279  0.00  0.00    +0.000 A 
ATOM     23  C   UNL     1      -1.340  10.755  23.184  0.00  0.00    +0.000 A 
ATOM     24  C   UNL     1      -2.261  11.807  23.246  0.00  0.00    +0.000 A 
ATOM     25  C   UNL     1      -2.143  12.861  22.350  0.00  0.00    +0.000 A 
ATOM     26  C   UNL     1      -1.077  12.907  21.454  0.00  0.00    +0.000 A 
ATOM     27  N   UNL     1      -1.067  13.896  20.456  0.00  0.00    +0.000 N 
ATOM     28  C   UNL     1      -0.101  13.992  19.496  0.00  0.00    +0.000 A 
ATOM     29  O   UNL     1      -0.190  14.723  18.517  0.00  0.00    +0.000 OA
ATOM     30  C   UNL     1       1.116  13.182  19.733  0.00  0.00    +0.000 A 
ATOM     31  C   UNL     1       1.129  12.221  20.662  0.00  0.00    +0.000 A 
ATOM     32  C   UNL     1      -0.063  11.932  21.479  0.00  0.00    +0.000 A 
ATOM     33  H   UNL     1      -1.891  14.475  20.360  0.00  0.00    +0.000 HD
BRANCH  25  34
ATOM     34  O   UNL     1      -3.070  13.864  22.323  0.00  0.00    +0.000 OA
ATOM     35  H   UNL     1      -3.795  13.596  21.737  0.00  0.00    +0.000 HD
ENDBRANCH  25  34
ENDBRANCH  21  22
BRANCH  21  36
ATOM     36  O   UNL     1       1.858   9.602  22.550  0.00  0.00    +0.000 OA
ATOM     37  H   UNL     1       1.873   9.420  23.500  0.00  0.00    +0.000 HD
ENDBRANCH  21  36
ENDBRANCH  20  21
ENDBRANCH   1  20
TORSDOF 10
ENDMDL
