MODEL 1
REMARK VINA RESULT:      -9.1      0.000      0.000
REMARK  Name = 
REMARK  6 active torsions:
REMARK  status: ('A' for Active; 'I' for Inactive)
REMARK    1  A    between atoms: C_1  and  C_2
REMARK    2  A    between atoms: C_2  and  N_3
REMARK    3  A    between atoms: C_7  and  C_8
REMARK    4  A    between atoms: C_8  and  N_9
REMARK    5  A    between atoms: C_10  and  C_12
REMARK    6  A    between atoms: C_22  and  C_23
REMARK                            x       y       z     vdW  Elec       q    Type
REMARK                         _______ _______ _______ _____ _____    ______ ____
ROOT
ATOM      1  C   UNL     1      -0.599  10.894  22.165  0.00  0.00    +0.000 A 
ATOM      2  C   UNL     1      -0.441   9.735  22.931  0.00  0.00    +0.000 A 
ATOM      3  C   UNL     1       0.260   8.642  22.415  0.00  0.00    +0.000 A 
ATOM      4  C   UNL     1       0.823   8.693  21.133  0.00  0.00    +0.000 A 
ATOM      5  C   UNL     1       0.683   9.860  20.379  0.00  0.00    +0.000 A 
ATOM      6  C   UNL     1      -0.023  10.957  20.891  0.00  0.00    +0.000 A 
ATOM      7  N   UNL     1       1.248   9.983  19.106  0.00  0.00    +0.000 N 
ATOM      8  C   UNL     1       1.926   9.037  18.394  0.00  0.00    +0.000 C 
ATOM      9  O   UNL     1       2.351   9.352  17.280  0.00  0.00    +0.000 OA
ATOM     10  C   UNL     1       2.107   7.655  18.945  0.00  0.00    +0.000 C 
ATOM     11  C   UNL     1       2.608   6.735  18.094  0.00  0.00    +0.000 C 
ATOM     12  S   UNL     1       1.707   7.270  20.578  0.00  0.00    +0.000 S 
ATOM     13  H   UNL     1       1.165  10.864  18.613  0.00  0.00    +0.000 HD
ENDROOT
BRANCH  11  14
ATOM     14  C   UNL     1       2.820   5.316  18.409  0.00  0.00    +0.000 A 
ATOM     15  C   UNL     1       3.936   4.917  19.149  0.00  0.00    +0.000 A 
ATOM     16  F   UNL     1       4.797   5.833  19.618  0.00  0.00    +0.000 F 
ATOM     17  C   UNL     1       4.190   3.571  19.410  0.00  0.00    +0.000 A 
ATOM     18  C   UNL     1       3.318   2.595  18.929  0.00  0.00    +0.000 A 
ATOM     19  C   UNL     1       2.193   2.975  18.197  0.00  0.00    +0.000 A 
ATOM     20  C   UNL     1       1.952   4.326  17.944  0.00  0.00    +0.000 A 
ATOM     21  F   UNL     1       0.866   4.659  17.229  0.00  0.00    +0.000 F 
ENDBRANCH  11  14
BRANCH   1  23
ATOM     22  N   UNL     1      -2.618  11.748  23.243  0.00  0.00    +0.000 N 
ATOM     23  C   UNL     1      -1.358  12.027  22.763  0.00  0.00    +0.000 C 
ATOM     24  O   UNL     1      -0.831  13.131  22.843  0.00  0.00    +0.000 OA
ATOM     25  H   UNL     1      -2.974  10.803  23.270  0.00  0.00    +0.000 HD
BRANCH  22  26
ATOM     26  C   UNL     1      -3.418  12.739  23.949  0.00  0.00    +0.000 C 
BRANCH  26  31
ATOM     27  N   UNL     1      -5.638  12.405  22.807  0.00  0.00    +0.000 NA
ATOM     28  C   UNL     1      -6.756  12.826  23.679  0.00  0.00    +0.000 C 
ATOM     29  C   UNL     1      -6.671  14.337  23.727  0.00  0.00    +0.000 C 
ATOM     30  C   UNL     1      -5.179  14.603  23.751  0.00  0.00    +0.000 C 
ATOM     31  C   UNL     1      -4.538  13.376  23.085  0.00  0.00    +0.000 C 
BRANCH  27  33
ATOM     32  C   UNL     1      -7.392  11.703  21.117  0.00  0.00    +0.000 C 
ATOM     33  C   UNL     1      -6.086  12.442  21.396  0.00  0.00    +0.000 C 
ENDBRANCH  27  33
ENDBRANCH  26  31
ENDBRANCH  22  26
ENDBRANCH   1  23
TORSDOF 5
ENDMDL
MODEL 2
REMARK VINA RESULT:      -9.0      0.172      1.493
REMARK  Name = 
REMARK  6 active torsions:
REMARK  status: ('A' for Active; 'I' for Inactive)
REMARK    1  A    between atoms: C_1  and  C_2
REMARK    2  A    between atoms: C_2  and  N_3
REMARK    3  A    between atoms: C_7  and  C_8
REMARK    4  A    between atoms: C_8  and  N_9
REMARK    5  A    between atoms: C_10  and  C_12
REMARK    6  A    between atoms: C_22  and  C_23
REMARK                            x       y       z     vdW  Elec       q    Type
REMARK                         _______ _______ _______ _____ _____    ______ ____
ROOT
ATOM      1  C   UNL     1      -0.724  10.853  22.250  0.00  0.00    +0.000 A 
ATOM      2  C   UNL     1      -0.518   9.689  22.998  0.00  0.00    +0.000 A 
ATOM      3  C   UNL     1       0.211   8.628  22.459  0.00  0.00    +0.000 A 
ATOM      4  C   UNL     1       0.756   8.714  21.171  0.00  0.00    +0.000 A 
ATOM      5  C   UNL     1       0.568   9.886  20.434  0.00  0.00    +0.000 A 
ATOM      6  C   UNL     1      -0.167  10.952  20.970  0.00  0.00    +0.000 A 
ATOM      7  N   UNL     1       1.113  10.044  19.156  0.00  0.00    +0.000 N 
ATOM      8  C   UNL     1       1.812   9.131  18.423  0.00  0.00    +0.000 C 
ATOM      9  O   UNL     1       2.212   9.475  17.309  0.00  0.00    +0.000 OA
ATOM     10  C   UNL     1       2.046   7.749  18.953  0.00  0.00    +0.000 C 
ATOM     11  C   UNL     1       2.566   6.857  18.084  0.00  0.00    +0.000 C 
ATOM     12  S   UNL     1       1.679   7.329  20.586  0.00  0.00    +0.000 S 
ATOM     13  H   UNL     1       0.994  10.928  18.677  0.00  0.00    +0.000 HD
ENDROOT
BRANCH  11  14
ATOM     14  C   UNL     1       2.829   5.442  18.376  0.00  0.00    +0.000 A 
ATOM     15  C   UNL     1       1.935   4.456  17.951  0.00  0.00    +0.000 A 
ATOM     16  F   UNL     1       0.853   4.792  17.232  0.00  0.00    +0.000 F 
ATOM     17  C   UNL     1       2.133   3.112  18.267  0.00  0.00    +0.000 A 
ATOM     18  C   UNL     1       3.244   2.733  19.020  0.00  0.00    +0.000 A 
ATOM     19  C   UNL     1       4.153   3.702  19.444  0.00  0.00    +0.000 A 
ATOM     20  C   UNL     1       3.942   5.044  19.120  0.00  0.00    +0.000 A 
ATOM     21  F   UNL     1       4.829   5.953  19.550  0.00  0.00    +0.000 F 
ENDBRANCH  11  14
BRANCH   1  23
ATOM     22  N   UNL     1      -2.780  11.637  23.314  0.00  0.00    +0.000 N 
ATOM     23  C   UNL     1      -1.513  11.951  22.873  0.00  0.00    +0.000 C 
ATOM     24  O   UNL     1      -1.004  13.058  23.007  0.00  0.00    +0.000 OA
ATOM     25  H   UNL     1      -3.122  10.686  23.298  0.00  0.00    +0.000 HD
BRANCH  22  26
ATOM     26  C   UNL     1      -3.609  12.590  24.038  0.00  0.00    +0.000 C 
BRANCH  26  31
ATOM     27  N   UNL     1      -5.806  12.448  22.816  0.00  0.00    +0.000 NA
ATOM     28  C   UNL     1      -6.918  12.940  23.657  0.00  0.00    +0.000 C 
ATOM     29  C   UNL     1      -6.720  14.439  23.737  0.00  0.00    +0.000 C 
ATOM     30  C   UNL     1      -5.213  14.588  23.816  0.00  0.00    +0.000 C 
ATOM     31  C   UNL     1      -4.645  13.326  23.149  0.00  0.00    +0.000 C 
BRANCH  27  33
ATOM     32  C   UNL     1      -7.123  11.430  20.904  0.00  0.00    +0.000 C 
ATOM     33  C   UNL     1      -6.200  12.543  21.392  0.00  0.00    +0.000 C 
ENDBRANCH  27  33
ENDBRANCH  26  31
ENDBRANCH  22  26
ENDBRANCH   1  23
TORSDOF 5
ENDMDL
MODEL 3
REMARK VINA RESULT:      -8.8      2.577      3.875
REMARK  Name = 
REMARK  6 active torsions:
REMARK  status: ('A' for Active; 'I' for Inactive)
REMARK    1  A    between atoms: C_1  and  C_2
REMARK    2  A    between atoms: C_2  and  N_3
REMARK    3  A    between atoms: C_7  and  C_8
REMARK    4  A    between atoms: C_8  and  N_9
REMARK    5  A    between atoms: C_10  and  C_12
REMARK    6  A    between atoms: C_22  and  C_23
REMARK                            x       y       z     vdW  Elec       q    Type
REMARK                         _______ _______ _______ _____ _____    ______ ____
ROOT
ATOM      1  C   UNL     1       0.555  10.355  19.773  0.00  0.00    +0.000 A 
ATOM      2  C   UNL     1       1.194  10.491  18.537  0.00  0.00    +0.000 A 
ATOM      3  C   UNL     1       1.993   9.458  18.041  0.00  0.00    +0.000 A 
ATOM      4  C   UNL     1       2.156   8.269  18.765  0.00  0.00    +0.000 A 
ATOM      5  C   UNL     1       1.498   8.127  19.989  0.00  0.00    +0.000 A 
ATOM      6  C   UNL     1       0.700   9.163  20.492  0.00  0.00    +0.000 A 
ATOM      7  N   UNL     1       1.597   6.953  20.743  0.00  0.00    +0.000 N 
ATOM      8  C   UNL     1       2.351   5.847  20.477  0.00  0.00    +0.000 C 
ATOM      9  O   UNL     1       2.293   4.909  21.275  0.00  0.00    +0.000 OA
ATOM     10  C   UNL     1       3.241   5.803  19.273  0.00  0.00    +0.000 C 
ATOM     11  C   UNL     1       4.095   4.761  19.200  0.00  0.00    +0.000 C 
ATOM     12  S   UNL     1       3.168   7.015  18.046  0.00  0.00    +0.000 S 
ATOM     13  H   UNL     1       1.065   6.873  21.600  0.00  0.00    +0.000 HD
ENDROOT
BRANCH  11  14
ATOM     14  C   UNL     1       5.086   4.549  18.137  0.00  0.00    +0.000 A 
ATOM     15  C   UNL     1       6.419   4.924  18.329  0.00  0.00    +0.000 A 
ATOM     16  F   UNL     1       6.812   5.437  19.505  0.00  0.00    +0.000 F 
ATOM     17  C   UNL     1       7.365   4.786  17.314  0.00  0.00    +0.000 A 
ATOM     18  C   UNL     1       6.984   4.264  16.078  0.00  0.00    +0.000 A 
ATOM     19  C   UNL     1       5.661   3.876  15.871  0.00  0.00    +0.000 A 
ATOM     20  C   UNL     1       4.725   4.019  16.897  0.00  0.00    +0.000 A 
ATOM     21  F   UNL     1       3.458   3.644  16.663  0.00  0.00    +0.000 F 
ENDBRANCH  11  14
BRANCH   1  23
ATOM     22  N   UNL     1       0.221  12.233  21.299  0.00  0.00    +0.000 N 
ATOM     23  C   UNL     1      -0.281  11.489  20.254  0.00  0.00    +0.000 C 
ATOM     24  O   UNL     1      -1.339  11.741  19.689  0.00  0.00    +0.000 OA
ATOM     25  H   UNL     1       1.150  12.073  21.661  0.00  0.00    +0.000 HD
BRANCH  22  26
ATOM     26  C   UNL     1      -0.444  13.433  21.789  0.00  0.00    +0.000 C 
BRANCH  26  31
ATOM     27  N   UNL     1      -2.222  14.298  23.350  0.00  0.00    +0.000 NA
ATOM     28  C   UNL     1      -3.524  13.647  23.088  0.00  0.00    +0.000 C 
ATOM     29  C   UNL     1      -3.362  12.225  23.582  0.00  0.00    +0.000 C 
ATOM     30  C   UNL     1      -1.935  11.883  23.200  0.00  0.00    +0.000 C 
ATOM     31  C   UNL     1      -1.201  13.230  23.128  0.00  0.00    +0.000 C 
BRANCH  27  33
ATOM     32  C   UNL     1      -1.021  15.705  25.082  0.00  0.00    +0.000 C 
ATOM     33  C   UNL     1      -2.212  14.815  24.737  0.00  0.00    +0.000 C 
ENDBRANCH  27  33
ENDBRANCH  26  31
ENDBRANCH  22  26
ENDBRANCH   1  23
TORSDOF 5
ENDMDL
MODEL 4
REMARK VINA RESULT:      -8.7      1.023      1.743
REMARK  Name = 
REMARK  6 active torsions:
REMARK  status: ('A' for Active; 'I' for Inactive)
REMARK    1  A    between atoms: C_1  and  C_2
REMARK    2  A    between atoms: C_2  and  N_3
REMARK    3  A    between atoms: C_7  and  C_8
REMARK    4  A    between atoms: C_8  and  N_9
REMARK    5  A    between atoms: C_10  and  C_12
REMARK    6  A    between atoms: C_22  and  C_23
REMARK                            x       y       z     vdW  Elec       q    Type
REMARK                         _______ _______ _______ _____ _____    ______ ____
ROOT
ATOM      1  C   UNL     1      -0.470  10.871  22.297  0.00  0.00    +0.000 A 
ATOM      2  C   UNL     1      -0.283   9.701  23.039  0.00  0.00    +0.000 A 
ATOM      3  C   UNL     1       0.395   8.615  22.481  0.00  0.00    +0.000 A 
ATOM      4  C   UNL     1       0.907   8.684  21.178  0.00  0.00    +0.000 A 
ATOM      5  C   UNL     1       0.739   9.862  20.447  0.00  0.00    +0.000 A 
ATOM      6  C   UNL     1       0.055  10.952  21.002  0.00  0.00    +0.000 A 
ATOM      7  N   UNL     1       1.254  10.003  19.155  0.00  0.00    +0.000 N 
ATOM      8  C   UNL     1       1.902   9.067  18.403  0.00  0.00    +0.000 C 
ATOM      9  O   UNL     1       2.283   9.398  17.278  0.00  0.00    +0.000 OA
ATOM     10  C   UNL     1       2.103   7.678  18.926  0.00  0.00    +0.000 C 
ATOM     11  C   UNL     1       2.569   6.770  18.043  0.00  0.00    +0.000 C 
ATOM     12  S   UNL     1       1.767   7.269  20.569  0.00  0.00    +0.000 S 
ATOM     13  H   UNL     1       1.152  10.891  18.679  0.00  0.00    +0.000 HD
ENDROOT
BRANCH  11  14
ATOM     14  C   UNL     1       2.793   5.346  18.329  0.00  0.00    +0.000 A 
ATOM     15  C   UNL     1       3.926   4.939  19.038  0.00  0.00    +0.000 A 
ATOM     16  F   UNL     1       4.793   5.849  19.504  0.00  0.00    +0.000 F 
ATOM     17  C   UNL     1       4.189   3.589  19.270  0.00  0.00    +0.000 A 
ATOM     18  C   UNL     1       3.310   2.618  18.792  0.00  0.00    +0.000 A 
ATOM     19  C   UNL     1       2.168   3.007  18.091  0.00  0.00    +0.000 A 
ATOM     20  C   UNL     1       1.918   4.362  17.866  0.00  0.00    +0.000 A 
ATOM     21  F   UNL     1       0.816   4.703  17.180  0.00  0.00    +0.000 F 
ENDBRANCH  11  14
BRANCH   1  23
ATOM     22  N   UNL     1      -2.532  11.783  23.240  0.00  0.00    +0.000 N 
ATOM     23  C   UNL     1      -1.204  11.995  22.941  0.00  0.00    +0.000 C 
ATOM     24  O   UNL     1      -0.605  13.029  23.214  0.00  0.00    +0.000 OA
ATOM     25  H   UNL     1      -2.962  10.877  23.111  0.00  0.00    +0.000 HD
BRANCH  22  26
ATOM     26  C   UNL     1      -3.330  12.759  23.968  0.00  0.00    +0.000 C 
BRANCH  26  31
ATOM     27  N   UNL     1      -3.778  14.889  22.700  0.00  0.00    +0.000 NA
ATOM     28  C   UNL     1      -3.382  14.759  21.282  0.00  0.00    +0.000 C 
ATOM     29  C   UNL     1      -4.406  13.827  20.668  0.00  0.00    +0.000 C 
ATOM     30  C   UNL     1      -4.665  12.819  21.770  0.00  0.00    +0.000 C 
ATOM     31  C   UNL     1      -4.324  13.550  23.077  0.00  0.00    +0.000 C 
BRANCH  27  33
ATOM     32  C   UNL     1      -5.945  15.660  23.765  0.00  0.00    +0.000 C 
ATOM     33  C   UNL     1      -4.785  15.967  22.823  0.00  0.00    +0.000 C 
ENDBRANCH  27  33
ENDBRANCH  26  31
ENDBRANCH  22  26
ENDBRANCH   1  23
TORSDOF 5
ENDMDL
MODEL 5
REMARK VINA RESULT:      -8.7      0.979      2.260
REMARK  Name = 
REMARK  6 active torsions:
REMARK  status: ('A' for Active; 'I' for Inactive)
REMARK    1  A    between atoms: C_1  and  C_2
REMARK    2  A    between atoms: C_2  and  N_3
REMARK    3  A    between atoms: C_7  and  C_8
REMARK    4  A    between atoms: C_8  and  N_9
REMARK    5  A    between atoms: C_10  and  C_12
REMARK    6  A    between atoms: C_22  and  C_23
REMARK                            x       y       z     vdW  Elec       q    Type
REMARK                         _______ _______ _______ _____ _____    ______ ____
ROOT
ATOM      1  C   UNL     1      -0.642  10.998  22.184  0.00  0.00    +0.000 A 
ATOM      2  C   UNL     1      -0.485   9.840  22.953  0.00  0.00    +0.000 A 
ATOM      3  C   UNL     1       0.206   8.742  22.437  0.00  0.00    +0.000 A 
ATOM      4  C   UNL     1       0.761   8.785  21.151  0.00  0.00    +0.000 A 
ATOM      5  C   UNL     1       0.623   9.951  20.393  0.00  0.00    +0.000 A 
ATOM      6  C   UNL     1      -0.074  11.053  20.906  0.00  0.00    +0.000 A 
ATOM      7  N   UNL     1       1.180  10.066  19.116  0.00  0.00    +0.000 N 
ATOM      8  C   UNL     1       1.848   9.113  18.403  0.00  0.00    +0.000 C 
ATOM      9  O   UNL     1       2.267   9.423  17.286  0.00  0.00    +0.000 OA
ATOM     10  C   UNL     1       2.025   7.733  18.957  0.00  0.00    +0.000 C 
ATOM     11  C   UNL     1       2.515   6.807  18.107  0.00  0.00    +0.000 C 
ATOM     12  S   UNL     1       1.633   7.355  20.595  0.00  0.00    +0.000 S 
ATOM     13  H   UNL     1       1.098  10.945  18.621  0.00  0.00    +0.000 HD
ENDROOT
BRANCH  11  14
ATOM     14  C   UNL     1       2.721   5.388  18.425  0.00  0.00    +0.000 A 
ATOM     15  C   UNL     1       1.829   4.422  17.951  0.00  0.00    +0.000 A 
ATOM     16  F   UNL     1       0.803   4.780  17.164  0.00  0.00    +0.000 F 
ATOM     17  C   UNL     1       1.971   3.076  18.289  0.00  0.00    +0.000 A 
ATOM     18  C   UNL     1       3.022   2.675  19.112  0.00  0.00    +0.000 A 
ATOM     19  C   UNL     1       3.928   3.623  19.585  0.00  0.00    +0.000 A 
ATOM     20  C   UNL     1       3.774   4.967  19.240  0.00  0.00    +0.000 A 
ATOM     21  F   UNL     1       4.657   5.856  19.718  0.00  0.00    +0.000 F 
ENDBRANCH  11  14
BRANCH   1  23
ATOM     22  N   UNL     1      -2.656  11.871  23.257  0.00  0.00    +0.000 N 
ATOM     23  C   UNL     1      -1.391  12.137  22.783  0.00  0.00    +0.000 C 
ATOM     24  O   UNL     1      -0.851  13.234  22.870  0.00  0.00    +0.000 OA
ATOM     25  H   UNL     1      -3.023  10.929  23.279  0.00  0.00    +0.000 HD
BRANCH  22  26
ATOM     26  C   UNL     1      -3.447  12.868  23.963  0.00  0.00    +0.000 C 
BRANCH  26  31
ATOM     27  N   UNL     1      -4.056  14.930  22.650  0.00  0.00    +0.000 NA
ATOM     28  C   UNL     1      -3.687  14.784  21.226  0.00  0.00    +0.000 C 
ATOM     29  C   UNL     1      -4.666  13.774  20.664  0.00  0.00    +0.000 C 
ATOM     30  C   UNL     1      -4.836  12.784  21.800  0.00  0.00    +0.000 C 
ATOM     31  C   UNL     1      -4.509  13.572  23.077  0.00  0.00    +0.000 C 
BRANCH  27  33
ATOM     32  C   UNL     1      -6.121  15.705  23.898  0.00  0.00    +0.000 C 
ATOM     33  C   UNL     1      -5.124  15.949  22.769  0.00  0.00    +0.000 C 
ENDBRANCH  27  33
ENDBRANCH  26  31
ENDBRANCH  22  26
ENDBRANCH   1  23
TORSDOF 5
ENDMDL
MODEL 6
REMARK VINA RESULT:      -8.6      3.922     10.750
REMARK  Name = 
REMARK  6 active torsions:
REMARK  status: ('A' for Active; 'I' for Inactive)
REMARK    1  A    between atoms: C_1  and  C_2
REMARK    2  A    between atoms: C_2  and  N_3
REMARK    3  A    between atoms: C_7  and  C_8
REMARK    4  A    between atoms: C_8  and  N_9
REMARK    5  A    between atoms: C_10  and  C_12
REMARK    6  A    between atoms: C_22  and  C_23
REMARK                            x       y       z     vdW  Elec       q    Type
REMARK                         _______ _______ _______ _____ _____    ______ ____
ROOT
ATOM      1  C   UNL     1       2.264   7.312  19.057  0.00  0.00    +0.000 A 
ATOM      2  C   UNL     1       2.066   8.345  18.136  0.00  0.00    +0.000 A 
ATOM      3  C   UNL     1       1.458   9.537  18.536  0.00  0.00    +0.000 A 
ATOM      4  C   UNL     1       1.047   9.720  19.863  0.00  0.00    +0.000 A 
ATOM      5  C   UNL     1       1.266   8.696  20.787  0.00  0.00    +0.000 A 
ATOM      6  C   UNL     1       1.873   7.497  20.389  0.00  0.00    +0.000 A 
ATOM      7  N   UNL     1       0.907   8.831  22.132  0.00  0.00    +0.000 N 
ATOM      8  C   UNL     1       0.264   9.877  22.727  0.00  0.00    +0.000 C 
ATOM      9  O   UNL     1       0.043   9.800  23.937  0.00  0.00    +0.000 OA
ATOM     10  C   UNL     1      -0.184  11.055  21.917  0.00  0.00    +0.000 C 
ATOM     11  C   UNL     1      -0.984  11.942  22.546  0.00  0.00    +0.000 C 
ATOM     12  S   UNL     1       0.307  11.268  20.277  0.00  0.00    +0.000 S 
ATOM     13  H   UNL     1       1.128   8.084  22.778  0.00  0.00    +0.000 HD
ENDROOT
BRANCH  11  14
ATOM     14  C   UNL     1      -1.575  13.137  21.930  0.00  0.00    +0.000 A 
ATOM     15  C   UNL     1      -0.825  14.309  21.803  0.00  0.00    +0.000 A 
ATOM     16  F   UNL     1       0.455  14.337  22.203  0.00  0.00    +0.000 F 
ATOM     17  C   UNL     1      -1.383  15.474  21.276  0.00  0.00    +0.000 A 
ATOM     18  C   UNL     1      -2.714  15.478  20.860  0.00  0.00    +0.000 A 
ATOM     19  C   UNL     1      -3.475  14.314  20.968  0.00  0.00    +0.000 A 
ATOM     20  C   UNL     1      -2.903  13.156  21.499  0.00  0.00    +0.000 A 
ATOM     21  F   UNL     1      -3.663  12.055  21.599  0.00  0.00    +0.000 F 
ENDBRANCH  11  14
BRANCH   1  23
ATOM     22  N   UNL     1       4.096   5.700  19.182  0.00  0.00    +0.000 N 
ATOM     23  C   UNL     1       2.914   6.062  18.575  0.00  0.00    +0.000 C 
ATOM     24  O   UNL     1       2.366   5.394  17.706  0.00  0.00    +0.000 OA
ATOM     25  H   UNL     1       4.458   6.209  19.977  0.00  0.00    +0.000 HD
BRANCH  22  26
ATOM     26  C   UNL     1       4.773   4.447  18.881  0.00  0.00    +0.000 C 
BRANCH  26  31
ATOM     27  N   UNL     1       6.069   5.175  16.848  0.00  0.00    +0.000 NA
ATOM     28  C   UNL     1       6.490   6.589  16.961  0.00  0.00    +0.000 C 
ATOM     29  C   UNL     1       7.571   6.596  18.021  0.00  0.00    +0.000 C 
ATOM     30  C   UNL     1       7.079   5.575  19.028  0.00  0.00    +0.000 C 
ATOM     31  C   UNL     1       6.171   4.625  18.233  0.00  0.00    +0.000 C 
BRANCH  27  33
ATOM     32  C   UNL     1       6.368   4.246  14.509  0.00  0.00    +0.000 C 
ATOM     33  C   UNL     1       6.964   4.481  15.894  0.00  0.00    +0.000 C 
ENDBRANCH  27  33
ENDBRANCH  26  31
ENDBRANCH  22  26
ENDBRANCH   1  23
TORSDOF 5
ENDMDL
MODEL 7
REMARK VINA RESULT:      -8.6      2.542      3.512
REMARK  Name = 
REMARK  6 active torsions:
REMARK  status: ('A' for Active; 'I' for Inactive)
REMARK    1  A    between atoms: C_1  and  C_2
REMARK    2  A    between atoms: C_2  and  N_3
REMARK    3  A    between atoms: C_7  and  C_8
REMARK    4  A    between atoms: C_8  and  N_9
REMARK    5  A    between atoms: C_10  and  C_12
REMARK    6  A    between atoms: C_22  and  C_23
REMARK                            x       y       z     vdW  Elec       q    Type
REMARK                         _______ _______ _______ _____ _____    ______ ____
ROOT
ATOM      1  C   UNL     1       0.727  10.349  20.004  0.00  0.00    +0.000 A 
ATOM      2  C   UNL     1       1.312  10.504  18.742  0.00  0.00    +0.000 A 
ATOM      3  C   UNL     1       2.046   9.460  18.176  0.00  0.00    +0.000 A 
ATOM      4  C   UNL     1       2.199   8.242  18.852  0.00  0.00    +0.000 A 
ATOM      5  C   UNL     1       1.595   8.082  20.102  0.00  0.00    +0.000 A 
ATOM      6  C   UNL     1       0.861   9.129  20.676  0.00  0.00    +0.000 A 
ATOM      7  N   UNL     1       1.686   6.881  20.812  0.00  0.00    +0.000 N 
ATOM      8  C   UNL     1       2.383   5.758  20.474  0.00  0.00    +0.000 C 
ATOM      9  O   UNL     1       2.328   4.796  21.244  0.00  0.00    +0.000 OA
ATOM     10  C   UNL     1       3.213   5.723  19.227  0.00  0.00    +0.000 C 
ATOM     11  C   UNL     1       4.022   4.654  19.079  0.00  0.00    +0.000 C 
ATOM     12  S   UNL     1       3.126   6.977  18.045  0.00  0.00    +0.000 S 
ATOM     13  H   UNL     1       1.193   6.791  21.691  0.00  0.00    +0.000 HD
ENDROOT
BRANCH  11  14
ATOM     14  C   UNL     1       4.952   4.442  17.962  0.00  0.00    +0.000 A 
ATOM     15  C   UNL     1       6.299   4.794  18.089  0.00  0.00    +0.000 A 
ATOM     16  F   UNL     1       6.761   5.285  19.248  0.00  0.00    +0.000 F 
ATOM     17  C   UNL     1       7.187   4.657  17.022  0.00  0.00    +0.000 A 
ATOM     18  C   UNL     1       6.734   4.158  15.802  0.00  0.00    +0.000 A 
ATOM     19  C   UNL     1       5.396   3.791  15.660  0.00  0.00    +0.000 A 
ATOM     20  C   UNL     1       4.518   3.934  16.736  0.00  0.00    +0.000 A 
ATOM     21  F   UNL     1       3.234   3.581  16.565  0.00  0.00    +0.000 F 
ENDBRANCH  11  14
BRANCH   1  23
ATOM     22  N   UNL     1      -0.856  12.183  19.690  0.00  0.00    +0.000 N 
ATOM     23  C   UNL     1      -0.041  11.496  20.562  0.00  0.00    +0.000 C 
ATOM     24  O   UNL     1       0.046  11.755  21.757  0.00  0.00    +0.000 OA
ATOM     25  H   UNL     1      -0.996  11.868  18.740  0.00  0.00    +0.000 HD
BRANCH  22  26
ATOM     26  C   UNL     1      -1.742  13.251  20.133  0.00  0.00    +0.000 C 
BRANCH  26  31
ATOM     27  N   UNL     1      -3.702  13.779  21.625  0.00  0.00    +0.000 NA
ATOM     28  C   UNL     1      -4.834  14.325  20.846  0.00  0.00    +0.000 C 
ATOM     29  C   UNL     1      -5.371  13.152  20.053  0.00  0.00    +0.000 C 
ATOM     30  C   UNL     1      -4.120  12.387  19.670  0.00  0.00    +0.000 C 
ATOM     31  C   UNL     1      -3.079  12.750  20.740  0.00  0.00    +0.000 C 
BRANCH  27  33
ATOM     32  C   UNL     1      -3.240  12.297  23.628  0.00  0.00    +0.000 C 
ATOM     33  C   UNL     1      -4.218  13.205  22.888  0.00  0.00    +0.000 C 
ENDBRANCH  27  33
ENDBRANCH  26  31
ENDBRANCH  22  26
ENDBRANCH   1  23
TORSDOF 5
ENDMDL
MODEL 8
REMARK VINA RESULT:      -8.5      3.777     10.121
REMARK  Name = 
REMARK  6 active torsions:
REMARK  status: ('A' for Active; 'I' for Inactive)
REMARK    1  A    between atoms: C_1  and  C_2
REMARK    2  A    between atoms: C_2  and  N_3
REMARK    3  A    between atoms: C_7  and  C_8
REMARK    4  A    between atoms: C_8  and  N_9
REMARK    5  A    between atoms: C_10  and  C_12
REMARK    6  A    between atoms: C_22  and  C_23
REMARK                            x       y       z     vdW  Elec       q    Type
REMARK                         _______ _______ _______ _____ _____    ______ ____
ROOT
ATOM      1  C   UNL     1       1.910   7.988  19.649  0.00  0.00    +0.000 A 
ATOM      2  C   UNL     1       1.524   7.824  20.983  0.00  0.00    +0.000 A 
ATOM      3  C   UNL     1       0.717   8.780  21.603  0.00  0.00    +0.000 A 
ATOM      4  C   UNL     1       0.273   9.908  20.900  0.00  0.00    +0.000 A 
ATOM      5  C   UNL     1       0.642  10.058  19.561  0.00  0.00    +0.000 A 
ATOM      6  C   UNL     1       1.455   9.103  18.936  0.00  0.00    +0.000 A 
ATOM      7  N   UNL     1       0.206  11.146  18.797  0.00  0.00    +0.000 N 
ATOM      8  C   UNL     1      -0.541  12.212  19.206  0.00  0.00    +0.000 C 
ATOM      9  O   UNL     1      -0.823  13.069  18.367  0.00  0.00    +0.000 OA
ATOM     10  C   UNL     1      -0.965  12.340  20.637  0.00  0.00    +0.000 C 
ATOM     11  C   UNL     1      -1.522  13.517  20.991  0.00  0.00    +0.000 C 
ATOM     12  S   UNL     1      -0.759  11.049  21.764  0.00  0.00    +0.000 S 
ATOM     13  H   UNL     1       0.457  11.191  17.818  0.00  0.00    +0.000 HD
ENDROOT
BRANCH  11  14
ATOM     14  C   UNL     1      -1.963  13.873  22.346  0.00  0.00    +0.000 A 
ATOM     15  C   UNL     1      -3.268  13.590  22.761  0.00  0.00    +0.000 A 
ATOM     16  F   UNL     1      -4.112  12.949  21.939  0.00  0.00    +0.000 F 
ATOM     17  C   UNL     1      -3.727  13.971  24.021  0.00  0.00    +0.000 A 
ATOM     18  C   UNL     1      -2.875  14.647  24.895  0.00  0.00    +0.000 A 
ATOM     19  C   UNL     1      -1.567  14.928  24.502  0.00  0.00    +0.000 A 
ATOM     20  C   UNL     1      -1.121  14.541  23.237  0.00  0.00    +0.000 A 
ATOM     21  F   UNL     1       0.141  14.834  22.885  0.00  0.00    +0.000 F 
ENDBRANCH  11  14
BRANCH   1  23
ATOM     22  N   UNL     1       3.365   6.041  19.899  0.00  0.00    +0.000 N 
ATOM     23  C   UNL     1       2.774   6.940  19.039  0.00  0.00    +0.000 C 
ATOM     24  O   UNL     1       2.892   6.889  17.820  0.00  0.00    +0.000 OA
ATOM     25  H   UNL     1       3.150   6.038  20.887  0.00  0.00    +0.000 HD
BRANCH  22  26
ATOM     26  C   UNL     1       4.141   4.905  19.423  0.00  0.00    +0.000 C 
BRANCH  26  31
ATOM     27  N   UNL     1       1.899   3.757  19.448  0.00  0.00    +0.000 NA
ATOM     28  C   UNL     1       1.481   3.372  18.083  0.00  0.00    +0.000 C 
ATOM     29  C   UNL     1       2.396   2.228  17.697  0.00  0.00    +0.000 C 
ATOM     30  C   UNL     1       3.727   2.627  18.302  0.00  0.00    +0.000 C 
ATOM     31  C   UNL     1       3.378   3.555  19.476  0.00  0.00    +0.000 C 
BRANCH  27  33
ATOM     32  C   UNL     1       1.868   2.789  21.790  0.00  0.00    +0.000 C 
ATOM     33  C   UNL     1       1.190   2.904  20.428  0.00  0.00    +0.000 C 
ENDBRANCH  27  33
ENDBRANCH  26  31
ENDBRANCH  22  26
ENDBRANCH   1  23
TORSDOF 5
ENDMDL
MODEL 9
REMARK VINA RESULT:      -8.5      2.514      3.721
REMARK  Name = 
REMARK  6 active torsions:
REMARK  status: ('A' for Active; 'I' for Inactive)
REMARK    1  A    between atoms: C_1  and  C_2
REMARK    2  A    between atoms: C_2  and  N_3
REMARK    3  A    between atoms: C_7  and  C_8
REMARK    4  A    between atoms: C_8  and  N_9
REMARK    5  A    between atoms: C_10  and  C_12
REMARK    6  A    between atoms: C_22  and  C_23
REMARK                            x       y       z     vdW  Elec       q    Type
REMARK                         _______ _______ _______ _____ _____    ______ ____
ROOT
ATOM      1  C   UNL     1       0.604  10.349  20.192  0.00  0.00    +0.000 A 
ATOM      2  C   UNL     1       1.172  10.555  18.931  0.00  0.00    +0.000 A 
ATOM      3  C   UNL     1       1.923   9.545  18.325  0.00  0.00    +0.000 A 
ATOM      4  C   UNL     1       2.108   8.311  18.961  0.00  0.00    +0.000 A 
ATOM      5  C   UNL     1       1.521   8.099  20.211  0.00  0.00    +0.000 A 
ATOM      6  C   UNL     1       0.771   9.111  20.824  0.00  0.00    +0.000 A 
ATOM      7  N   UNL     1       1.644   6.878  20.882  0.00  0.00    +0.000 N 
ATOM      8  C   UNL     1       2.361   5.781  20.503  0.00  0.00    +0.000 C 
ATOM      9  O   UNL     1       2.334   4.795  21.242  0.00  0.00    +0.000 OA
ATOM     10  C   UNL     1       3.179   5.803  19.248  0.00  0.00    +0.000 C 
ATOM     11  C   UNL     1       4.009   4.757  19.058  0.00  0.00    +0.000 C 
ATOM     12  S   UNL     1       3.054   7.091  18.106  0.00  0.00    +0.000 S 
ATOM     13  H   UNL     1       1.161   6.750  21.762  0.00  0.00    +0.000 HD
ENDROOT
BRANCH  11  14
ATOM     14  C   UNL     1       4.932   4.600  17.926  0.00  0.00    +0.000 A 
ATOM     15  C   UNL     1       4.491   4.023  16.732  0.00  0.00    +0.000 A 
ATOM     16  F   UNL     1       3.210   3.652  16.595  0.00  0.00    +0.000 F 
ATOM     17  C   UNL     1       5.363   3.811  15.664  0.00  0.00    +0.000 A 
ATOM     18  C   UNL     1       6.703   4.179  15.779  0.00  0.00    +0.000 A 
ATOM     19  C   UNL     1       7.159   4.765  16.960  0.00  0.00    +0.000 A 
ATOM     20  C   UNL     1       6.274   4.972  18.020  0.00  0.00    +0.000 A 
ATOM     21  F   UNL     1       6.745   5.530  19.147  0.00  0.00    +0.000 F 
ENDBRANCH  11  14
BRANCH   1  23
ATOM     22  N   UNL     1      -1.029  12.151  19.953  0.00  0.00    +0.000 N 
ATOM     23  C   UNL     1      -0.182  11.461  20.793  0.00  0.00    +0.000 C 
ATOM     24  O   UNL     1      -0.083  11.690  21.993  0.00  0.00    +0.000 OA
ATOM     25  H   UNL     1      -1.176  11.858  18.998  0.00  0.00    +0.000 HD
BRANCH  22  26
ATOM     26  C   UNL     1      -1.932  13.184  20.439  0.00  0.00    +0.000 C 
BRANCH  26  31
ATOM     27  N   UNL     1      -4.114  13.664  21.602  0.00  0.00    +0.000 NA
ATOM     28  C   UNL     1      -5.106  14.233  20.664  0.00  0.00    +0.000 C 
ATOM     29  C   UNL     1      -5.499  13.084  19.759  0.00  0.00    +0.000 C 
ATOM     30  C   UNL     1      -4.196  12.332  19.564  0.00  0.00    +0.000 C 
ATOM     31  C   UNL     1      -3.348  12.663  20.802  0.00  0.00    +0.000 C 
BRANCH  27  33
ATOM     32  C   UNL     1      -3.935  12.624  23.907  0.00  0.00    +0.000 C 
ATOM     33  C   UNL     1      -4.828  13.051  22.745  0.00  0.00    +0.000 C 
ENDBRANCH  27  33
ENDBRANCH  26  31
ENDBRANCH  22  26
ENDBRANCH   1  23
TORSDOF 5
ENDMDL
