MODEL 1
REMARK VINA RESULT:      -8.3      0.000      0.000
REMARK  Name = 
REMARK  13 active torsions:
REMARK  status: ('A' for Active; 'I' for Inactive)
REMARK    1  A    between atoms: C_1  and  O_2
REMARK    2  A    between atoms: O_2  and  C_3
REMARK    3  A    between atoms: C_7  and  C_8
REMARK    4  A    between atoms: N_10  and  C_11
REMARK    5  A    between atoms: C_11  and  C_12
REMARK    6  A    between atoms: C_11  and  C_19
REMARK    7  A    between atoms: C_12  and  C_13
REMARK    8  A    between atoms: C_13  and  C_14
REMARK    9  A    between atoms: C_14  and  N_15
REMARK   10  A    between atoms: N_21  and  C_22
REMARK   11  A    between atoms: C_22  and  C_23
REMARK   12  A    between atoms: C_22  and  C_30
REMARK   13  A    between atoms: C_23  and  C_24
REMARK                            x       y       z     vdW  Elec       q    Type
REMARK                         _______ _______ _______ _____ _____    ______ ____
ROOT
ATOM      1  C   UNL     1       2.041   5.953  19.522  0.00  0.00    +0.000 C 
ENDROOT
BRANCH   1   4
ATOM      2  C   UNL     1       3.374   4.978  17.649  0.00  0.00    +0.000 C 
ATOM      3  O   UNL     1       2.451   4.268  17.266  0.00  0.00    +0.000 OA
ATOM      4  N   UNL     1       3.267   5.832  18.722  0.00  0.00    +0.000 N 
ATOM      5  H   UNL     1       3.979   6.536  18.887  0.00  0.00    +0.000 HD
BRANCH   2  10
ATOM      6  C   UNL     1       6.843   5.932  16.400  0.00  0.00    +0.000 A 
ATOM      7  C   UNL     1       7.100   4.859  15.542  0.00  0.00    +0.000 A 
ATOM      8  C   UNL     1       6.167   3.836  15.384  0.00  0.00    +0.000 A 
ATOM      9  C   UNL     1       4.959   3.886  16.080  0.00  0.00    +0.000 A 
ATOM     10  C   UNL     1       4.681   4.967  16.926  0.00  0.00    +0.000 A 
ATOM     11  C   UNL     1       5.634   5.983  17.102  0.00  0.00    +0.000 A 
BRANCH   6  13
ATOM     12  C   UNL     1       7.793   7.815  17.508  0.00  0.00    +0.000 C 
ATOM     13  O   UNL     1       7.852   6.855  16.465  0.00  0.00    +0.000 OA
ENDBRANCH   6  13
ENDBRANCH   2  10
ENDBRANCH   1   4
BRANCH   1  14
ATOM     14  C   UNL     1       1.794   7.463  19.790  0.00  0.00    +0.000 C 
ATOM     15  O   UNL     1       2.200   8.326  19.006  0.00  0.00    +0.000 OA
ATOM     16  N   UNL     1       1.104   7.789  20.935  0.00  0.00    +0.000 N 
ATOM     17  H   UNL     1       0.972   7.103  21.673  0.00  0.00    +0.000 HD
BRANCH  16  18
ATOM     18  C   UNL     1       0.775   9.179  21.290  0.00  0.00    +0.000 C 
BRANCH  18  19
ATOM     19  C   UNL     1       0.530   9.295  22.806  0.00  0.00    +0.000 C 
ATOM     20  N   UNL     1      -0.773   9.211  23.225  0.00  0.00    +0.000 N 
ATOM     21  O   UNL     1       1.428   9.501  23.611  0.00  0.00    +0.000 OA
ATOM     22  H   UNL     1      -1.564   9.230  22.595  0.00  0.00    +0.000 HD
ATOM     23  H   UNL     1      -0.953   9.313  24.216  0.00  0.00    +0.000 HD
ENDBRANCH  18  19
BRANCH  18  24
ATOM     24  C   UNL     1      -0.382   9.797  20.480  0.00  0.00    +0.000 C 
BRANCH  24  25
ATOM     25  C   UNL     1      -0.301  11.258  20.093  0.00  0.00    +0.000 A 
ATOM     26  C   UNL     1       0.487  11.686  19.014  0.00  0.00    +0.000 A 
ATOM     27  C   UNL     1       0.396  13.000  18.543  0.00  0.00    +0.000 A 
ATOM     28  C   UNL     1      -0.471  13.902  19.155  0.00  0.00    +0.000 A 
ATOM     29  C   UNL     1      -1.217  13.503  20.262  0.00  0.00    +0.000 A 
ATOM     30  C   UNL     1      -1.127  12.193  20.733  0.00  0.00    +0.000 A 
ENDBRANCH  24  25
ENDBRANCH  18  24
ENDBRANCH  16  18
ENDBRANCH   1  14
BRANCH   1  31
ATOM     31  C   UNL     1       2.153   5.116  20.810  0.00  0.00    +0.000 C 
BRANCH  31  32
ATOM     32  C   UNL     1       1.115   3.991  20.859  0.00  0.00    +0.000 C 
BRANCH  32  33
ATOM     33  C   UNL     1       1.588   2.696  20.200  0.00  0.00    +0.000 C 
BRANCH  33  34
ATOM     34  N   UNL     1       3.028   2.610  20.356  0.00  0.00    +0.000 N 
ATOM     35  C   UNL     1       3.873   2.062  19.460  0.00  0.00    +0.000 C 
ATOM     36  N   UNL     1       3.593   1.378  18.416  0.00  0.00    +0.000 NA
ATOM     37  N   UNL     1       5.157   2.293  19.789  0.00  0.00    +0.000 N 
ATOM     38  H   UNL     1       3.442   3.399  20.839  0.00  0.00    +0.000 HD
ATOM     39  H   UNL     1       2.580   1.301  18.322  0.00  0.00    +0.000 HD
ATOM     40  H   UNL     1       5.350   2.153  20.772  0.00  0.00    +0.000 HD
ATOM     41  H   UNL     1       5.759   1.706  19.218  0.00  0.00    +0.000 HD
ENDBRANCH  33  34
ENDBRANCH  32  33
ENDBRANCH  31  32
ENDBRANCH   1  31
TORSDOF 12
ENDMDL
MODEL 2
REMARK VINA RESULT:      -8.0      1.228      1.865
REMARK  Name = 
REMARK  13 active torsions:
REMARK  status: ('A' for Active; 'I' for Inactive)
REMARK    1  A    between atoms: C_1  and  O_2
REMARK    2  A    between atoms: O_2  and  C_3
REMARK    3  A    between atoms: C_7  and  C_8
REMARK    4  A    between atoms: N_10  and  C_11
REMARK    5  A    between atoms: C_11  and  C_12
REMARK    6  A    between atoms: C_11  and  C_19
REMARK    7  A    between atoms: C_12  and  C_13
REMARK    8  A    between atoms: C_13  and  C_14
REMARK    9  A    between atoms: C_14  and  N_15
REMARK   10  A    between atoms: N_21  and  C_22
REMARK   11  A    between atoms: C_22  and  C_23
REMARK   12  A    between atoms: C_22  and  C_30
REMARK   13  A    between atoms: C_23  and  C_24
REMARK                            x       y       z     vdW  Elec       q    Type
REMARK                         _______ _______ _______ _____ _____    ______ ____
ROOT
ATOM      1  C   UNL     1       2.186   5.839  19.555  0.00  0.00    +0.000 C 
ENDROOT
BRANCH   1   4
ATOM      2  C   UNL     1       3.513   4.782  17.722  0.00  0.00    +0.000 C 
ATOM      3  O   UNL     1       2.553   4.152  17.293  0.00  0.00    +0.000 OA
ATOM      4  N   UNL     1       3.430   5.630  18.802  0.00  0.00    +0.000 N 
ATOM      5  H   UNL     1       4.188   6.274  19.004  0.00  0.00    +0.000 HD
BRANCH   2  10
ATOM      6  C   UNL     1       6.228   4.408  15.077  0.00  0.00    +0.000 A 
ATOM      7  C   UNL     1       7.369   4.502  15.880  0.00  0.00    +0.000 A 
ATOM      8  C   UNL     1       7.255   4.699  17.256  0.00  0.00    +0.000 A 
ATOM      9  C   UNL     1       5.993   4.792  17.841  0.00  0.00    +0.000 A 
ATOM     10  C   UNL     1       4.842   4.677  17.050  0.00  0.00    +0.000 A 
ATOM     11  C   UNL     1       4.960   4.506  15.661  0.00  0.00    +0.000 A 
BRANCH   6  13
ATOM     12  C   UNL     1       7.566   4.964  13.186  0.00  0.00    +0.000 C 
ATOM     13  O   UNL     1       6.490   4.229  13.746  0.00  0.00    +0.000 OA
ENDBRANCH   6  13
ENDBRANCH   2  10
ENDBRANCH   1   4
BRANCH   1  14
ATOM     14  C   UNL     1       2.020   7.365  19.789  0.00  0.00    +0.000 C 
ATOM     15  O   UNL     1       2.424   8.185  18.959  0.00  0.00    +0.000 OA
ATOM     16  N   UNL     1       1.402   7.755  20.955  0.00  0.00    +0.000 N 
ATOM     17  H   UNL     1       1.277   7.097  21.719  0.00  0.00    +0.000 HD
BRANCH  16  18
ATOM     18  C   UNL     1       1.153   9.168  21.281  0.00  0.00    +0.000 C 
BRANCH  18  19
ATOM     19  C   UNL     1       0.606   9.291  22.716  0.00  0.00    +0.000 C 
ATOM     20  N   UNL     1      -0.750   9.162  22.868  0.00  0.00    +0.000 N 
ATOM     21  O   UNL     1       1.317   9.541  23.680  0.00  0.00    +0.000 OA
ATOM     22  H   UNL     1      -1.400   9.143  22.093  0.00  0.00    +0.000 HD
ATOM     23  H   UNL     1      -1.128   9.268  23.801  0.00  0.00    +0.000 HD
ENDBRANCH  18  19
BRANCH  18  24
ATOM     24  C   UNL     1       0.265   9.919  20.269  0.00  0.00    +0.000 C 
BRANCH  24  25
ATOM     25  C   UNL     1       0.660  11.319  19.853  0.00  0.00    +0.000 A 
ATOM     26  C   UNL     1       0.366  12.431  20.657  0.00  0.00    +0.000 A 
ATOM     27  C   UNL     1       0.910  13.686  20.363  0.00  0.00    +0.000 A 
ATOM     28  C   UNL     1       1.739  13.845  19.255  0.00  0.00    +0.000 A 
ATOM     29  C   UNL     1       1.992  12.760  18.418  0.00  0.00    +0.000 A 
ATOM     30  C   UNL     1       1.450  11.508  18.711  0.00  0.00    +0.000 A 
ENDBRANCH  24  25
ENDBRANCH  18  24
ENDBRANCH  16  18
ENDBRANCH   1  14
BRANCH   1  31
ATOM     31  C   UNL     1       2.205   5.022  20.862  0.00  0.00    +0.000 C 
BRANCH  31  32
ATOM     32  C   UNL     1       1.274   3.807  20.795  0.00  0.00    +0.000 C 
BRANCH  32  33
ATOM     33  C   UNL     1       2.000   2.473  20.961  0.00  0.00    +0.000 C 
BRANCH  33  34
ATOM     34  N   UNL     1       2.512   2.073  19.663  0.00  0.00    +0.000 N 
ATOM     35  C   UNL     1       3.809   1.849  19.377  0.00  0.00    +0.000 C 
ATOM     36  N   UNL     1       4.837   2.095  20.096  0.00  0.00    +0.000 NA
ATOM     37  N   UNL     1       3.958   1.315  18.150  0.00  0.00    +0.000 N 
ATOM     38  H   UNL     1       1.894   1.460  19.143  0.00  0.00    +0.000 HD
ATOM     39  H   UNL     1       4.541   2.497  20.985  0.00  0.00    +0.000 HD
ATOM     40  H   UNL     1       3.386   1.762  17.447  0.00  0.00    +0.000 HD
ATOM     41  H   UNL     1       4.940   1.347  17.889  0.00  0.00    +0.000 HD
ENDBRANCH  33  34
ENDBRANCH  32  33
ENDBRANCH  31  32
ENDBRANCH   1  31
TORSDOF 12
ENDMDL
MODEL 3
REMARK VINA RESULT:      -8.0      2.196      8.284
REMARK  Name = 
REMARK  13 active torsions:
REMARK  status: ('A' for Active; 'I' for Inactive)
REMARK    1  A    between atoms: C_1  and  O_2
REMARK    2  A    between atoms: O_2  and  C_3
REMARK    3  A    between atoms: C_7  and  C_8
REMARK    4  A    between atoms: N_10  and  C_11
REMARK    5  A    between atoms: C_11  and  C_12
REMARK    6  A    between atoms: C_11  and  C_19
REMARK    7  A    between atoms: C_12  and  C_13
REMARK    8  A    between atoms: C_13  and  C_14
REMARK    9  A    between atoms: C_14  and  N_15
REMARK   10  A    between atoms: N_21  and  C_22
REMARK   11  A    between atoms: C_22  and  C_23
REMARK   12  A    between atoms: C_22  and  C_30
REMARK   13  A    between atoms: C_23  and  C_24
REMARK                            x       y       z     vdW  Elec       q    Type
REMARK                         _______ _______ _______ _____ _____    ______ ____
ROOT
ATOM      1  C   UNL     1       2.938   5.520  18.616  0.00  0.00    +0.000 C 
ENDROOT
BRANCH   1   4
ATOM      2  C   UNL     1       1.724   7.004  20.218  0.00  0.00    +0.000 C 
ATOM      3  O   UNL     1       1.580   6.112  21.046  0.00  0.00    +0.000 OA
ATOM      4  N   UNL     1       2.376   6.816  19.021  0.00  0.00    +0.000 N 
ATOM      5  H   UNL     1       2.642   7.615  18.453  0.00  0.00    +0.000 HD
BRANCH   2  10
ATOM      6  C   UNL     1       0.293  10.060  21.982  0.00  0.00    +0.000 A 
ATOM      7  C   UNL     1       0.279  10.973  20.923  0.00  0.00    +0.000 A 
ATOM      8  C   UNL     1       0.742  10.603  19.661  0.00  0.00    +0.000 A 
ATOM      9  C   UNL     1       1.213   9.308  19.448  0.00  0.00    +0.000 A 
ATOM     10  C   UNL     1       1.212   8.378  20.495  0.00  0.00    +0.000 A 
ATOM     11  C   UNL     1       0.769   8.761  21.772  0.00  0.00    +0.000 A 
BRANCH   6  13
ATOM     12  C   UNL     1      -1.323  11.398  23.111  0.00  0.00    +0.000 C 
ATOM     13  O   UNL     1      -0.178  10.563  23.165  0.00  0.00    +0.000 OA
ENDBRANCH   6  13
ENDBRANCH   2  10
ENDBRANCH   1   4
BRANCH   1  14
ATOM     14  C   UNL     1       4.280   5.791  17.882  0.00  0.00    +0.000 C 
ATOM     15  O   UNL     1       4.575   6.924  17.489  0.00  0.00    +0.000 OA
ATOM     16  N   UNL     1       5.119   4.716  17.697  0.00  0.00    +0.000 N 
ATOM     17  H   UNL     1       4.777   3.767  17.821  0.00  0.00    +0.000 HD
BRANCH  16  18
ATOM     18  C   UNL     1       6.433   4.843  17.047  0.00  0.00    +0.000 C 
BRANCH  18  19
ATOM     19  C   UNL     1       7.463   5.408  18.042  0.00  0.00    +0.000 C 
ATOM     20  N   UNL     1       7.677   6.762  18.000  0.00  0.00    +0.000 N 
ATOM     21  O   UNL     1       8.108   4.703  18.806  0.00  0.00    +0.000 OA
ATOM     22  H   UNL     1       7.316   7.362  17.271  0.00  0.00    +0.000 HD
ATOM     23  H   UNL     1       8.371   7.146  18.629  0.00  0.00    +0.000 HD
ENDBRANCH  18  19
BRANCH  18  24
ATOM     24  C   UNL     1       6.427   5.636  15.725  0.00  0.00    +0.000 C 
BRANCH  24  25
ATOM     25  C   UNL     1       6.580   4.881  14.423  0.00  0.00    +0.000 A 
ATOM     26  C   UNL     1       5.636   3.924  14.017  0.00  0.00    +0.000 A 
ATOM     27  C   UNL     1       5.680   3.384  12.728  0.00  0.00    +0.000 A 
ATOM     28  C   UNL     1       6.675   3.781  11.837  0.00  0.00    +0.000 A 
ATOM     29  C   UNL     1       7.649   4.689  12.248  0.00  0.00    +0.000 A 
ATOM     30  C   UNL     1       7.607   5.228  13.534  0.00  0.00    +0.000 A 
ENDBRANCH  24  25
ENDBRANCH  18  24
ENDBRANCH  16  18
ENDBRANCH   1  14
BRANCH   1  31
ATOM     31  C   UNL     1       1.924   4.736  17.761  0.00  0.00    +0.000 C 
BRANCH  31  32
ATOM     32  C   UNL     1       1.927   3.240  18.091  0.00  0.00    +0.000 C 
BRANCH  32  33
ATOM     33  C   UNL     1       0.702   2.788  18.885  0.00  0.00    +0.000 C 
BRANCH  33  34
ATOM     34  N   UNL     1       0.963   3.024  20.292  0.00  0.00    +0.000 N 
ATOM     35  C   UNL     1       2.136   2.790  20.912  0.00  0.00    +0.000 C 
ATOM     36  N   UNL     1       3.166   2.177  20.465  0.00  0.00    +0.000 NA
ATOM     37  N   UNL     1       2.136   3.277  22.167  0.00  0.00    +0.000 N 
ATOM     38  H   UNL     1       0.483   3.831  20.675  0.00  0.00    +0.000 HD
ATOM     39  H   UNL     1       2.991   1.876  19.506  0.00  0.00    +0.000 HD
ATOM     40  H   UNL     1       1.283   3.080  22.673  0.00  0.00    +0.000 HD
ATOM     41  H   UNL     1       2.942   2.912  22.668  0.00  0.00    +0.000 HD
ENDBRANCH  33  34
ENDBRANCH  32  33
ENDBRANCH  31  32
ENDBRANCH   1  31
TORSDOF 12
ENDMDL
MODEL 4
REMARK VINA RESULT:      -7.9      2.130      8.107
REMARK  Name = 
REMARK  13 active torsions:
REMARK  status: ('A' for Active; 'I' for Inactive)
REMARK    1  A    between atoms: C_1  and  O_2
REMARK    2  A    between atoms: O_2  and  C_3
REMARK    3  A    between atoms: C_7  and  C_8
REMARK    4  A    between atoms: N_10  and  C_11
REMARK    5  A    between atoms: C_11  and  C_12
REMARK    6  A    between atoms: C_11  and  C_19
REMARK    7  A    between atoms: C_12  and  C_13
REMARK    8  A    between atoms: C_13  and  C_14
REMARK    9  A    between atoms: C_14  and  N_15
REMARK   10  A    between atoms: N_21  and  C_22
REMARK   11  A    between atoms: C_22  and  C_23
REMARK   12  A    between atoms: C_22  and  C_30
REMARK   13  A    between atoms: C_23  and  C_24
REMARK                            x       y       z     vdW  Elec       q    Type
REMARK                         _______ _______ _______ _____ _____    ______ ____
ROOT
ATOM      1  C   UNL     1       3.152   5.443  18.428  0.00  0.00    +0.000 C 
ENDROOT
BRANCH   1   4
ATOM      2  C   UNL     1       2.021   7.191  19.808  0.00  0.00    +0.000 C 
ATOM      3  O   UNL     1       2.242   6.605  20.861  0.00  0.00    +0.000 OA
ATOM      4  N   UNL     1       2.431   6.714  18.585  0.00  0.00    +0.000 N 
ATOM      5  H   UNL     1       2.401   7.314  17.766  0.00  0.00    +0.000 HD
BRANCH   2  10
ATOM      6  C   UNL     1      -0.026  10.210  20.905  0.00  0.00    +0.000 A 
ATOM      7  C   UNL     1       0.002  10.967  19.731  0.00  0.00    +0.000 A 
ATOM      8  C   UNL     1       0.689  10.511  18.607  0.00  0.00    +0.000 A 
ATOM      9  C   UNL     1       1.344   9.280  18.648  0.00  0.00    +0.000 A 
ATOM     10  C   UNL     1       1.305   8.501  19.812  0.00  0.00    +0.000 A 
ATOM     11  C   UNL     1       0.635   8.977  20.951  0.00  0.00    +0.000 A 
BRANCH   6  13
ATOM     12  C   UNL     1      -0.786  10.080  23.159  0.00  0.00    +0.000 C 
ATOM     13  O   UNL     1      -0.725  10.787  21.930  0.00  0.00    +0.000 OA
ENDBRANCH   6  13
ENDBRANCH   2  10
ENDBRANCH   1   4
BRANCH   1  14
ATOM     14  C   UNL     1       4.568   5.764  17.876  0.00  0.00    +0.000 C 
ATOM     15  O   UNL     1       4.868   6.904  17.510  0.00  0.00    +0.000 OA
ATOM     16  N   UNL     1       5.466   4.722  17.820  0.00  0.00    +0.000 N 
ATOM     17  H   UNL     1       5.149   3.761  17.909  0.00  0.00    +0.000 HD
BRANCH  16  18
ATOM     18  C   UNL     1       6.849   4.898  17.349  0.00  0.00    +0.000 C 
BRANCH  18  19
ATOM     19  C   UNL     1       7.701   5.562  18.447  0.00  0.00    +0.000 C 
ATOM     20  N   UNL     1       7.936   6.906  18.311  0.00  0.00    +0.000 N 
ATOM     21  O   UNL     1       8.196   4.938  19.375  0.00  0.00    +0.000 OA
ATOM     22  H   UNL     1       7.713   7.431  17.475  0.00  0.00    +0.000 HD
ATOM     23  H   UNL     1       8.517   7.353  19.009  0.00  0.00    +0.000 HD
ENDBRANCH  18  19
BRANCH  18  24
ATOM     24  C   UNL     1       6.986   5.633  16.001  0.00  0.00    +0.000 C 
BRANCH  24  25
ATOM     25  C   UNL     1       6.811   4.846  14.722  0.00  0.00    +0.000 A 
ATOM     26  C   UNL     1       5.720   3.982  14.538  0.00  0.00    +0.000 A 
ATOM     27  C   UNL     1       5.460   3.420  13.284  0.00  0.00    +0.000 A 
ATOM     28  C   UNL     1       6.296   3.701  12.206  0.00  0.00    +0.000 A 
ATOM     29  C   UNL     1       7.414   4.513  12.390  0.00  0.00    +0.000 A 
ATOM     30  C   UNL     1       7.674   5.074  13.641  0.00  0.00    +0.000 A 
ENDBRANCH  24  25
ENDBRANCH  18  24
ENDBRANCH  16  18
ENDBRANCH   1  14
BRANCH   1  31
ATOM     31  C   UNL     1       2.353   4.478  17.531  0.00  0.00    +0.000 C 
BRANCH  31  32
ATOM     32  C   UNL     1       1.149   3.875  18.261  0.00  0.00    +0.000 C 
BRANCH  32  33
ATOM     33  C   UNL     1       1.525   2.778  19.255  0.00  0.00    +0.000 C 
BRANCH  33  34
ATOM     34  N   UNL     1       2.413   1.846  18.585  0.00  0.00    +0.000 N 
ATOM     35  C   UNL     1       3.711   1.657  18.890  0.00  0.00    +0.000 C 
ATOM     36  N   UNL     1       4.454   2.343  19.674  0.00  0.00    +0.000 NA
ATOM     37  N   UNL     1       4.225   0.604  18.227  0.00  0.00    +0.000 N 
ATOM     38  H   UNL     1       1.964   0.990  18.279  0.00  0.00    +0.000 HD
ATOM     39  H   UNL     1       3.905   3.098  20.086  0.00  0.00    +0.000 HD
ATOM     40  H   UNL     1       3.956   0.574  17.253  0.00  0.00    +0.000 HD
ATOM     41  H   UNL     1       5.237   0.612  18.320  0.00  0.00    +0.000 HD
ENDBRANCH  33  34
ENDBRANCH  32  33
ENDBRANCH  31  32
ENDBRANCH   1  31
TORSDOF 12
ENDMDL
MODEL 5
REMARK VINA RESULT:      -7.8      1.591      1.990
REMARK  Name = 
REMARK  13 active torsions:
REMARK  status: ('A' for Active; 'I' for Inactive)
REMARK    1  A    between atoms: C_1  and  O_2
REMARK    2  A    between atoms: O_2  and  C_3
REMARK    3  A    between atoms: C_7  and  C_8
REMARK    4  A    between atoms: N_10  and  C_11
REMARK    5  A    between atoms: C_11  and  C_12
REMARK    6  A    between atoms: C_11  and  C_19
REMARK    7  A    between atoms: C_12  and  C_13
REMARK    8  A    between atoms: C_13  and  C_14
REMARK    9  A    between atoms: C_14  and  N_15
REMARK   10  A    between atoms: N_21  and  C_22
REMARK   11  A    between atoms: C_22  and  C_23
REMARK   12  A    between atoms: C_22  and  C_30
REMARK   13  A    between atoms: C_23  and  C_24
REMARK                            x       y       z     vdW  Elec       q    Type
REMARK                         _______ _______ _______ _____ _____    ______ ____
ROOT
ATOM      1  C   UNL     1       1.852   6.950  19.316  0.00  0.00    +0.000 C 
ENDROOT
BRANCH   1   4
ATOM      2  C   UNL     1       3.168   5.539  17.731  0.00  0.00    +0.000 C 
ATOM      3  O   UNL     1       2.211   4.823  17.461  0.00  0.00    +0.000 OA
ATOM      4  N   UNL     1       3.088   6.596  18.606  0.00  0.00    +0.000 N 
ATOM      5  H   UNL     1       3.841   7.276  18.656  0.00  0.00    +0.000 HD
BRANCH   2  10
ATOM      6  C   UNL     1       6.762   5.971  16.545  0.00  0.00    +0.000 A 
ATOM      7  C   UNL     1       6.931   4.780  15.832  0.00  0.00    +0.000 A 
ATOM      8  C   UNL     1       5.899   3.847  15.752  0.00  0.00    +0.000 A 
ATOM      9  C   UNL     1       4.680   4.106  16.379  0.00  0.00    +0.000 A 
ATOM     10  C   UNL     1       4.490   5.306  17.078  0.00  0.00    +0.000 A 
ATOM     11  C   UNL     1       5.542   6.232  17.178  0.00  0.00    +0.000 A 
BRANCH   6  13
ATOM     12  C   UNL     1       7.869   7.868  17.466  0.00  0.00    +0.000 C 
ATOM     13  O   UNL     1       7.861   6.786  16.549  0.00  0.00    +0.000 OA
ENDBRANCH   6  13
ENDBRANCH   2  10
ENDBRANCH   1   4
BRANCH   1  14
ATOM     14  C   UNL     1       1.760   8.499  19.374  0.00  0.00    +0.000 C 
ATOM     15  O   UNL     1       2.316   9.203  18.526  0.00  0.00    +0.000 OA
ATOM     16  N   UNL     1       1.032   9.044  20.406  0.00  0.00    +0.000 N 
ATOM     17  H   UNL     1       0.771   8.478  21.210  0.00  0.00    +0.000 HD
BRANCH  16  18
ATOM     18  C   UNL     1       0.839  10.495  20.557  0.00  0.00    +0.000 C 
BRANCH  18  19
ATOM     19  C   UNL     1      -0.026  10.788  21.796  0.00  0.00    +0.000 C 
ATOM     20  N   UNL     1      -0.626   9.710  22.395  0.00  0.00    +0.000 N 
ATOM     21  O   UNL     1      -0.226  11.920  22.216  0.00  0.00    +0.000 OA
ATOM     22  H   UNL     1      -0.649   8.785  21.985  0.00  0.00    +0.000 HD
ATOM     23  H   UNL     1      -1.220   9.889  23.194  0.00  0.00    +0.000 HD
ENDBRANCH  18  19
BRANCH  18  24
ATOM     24  C   UNL     1       0.295  11.208  19.303  0.00  0.00    +0.000 C 
BRANCH  24  25
ATOM     25  C   UNL     1      -1.134  10.947  18.880  0.00  0.00    +0.000 A 
ATOM     26  C   UNL     1      -2.182  11.790  19.282  0.00  0.00    +0.000 A 
ATOM     27  C   UNL     1      -3.457  11.657  18.724  0.00  0.00    +0.000 A 
ATOM     28  C   UNL     1      -3.702  10.672  17.770  0.00  0.00    +0.000 A 
ATOM     29  C   UNL     1      -2.684   9.794  17.403  0.00  0.00    +0.000 A 
ATOM     30  C   UNL     1      -1.411   9.926  17.960  0.00  0.00    +0.000 A 
ENDBRANCH  24  25
ENDBRANCH  18  24
ENDBRANCH  16  18
ENDBRANCH   1  14
BRANCH   1  31
ATOM     31  C   UNL     1       1.821   6.286  20.707  0.00  0.00    +0.000 C 
BRANCH  31  32
ATOM     32  C   UNL     1       1.321   4.840  20.645  0.00  0.00    +0.000 C 
BRANCH  32  33
ATOM     33  C   UNL     1       2.409   3.805  20.928  0.00  0.00    +0.000 C 
BRANCH  33  34
ATOM     34  N   UNL     1       2.445   2.872  19.817  0.00  0.00    +0.000 N 
ATOM     35  C   UNL     1       3.544   2.220  19.389  0.00  0.00    +0.000 C 
ATOM     36  N   UNL     1       4.762   2.401  19.733  0.00  0.00    +0.000 NA
ATOM     37  N   UNL     1       3.235   1.289  18.467  0.00  0.00    +0.000 N 
ATOM     38  H   UNL     1       1.605   2.314  19.714  0.00  0.00    +0.000 HD
ATOM     39  H   UNL     1       4.811   3.141  20.433  0.00  0.00    +0.000 HD
ATOM     40  H   UNL     1       2.575   1.614  17.774  0.00  0.00    +0.000 HD
ATOM     41  H   UNL     1       4.090   0.962  18.024  0.00  0.00    +0.000 HD
ENDBRANCH  33  34
ENDBRANCH  32  33
ENDBRANCH  31  32
ENDBRANCH   1  31
TORSDOF 12
ENDMDL
MODEL 6
REMARK VINA RESULT:      -7.8      2.048      8.349
REMARK  Name = 
REMARK  13 active torsions:
REMARK  status: ('A' for Active; 'I' for Inactive)
REMARK    1  A    between atoms: C_1  and  O_2
REMARK    2  A    between atoms: O_2  and  C_3
REMARK    3  A    between atoms: C_7  and  C_8
REMARK    4  A    between atoms: N_10  and  C_11
REMARK    5  A    between atoms: C_11  and  C_12
REMARK    6  A    between atoms: C_11  and  C_19
REMARK    7  A    between atoms: C_12  and  C_13
REMARK    8  A    between atoms: C_13  and  C_14
REMARK    9  A    between atoms: C_14  and  N_15
REMARK   10  A    between atoms: N_21  and  C_22
REMARK   11  A    between atoms: C_22  and  C_23
REMARK   12  A    between atoms: C_22  and  C_30
REMARK   13  A    between atoms: C_23  and  C_24
REMARK                            x       y       z     vdW  Elec       q    Type
REMARK                         _______ _______ _______ _____ _____    ______ ____
ROOT
ATOM      1  C   UNL     1       2.914   5.444  18.639  0.00  0.00    +0.000 C 
ENDROOT
BRANCH   1   4
ATOM      2  C   UNL     1       1.802   7.034  20.211  0.00  0.00    +0.000 C 
ATOM      3  O   UNL     1       1.731   6.206  21.112  0.00  0.00    +0.000 OA
ATOM      4  N   UNL     1       2.366   6.762  18.987  0.00  0.00    +0.000 N 
ATOM      5  H   UNL     1       2.579   7.518  18.343  0.00  0.00    +0.000 HD
BRANCH   2  10
ATOM      6  C   UNL     1       0.421  10.190  21.837  0.00  0.00    +0.000 A 
ATOM      7  C   UNL     1       0.364  11.036  20.725  0.00  0.00    +0.000 A 
ATOM      8  C   UNL     1       0.782  10.591  19.472  0.00  0.00    +0.000 A 
ATOM      9  C   UNL     1       1.252   9.286  19.321  0.00  0.00    +0.000 A 
ATOM     10  C   UNL     1       1.293   8.422  20.423  0.00  0.00    +0.000 A 
ATOM     11  C   UNL     1       0.896   8.882  21.689  0.00  0.00    +0.000 A 
BRANCH   6  13
ATOM     12  C   UNL     1      -1.394  11.036  23.126  0.00  0.00    +0.000 C 
ATOM     13  O   UNL     1      -0.008  10.763  23.003  0.00  0.00    +0.000 OA
ENDBRANCH   6  13
ENDBRANCH   2  10
ENDBRANCH   1   4
BRANCH   1  14
ATOM     14  C   UNL     1       4.151   5.667  17.726  0.00  0.00    +0.000 C 
ATOM     15  O   UNL     1       4.529   6.805  17.431  0.00  0.00    +0.000 OA
ATOM     16  N   UNL     1       4.801   4.544  17.270  0.00  0.00    +0.000 N 
ATOM     17  H   UNL     1       4.360   3.630  17.332  0.00  0.00    +0.000 HD
BRANCH  16  18
ATOM     18  C   UNL     1       6.004   4.616  16.426  0.00  0.00    +0.000 C 
BRANCH  18  19
ATOM     19  C   UNL     1       7.198   5.132  17.250  0.00  0.00    +0.000 C 
ATOM     20  N   UNL     1       7.634   4.325  18.269  0.00  0.00    +0.000 N 
ATOM     21  O   UNL     1       7.717   6.224  17.060  0.00  0.00    +0.000 OA
ATOM     22  H   UNL     1       7.130   3.508  18.590  0.00  0.00    +0.000 HD
ATOM     23  H   UNL     1       8.400   4.662  18.838  0.00  0.00    +0.000 HD
ENDBRANCH  18  19
BRANCH  18  24
ATOM     24  C   UNL     1       5.830   5.414  15.118  0.00  0.00    +0.000 C 
BRANCH  24  25
ATOM     25  C   UNL     1       6.083   4.716  13.800  0.00  0.00    +0.000 A 
ATOM     26  C   UNL     1       7.267   4.927  13.077  0.00  0.00    +0.000 A 
ATOM     27  C   UNL     1       7.578   4.129  11.971  0.00  0.00    +0.000 A 
ATOM     28  C   UNL     1       6.702   3.124  11.568  0.00  0.00    +0.000 A 
ATOM     29  C   UNL     1       5.497   2.942  12.244  0.00  0.00    +0.000 A 
ATOM     30  C   UNL     1       5.187   3.738  13.348  0.00  0.00    +0.000 A 
ENDBRANCH  24  25
ENDBRANCH  18  24
ENDBRANCH  16  18
ENDBRANCH   1  14
BRANCH   1  31
ATOM     31  C   UNL     1       1.829   4.563  17.990  0.00  0.00    +0.000 C 
BRANCH  31  32
ATOM     32  C   UNL     1       1.220   3.571  18.985  0.00  0.00    +0.000 C 
BRANCH  32  33
ATOM     33  C   UNL     1       1.736   2.143  18.817  0.00  0.00    +0.000 C 
BRANCH  33  34
ATOM     34  N   UNL     1       3.173   2.155  19.023  0.00  0.00    +0.000 N 
ATOM     35  C   UNL     1       3.783   2.248  20.220  0.00  0.00    +0.000 C 
ATOM     36  N   UNL     1       3.266   2.509  21.360  0.00  0.00    +0.000 NA
ATOM     37  N   UNL     1       5.110   2.047  20.114  0.00  0.00    +0.000 N 
ATOM     38  H   UNL     1       3.691   1.573  18.374  0.00  0.00    +0.000 HD
ATOM     39  H   UNL     1       2.259   2.634  21.255  0.00  0.00    +0.000 HD
ATOM     40  H   UNL     1       5.526   2.530  19.329  0.00  0.00    +0.000 HD
ATOM     41  H   UNL     1       5.560   2.321  20.983  0.00  0.00    +0.000 HD
ENDBRANCH  33  34
ENDBRANCH  32  33
ENDBRANCH  31  32
ENDBRANCH   1  31
TORSDOF 12
ENDMDL
MODEL 7
REMARK VINA RESULT:      -7.7      2.221      7.914
REMARK  Name = 
REMARK  13 active torsions:
REMARK  status: ('A' for Active; 'I' for Inactive)
REMARK    1  A    between atoms: C_1  and  O_2
REMARK    2  A    between atoms: O_2  and  C_3
REMARK    3  A    between atoms: C_7  and  C_8
REMARK    4  A    between atoms: N_10  and  C_11
REMARK    5  A    between atoms: C_11  and  C_12
REMARK    6  A    between atoms: C_11  and  C_19
REMARK    7  A    between atoms: C_12  and  C_13
REMARK    8  A    between atoms: C_13  and  C_14
REMARK    9  A    between atoms: C_14  and  N_15
REMARK   10  A    between atoms: N_21  and  C_22
REMARK   11  A    between atoms: C_22  and  C_23
REMARK   12  A    between atoms: C_22  and  C_30
REMARK   13  A    between atoms: C_23  and  C_24
REMARK                            x       y       z     vdW  Elec       q    Type
REMARK                         _______ _______ _______ _____ _____    ______ ____
ROOT
ATOM      1  C   UNL     1       3.483   4.925  18.725  0.00  0.00    +0.000 C 
ENDROOT
BRANCH   1   4
ATOM      2  C   UNL     1       2.067   6.506  20.044  0.00  0.00    +0.000 C 
ATOM      3  O   UNL     1       1.606   5.617  20.750  0.00  0.00    +0.000 OA
ATOM      4  N   UNL     1       2.987   6.270  19.048  0.00  0.00    +0.000 N 
ATOM      5  H   UNL     1       3.485   7.044  18.619  0.00  0.00    +0.000 HD
BRANCH   2  10
ATOM      6  C   UNL     1       1.138  10.152  19.450  0.00  0.00    +0.000 A 
ATOM      7  C   UNL     1       0.891  10.560  20.763  0.00  0.00    +0.000 A 
ATOM      8  C   UNL     1       1.009   9.661  21.821  0.00  0.00    +0.000 A 
ATOM      9  C   UNL     1       1.390   8.342  21.571  0.00  0.00    +0.000 A 
ATOM     10  C   UNL     1       1.662   7.926  20.261  0.00  0.00    +0.000 A 
ATOM     11  C   UNL     1       1.516   8.828  19.195  0.00  0.00    +0.000 A 
BRANCH   6  13
ATOM     12  C   UNL     1      -0.275  11.812  18.491  0.00  0.00    +0.000 C 
ATOM     13  O   UNL     1       0.971  11.135  18.513  0.00  0.00    +0.000 OA
ENDBRANCH   6  13
ENDBRANCH   2  10
ENDBRANCH   1   4
BRANCH   1  14
ATOM     14  C   UNL     1       5.015   5.026  18.491  0.00  0.00    +0.000 C 
ATOM     15  O   UNL     1       5.815   4.501  19.270  0.00  0.00    +0.000 OA
ATOM     16  N   UNL     1       5.432   5.719  17.378  0.00  0.00    +0.000 N 
ATOM     17  H   UNL     1       4.790   6.326  16.876  0.00  0.00    +0.000 HD
BRANCH  16  18
ATOM     18  C   UNL     1       6.853   5.860  17.023  0.00  0.00    +0.000 C 
BRANCH  18  19
ATOM     19  C   UNL     1       7.526   6.902  17.935  0.00  0.00    +0.000 C 
ATOM     20  N   UNL     1       8.120   6.427  19.075  0.00  0.00    +0.000 N 
ATOM     21  O   UNL     1       7.503   8.104  17.703  0.00  0.00    +0.000 OA
ATOM     22  H   UNL     1       8.008   5.479  19.410  0.00  0.00    +0.000 HD
ATOM     23  H   UNL     1       8.543   7.103  19.699  0.00  0.00    +0.000 HD
ENDBRANCH  18  19
BRANCH  18  24
ATOM     24  C   UNL     1       7.122   6.151  15.533  0.00  0.00    +0.000 C 
BRANCH  24  25
ATOM     25  C   UNL     1       6.768   5.095  14.509  0.00  0.00    +0.000 A 
ATOM     26  C   UNL     1       5.572   4.366  14.594  0.00  0.00    +0.000 A 
ATOM     27  C   UNL     1       5.164   3.543  13.539  0.00  0.00    +0.000 A 
ATOM     28  C   UNL     1       5.954   3.427  12.398  0.00  0.00    +0.000 A 
ATOM     29  C   UNL     1       7.171   4.102  12.327  0.00  0.00    +0.000 A 
ATOM     30  C   UNL     1       7.579   4.924  13.378  0.00  0.00    +0.000 A 
ENDBRANCH  24  25
ENDBRANCH  18  24
ENDBRANCH  16  18
ENDBRANCH   1  14
BRANCH   1  31
ATOM     31  C   UNL     1       2.719   4.345  17.520  0.00  0.00    +0.000 C 
BRANCH  31  32
ATOM     32  C   UNL     1       1.439   3.619  17.943  0.00  0.00    +0.000 C 
BRANCH  32  33
ATOM     33  C   UNL     1       1.695   2.277  18.627  0.00  0.00    +0.000 C 
BRANCH  33  34
ATOM     34  N   UNL     1       1.550   2.466  20.059  0.00  0.00    +0.000 N 
ATOM     35  C   UNL     1       2.570   2.561  20.935  0.00  0.00    +0.000 C 
ATOM     36  N   UNL     1       3.814   2.343  20.736  0.00  0.00    +0.000 NA
ATOM     37  N   UNL     1       2.136   2.918  22.158  0.00  0.00    +0.000 N 
ATOM     38  H   UNL     1       0.762   3.046  20.325  0.00  0.00    +0.000 HD
ATOM     39  H   UNL     1       3.961   2.083  19.761  0.00  0.00    +0.000 HD
ATOM     40  H   UNL     1       1.305   2.421  22.449  0.00  0.00    +0.000 HD
ATOM     41  H   UNL     1       2.887   2.785  22.831  0.00  0.00    +0.000 HD
ENDBRANCH  33  34
ENDBRANCH  32  33
ENDBRANCH  31  32
ENDBRANCH   1  31
TORSDOF 12
ENDMDL
MODEL 8
REMARK VINA RESULT:      -7.7      2.184      7.862
REMARK  Name = 
REMARK  13 active torsions:
REMARK  status: ('A' for Active; 'I' for Inactive)
REMARK    1  A    between atoms: C_1  and  O_2
REMARK    2  A    between atoms: O_2  and  C_3
REMARK    3  A    between atoms: C_7  and  C_8
REMARK    4  A    between atoms: N_10  and  C_11
REMARK    5  A    between atoms: C_11  and  C_12
REMARK    6  A    between atoms: C_11  and  C_19
REMARK    7  A    between atoms: C_12  and  C_13
REMARK    8  A    between atoms: C_13  and  C_14
REMARK    9  A    between atoms: C_14  and  N_15
REMARK   10  A    between atoms: N_21  and  C_22
REMARK   11  A    between atoms: C_22  and  C_23
REMARK   12  A    between atoms: C_22  and  C_30
REMARK   13  A    between atoms: C_23  and  C_24
REMARK                            x       y       z     vdW  Elec       q    Type
REMARK                         _______ _______ _______ _____ _____    ______ ____
ROOT
ATOM      1  C   UNL     1       3.266   4.974  18.984  0.00  0.00    +0.000 C 
ENDROOT
BRANCH   1   4
ATOM      2  C   UNL     1       1.865   6.615  20.242  0.00  0.00    +0.000 C 
ATOM      3  O   UNL     1       1.334   5.747  20.925  0.00  0.00    +0.000 OA
ATOM      4  N   UNL     1       2.817   6.340  19.288  0.00  0.00    +0.000 N 
ATOM      5  H   UNL     1       3.368   7.091  18.884  0.00  0.00    +0.000 HD
BRANCH   2  10
ATOM      6  C   UNL     1       1.103  10.294  19.614  0.00  0.00    +0.000 A 
ATOM      7  C   UNL     1       0.840  10.718  20.920  0.00  0.00    +0.000 A 
ATOM      8  C   UNL     1       0.896   9.818  21.984  0.00  0.00    +0.000 A 
ATOM      9  C   UNL     1       1.227   8.485  21.747  0.00  0.00    +0.000 A 
ATOM     10  C   UNL     1       1.514   8.052  20.446  0.00  0.00    +0.000 A 
ATOM     11  C   UNL     1       1.432   8.955  19.373  0.00  0.00    +0.000 A 
BRANCH   6  13
ATOM     12  C   UNL     1      -0.186  12.058  18.665  0.00  0.00    +0.000 C 
ATOM     13  O   UNL     1       1.000  11.279  18.671  0.00  0.00    +0.000 OA
ENDBRANCH   6  13
ENDBRANCH   2  10
ENDBRANCH   1   4
BRANCH   1  14
ATOM     14  C   UNL     1       4.816   4.949  19.086  0.00  0.00    +0.000 C 
ATOM     15  O   UNL     1       5.386   4.339  19.996  0.00  0.00    +0.000 OA
ATOM     16  N   UNL     1       5.517   5.630  18.117  0.00  0.00    +0.000 N 
ATOM     17  H   UNL     1       5.047   6.301  17.515  0.00  0.00    +0.000 HD
BRANCH  16  18
ATOM     18  C   UNL     1       6.988   5.658  18.079  0.00  0.00    +0.000 C 
BRANCH  18  19
ATOM     19  C   UNL     1       7.484   7.096  17.848  0.00  0.00    +0.000 C 
ATOM     20  N   UNL     1       8.398   7.582  18.748  0.00  0.00    +0.000 N 
ATOM     21  O   UNL     1       7.065   7.809  16.946  0.00  0.00    +0.000 OA
ATOM     22  H   UNL     1       8.636   7.111  19.611  0.00  0.00    +0.000 HD
ATOM     23  H   UNL     1       8.713   8.536  18.626  0.00  0.00    +0.000 HD
ENDBRANCH  18  19
BRANCH  18  24
ATOM     24  C   UNL     1       7.627   4.670  17.083  0.00  0.00    +0.000 C 
BRANCH  24  25
ATOM     25  C   UNL     1       7.042   4.557  15.693  0.00  0.00    +0.000 A 
ATOM     26  C   UNL     1       7.667   5.151  14.586  0.00  0.00    +0.000 A 
ATOM     27  C   UNL     1       7.231   4.871  13.287  0.00  0.00    +0.000 A 
ATOM     28  C   UNL     1       6.157   4.009  13.081  0.00  0.00    +0.000 A 
ATOM     29  C   UNL     1       5.493   3.457  14.175  0.00  0.00    +0.000 A 
ATOM     30  C   UNL     1       5.927   3.736  15.472  0.00  0.00    +0.000 A 
ENDBRANCH  24  25
ENDBRANCH  18  24
ENDBRANCH  16  18
ENDBRANCH   1  14
BRANCH   1  31
ATOM     31  C   UNL     1       2.740   4.528  17.607  0.00  0.00    +0.000 C 
BRANCH  31  32
ATOM     32  C   UNL     1       1.819   3.308  17.710  0.00  0.00    +0.000 C 
BRANCH  32  33
ATOM     33  C   UNL     1       2.336   2.230  18.661  0.00  0.00    +0.000 C 
BRANCH  33  34
ATOM     34  N   UNL     1       1.558   2.296  19.884  0.00  0.00    +0.000 N 
ATOM     35  C   UNL     1       2.069   2.458  21.120  0.00  0.00    +0.000 C 
ATOM     36  N   UNL     1       3.293   2.415  21.488  0.00  0.00    +0.000 NA
ATOM     37  N   UNL     1       1.100   2.667  22.030  0.00  0.00    +0.000 N 
ATOM     38  H   UNL     1       0.657   2.750  19.780  0.00  0.00    +0.000 HD
ATOM     39  H   UNL     1       3.886   2.246  20.675  0.00  0.00    +0.000 HD
ATOM     40  H   UNL     1       0.307   2.049  21.921  0.00  0.00    +0.000 HD
ATOM     41  H   UNL     1       1.494   2.583  22.963  0.00  0.00    +0.000 HD
ENDBRANCH  33  34
ENDBRANCH  32  33
ENDBRANCH  31  32
ENDBRANCH   1  31
TORSDOF 12
ENDMDL
MODEL 9
REMARK VINA RESULT:      -7.7      2.494      7.901
REMARK  Name = 
REMARK  13 active torsions:
REMARK  status: ('A' for Active; 'I' for Inactive)
REMARK    1  A    between atoms: C_1  and  O_2
REMARK    2  A    between atoms: O_2  and  C_3
REMARK    3  A    between atoms: C_7  and  C_8
REMARK    4  A    between atoms: N_10  and  C_11
REMARK    5  A    between atoms: C_11  and  C_12
REMARK    6  A    between atoms: C_11  and  C_19
REMARK    7  A    between atoms: C_12  and  C_13
REMARK    8  A    between atoms: C_13  and  C_14
REMARK    9  A    between atoms: C_14  and  N_15
REMARK   10  A    between atoms: N_21  and  C_22
REMARK   11  A    between atoms: C_22  and  C_23
REMARK   12  A    between atoms: C_22  and  C_30
REMARK   13  A    between atoms: C_23  and  C_24
REMARK                            x       y       z     vdW  Elec       q    Type
REMARK                         _______ _______ _______ _____ _____    ______ ____
ROOT
ATOM      1  C   UNL     1       3.299   4.423  18.526  0.00  0.00    +0.000 C 
ENDROOT
BRANCH   1   4
ATOM      2  C   UNL     1       2.407   6.546  19.493  0.00  0.00    +0.000 C 
ATOM      3  O   UNL     1       2.363   6.094  20.631  0.00  0.00    +0.000 OA
ATOM      4  N   UNL     1       2.854   5.818  18.415  0.00  0.00    +0.000 N 
ATOM      5  H   UNL     1       3.056   6.282  17.534  0.00  0.00    +0.000 HD
BRANCH   2  10
ATOM      6  C   UNL     1       0.903  10.025  19.872  0.00  0.00    +0.000 A 
ATOM      7  C   UNL     1       1.273  10.588  18.648  0.00  0.00    +0.000 A 
ATOM      8  C   UNL     1       2.012   9.853  17.721  0.00  0.00    +0.000 A 
ATOM      9  C   UNL     1       2.377   8.539  18.012  0.00  0.00    +0.000 A 
ATOM     10  C   UNL     1       1.993   7.956  19.227  0.00  0.00    +0.000 A 
ATOM     11  C   UNL     1       1.272   8.708  20.168  0.00  0.00    +0.000 A 
BRANCH   6  13
ATOM     12  C   UNL     1      -0.075  10.421  22.008  0.00  0.00    +0.000 C 
ATOM     13  O   UNL     1       0.193  10.864  20.687  0.00  0.00    +0.000 OA
ENDBRANCH   6  13
ENDBRANCH   2  10
ENDBRANCH   1   4
BRANCH   1  14
ATOM     14  C   UNL     1       4.841   4.398  18.340  0.00  0.00    +0.000 C 
ATOM     15  O   UNL     1       5.545   3.590  18.953  0.00  0.00    +0.000 OA
ATOM     16  N   UNL     1       5.378   5.310  17.461  0.00  0.00    +0.000 N 
ATOM     17  H   UNL     1       4.829   6.102  17.138  0.00  0.00    +0.000 HD
BRANCH  16  18
ATOM     18  C   UNL     1       6.819   5.369  17.168  0.00  0.00    +0.000 C 
BRANCH  18  19
ATOM     19  C   UNL     1       7.548   6.175  18.259  0.00  0.00    +0.000 C 
ATOM     20  N   UNL     1       7.820   5.516  19.430  0.00  0.00    +0.000 N 
ATOM     21  O   UNL     1       7.836   7.358  18.133  0.00  0.00    +0.000 OA
ATOM     22  H   UNL     1       7.443   4.606  19.659  0.00  0.00    +0.000 HD
ATOM     23  H   UNL     1       8.275   6.040  20.167  0.00  0.00    +0.000 HD
ENDBRANCH  18  19
BRANCH  18  24
ATOM     24  C   UNL     1       7.172   5.878  15.756  0.00  0.00    +0.000 C 
BRANCH  24  25
ATOM     25  C   UNL     1       6.906   4.976  14.570  0.00  0.00    +0.000 A 
ATOM     26  C   UNL     1       5.793   4.122  14.537  0.00  0.00    +0.000 A 
ATOM     27  C   UNL     1       5.447   3.449  13.361  0.00  0.00    +0.000 A 
ATOM     28  C   UNL     1       6.219   3.609  12.212  0.00  0.00    +0.000 A 
ATOM     29  C   UNL     1       7.358   4.411  12.249  0.00  0.00    +0.000 A 
ATOM     30  C   UNL     1       7.703   5.083  13.422  0.00  0.00    +0.000 A 
ENDBRANCH  24  25
ENDBRANCH  18  24
ENDBRANCH  16  18
ENDBRANCH   1  14
BRANCH   1  31
ATOM     31  C   UNL     1       2.549   3.535  17.515  0.00  0.00    +0.000 C 
BRANCH  31  32
ATOM     32  C   UNL     1       1.482   2.667  18.189  0.00  0.00    +0.000 C 
BRANCH  32  33
ATOM     33  C   UNL     1       0.654   3.417  19.231  0.00  0.00    +0.000 C 
BRANCH  33  34
ATOM     34  N   UNL     1       0.630   2.622  20.445  0.00  0.00    +0.000 N 
ATOM     35  C   UNL     1       1.487   2.755  21.476  0.00  0.00    +0.000 C 
ATOM     36  N   UNL     1       2.559   3.451  21.536  0.00  0.00    +0.000 NA
ATOM     37  N   UNL     1       1.106   2.013  22.533  0.00  0.00    +0.000 N 
ATOM     38  H   UNL     1      -0.300   2.360  20.753  0.00  0.00    +0.000 HD
ATOM     39  H   UNL     1       2.694   3.942  20.653  0.00  0.00    +0.000 HD
ATOM     40  H   UNL     1       0.807   1.081  22.281  0.00  0.00    +0.000 HD
ATOM     41  H   UNL     1       1.866   1.976  23.207  0.00  0.00    +0.000 HD
ENDBRANCH  33  34
ENDBRANCH  32  33
ENDBRANCH  31  32
ENDBRANCH   1  31
TORSDOF 12
ENDMDL
