MODEL 1
REMARK VINA RESULT:      -7.7      0.000      0.000
REMARK  Name = 
REMARK  6 active torsions:
REMARK  status: ('A' for Active; 'I' for Inactive)
REMARK    1  A    between atoms: C_2  and  C_26
REMARK    2  A    between atoms: N_3  and  C_4
REMARK    3  A    between atoms: C_6  and  C_7
REMARK    4  A    between atoms: C_14  and  C_15
REMARK    5  A    between atoms: C_21  and  O_22
REMARK    6  A    between atoms: O_22  and  C_23
REMARK                            x       y       z     vdW  Elec       q    Type
REMARK                         _______ _______ _______ _____ _____    ______ ____
ROOT
ATOM      1  C   UNL     1      -0.350  12.629  19.500  0.00  0.00    +0.000 A 
ATOM      2  S   UNL     1      -0.016  14.235  19.039  0.00  0.00    +0.000 S 
ATOM      3  C   UNL     1       1.664  13.905  19.096  0.00  0.00    +0.000 A 
ATOM      4  N   UNL     1       1.972  12.652  19.355  0.00  0.00    +0.000 NA
ATOM      5  C   UNL     1       0.831  11.902  19.595  0.00  0.00    +0.000 A 
ENDROOT
BRANCH   5   6
ATOM      6  C   UNL     1       0.963  10.466  19.860  0.00  0.00    +0.000 A 
ATOM      7  C   UNL     1       1.456   9.659  18.813  0.00  0.00    +0.000 A 
ATOM      8  C   UNL     1       1.845   8.337  19.003  0.00  0.00    +0.000 A 
ATOM      9 CL   UNL     1       2.508   7.470  17.672  0.00  0.00    +0.000 Cl
ATOM     10  C   UNL     1       1.755   7.776  20.251  0.00  0.00    +0.000 A 
ATOM     11  C   UNL     1       1.222   8.528  21.300  0.00  0.00    +0.000 A 
ATOM     12  C   UNL     1       0.800   9.865  21.126  0.00  0.00    +0.000 A 
BRANCH  12  13
ATOM     13  O   UNL     1       0.357  10.394  22.307  0.00  0.00    +0.000 OA
BRANCH  13  14
ATOM     14  C   UNL     1      -0.528   9.678  23.159  0.00  0.00    +0.000 C 
ATOM     15  F   UNL     1       0.094   9.278  24.294  0.00  0.00    +0.000 F 
ATOM     16  F   UNL     1      -1.491  10.560  23.551  0.00  0.00    +0.000 F 
ENDBRANCH  13  14
ENDBRANCH  12  13
ENDBRANCH   5   6
BRANCH   3  17
ATOM     17  C   UNL     1       2.642  14.951  18.790  0.00  0.00    +0.000 A 
ATOM     18  C   UNL     1       3.973  14.852  19.205  0.00  0.00    +0.000 A 
ATOM     19  C   UNL     1       4.828  15.906  18.948  0.00  0.00    +0.000 A 
ATOM     20  N   UNL     1       4.457  17.030  18.303  0.00  0.00    +0.000 NA
ATOM     21  C   UNL     1       3.176  17.098  17.884  0.00  0.00    +0.000 A 
ATOM     22  C   UNL     1       2.245  16.095  18.089  0.00  0.00    +0.000 A 
ENDBRANCH   3  17
BRANCH   1  25
ATOM     23  O   UNL     1      -1.822  11.748  17.247  0.00  0.00    +0.000 OA
ATOM     24  C   UNL     1      -2.346  11.890  18.352  0.00  0.00    +0.000 C 
ATOM     25  N   UNL     1      -1.690  12.298  19.491  0.00  0.00    +0.000 N 
ATOM     26  H   UNL     1      -2.258  12.432  20.323  0.00  0.00    +0.000 HD
BRANCH  24  27
ATOM     27  C   UNL     1      -3.764  11.640  18.534  0.00  0.00    +0.000 A 
ATOM     28  C   UNL     1      -4.623  10.877  17.724  0.00  0.00    +0.000 A 
ATOM     29  N   UNL     1      -5.867  10.800  18.197  0.00  0.00    +0.000 NA
ATOM     30  N   UNL     1      -5.831  11.508  19.350  0.00  0.00    +0.000 N 
ATOM     31  C   UNL     1      -6.844  11.667  20.289  0.00  0.00    +0.000 A 
ATOM     32  C   UNL     1      -6.638  12.403  21.392  0.00  0.00    +0.000 A 
ATOM     33  C   UNL     1      -5.287  13.020  21.495  0.00  0.00    +0.000 A 
ATOM     34  N   UNL     1      -4.309  12.883  20.649  0.00  0.00    +0.000 NA
ATOM     35  C   UNL     1      -4.574  12.091  19.566  0.00  0.00    +0.000 A 
ENDBRANCH  24  27
ENDBRANCH   1  25
TORSDOF 6
ENDMDL
MODEL 2
REMARK VINA RESULT:      -7.6      1.581      1.979
REMARK  Name = 
REMARK  6 active torsions:
REMARK  status: ('A' for Active; 'I' for Inactive)
REMARK    1  A    between atoms: C_2  and  C_26
REMARK    2  A    between atoms: N_3  and  C_4
REMARK    3  A    between atoms: C_6  and  C_7
REMARK    4  A    between atoms: C_14  and  C_15
REMARK    5  A    between atoms: C_21  and  O_22
REMARK    6  A    between atoms: O_22  and  C_23
REMARK                            x       y       z     vdW  Elec       q    Type
REMARK                         _______ _______ _______ _____ _____    ______ ____
ROOT
ATOM      1  C   UNL     1      -0.803  13.165  19.730  0.00  0.00    +0.000 A 
ATOM      2  S   UNL     1      -0.067  14.437  18.868  0.00  0.00    +0.000 S 
ATOM      3  C   UNL     1       1.445  14.044  19.572  0.00  0.00    +0.000 A 
ATOM      4  N   UNL     1       1.435  12.974  20.339  0.00  0.00    +0.000 NA
ATOM      5  C   UNL     1       0.154  12.456  20.447  0.00  0.00    +0.000 A 
ENDROOT
BRANCH   5   6
ATOM      6  C   UNL     1      -0.057  11.232  21.227  0.00  0.00    +0.000 A 
ATOM      7  C   UNL     1       0.559  10.053  20.758  0.00  0.00    +0.000 A 
ATOM      8  C   UNL     1       0.632   8.890  21.517  0.00  0.00    +0.000 A 
ATOM      9 CL   UNL     1       1.480   7.535  20.878  0.00  0.00    +0.000 Cl
ATOM     10  C   UNL     1       0.090   8.867  22.777  0.00  0.00    +0.000 A 
ATOM     11  C   UNL     1      -0.575   9.999  23.254  0.00  0.00    +0.000 A 
ATOM     12  C   UNL     1      -0.681  11.184  22.491  0.00  0.00    +0.000 A 
BRANCH  12  13
ATOM     13  O   UNL     1      -1.340  12.156  23.192  0.00  0.00    +0.000 OA
BRANCH  13  14
ATOM     14  C   UNL     1      -2.741  12.350  23.061  0.00  0.00    +0.000 C 
ATOM     15  F   UNL     1      -3.400  11.971  24.182  0.00  0.00    +0.000 F 
ATOM     16  F   UNL     1      -2.941  13.695  22.947  0.00  0.00    +0.000 F 
ENDBRANCH  13  14
ENDBRANCH  12  13
ENDBRANCH   5   6
BRANCH   3  17
ATOM     17  C   UNL     1       2.644  14.820  19.248  0.00  0.00    +0.000 A 
ATOM     18  C   UNL     1       2.975  15.981  19.952  0.00  0.00    +0.000 A 
ATOM     19  C   UNL     1       4.079  16.708  19.550  0.00  0.00    +0.000 A 
ATOM     20  N   UNL     1       4.873  16.353  18.521  0.00  0.00    +0.000 NA
ATOM     21  C   UNL     1       4.557  15.214  17.870  0.00  0.00    +0.000 A 
ATOM     22  C   UNL     1       3.475  14.416  18.198  0.00  0.00    +0.000 A 
ENDBRANCH   3  17
BRANCH   1  25
ATOM     23  O   UNL     1      -1.783  11.099  18.059  0.00  0.00    +0.000 OA
ATOM     24  C   UNL     1      -2.531  11.929  18.577  0.00  0.00    +0.000 C 
ATOM     25  N   UNL     1      -2.127  12.947  19.409  0.00  0.00    +0.000 N 
ATOM     26  H   UNL     1      -2.844  13.598  19.717  0.00  0.00    +0.000 HD
BRANCH  24  27
ATOM     27  C   UNL     1      -3.959  11.898  18.316  0.00  0.00    +0.000 A 
ATOM     28  C   UNL     1      -4.615  11.626  17.103  0.00  0.00    +0.000 A 
ATOM     29  N   UNL     1      -5.944  11.623  17.209  0.00  0.00    +0.000 NA
ATOM     30  N   UNL     1      -6.176  11.880  18.517  0.00  0.00    +0.000 N 
ATOM     31  C   UNL     1      -7.397  11.895  19.184  0.00  0.00    +0.000 A 
ATOM     32  C   UNL     1      -7.449  12.164  20.498  0.00  0.00    +0.000 A 
ATOM     33  C   UNL     1      -6.134  12.450  21.136  0.00  0.00    +0.000 A 
ATOM     34  N   UNL     1      -4.973  12.429  20.554  0.00  0.00    +0.000 NA
ATOM     35  C   UNL     1      -4.987  12.113  19.223  0.00  0.00    +0.000 A 
ENDBRANCH  24  27
ENDBRANCH   1  25
TORSDOF 6
ENDMDL
MODEL 3
REMARK VINA RESULT:      -7.4      3.494      7.103
REMARK  Name = 
REMARK  6 active torsions:
REMARK  status: ('A' for Active; 'I' for Inactive)
REMARK    1  A    between atoms: C_2  and  C_26
REMARK    2  A    between atoms: N_3  and  C_4
REMARK    3  A    between atoms: C_6  and  C_7
REMARK    4  A    between atoms: C_14  and  C_15
REMARK    5  A    between atoms: C_21  and  O_22
REMARK    6  A    between atoms: O_22  and  C_23
REMARK                            x       y       z     vdW  Elec       q    Type
REMARK                         _______ _______ _______ _____ _____    ______ ____
ROOT
ATOM      1  C   UNL     1       1.166  11.753  18.758  0.00  0.00    +0.000 A 
ATOM      2  S   UNL     1       2.449  10.762  18.234  0.00  0.00    +0.000 S 
ATOM      3  C   UNL     1       1.639   9.383  18.849  0.00  0.00    +0.000 A 
ATOM      4  N   UNL     1       0.441   9.619  19.340  0.00  0.00    +0.000 NA
ATOM      5  C   UNL     1       0.150  10.975  19.302  0.00  0.00    +0.000 A 
ENDROOT
BRANCH   5   6
ATOM      6  C   UNL     1      -1.162  11.437  19.765  0.00  0.00    +0.000 A 
ATOM      7  C   UNL     1      -1.277  11.800  21.123  0.00  0.00    +0.000 A 
ATOM      8  C   UNL     1      -2.387  12.466  21.632  0.00  0.00    +0.000 A 
ATOM      9 CL   UNL     1      -2.385  12.934  23.288  0.00  0.00    +0.000 Cl
ATOM     10  C   UNL     1      -3.424  12.792  20.796  0.00  0.00    +0.000 A 
ATOM     11  C   UNL     1      -3.369  12.401  19.456  0.00  0.00    +0.000 A 
ATOM     12  C   UNL     1      -2.261  11.705  18.923  0.00  0.00    +0.000 A 
BRANCH  12  13
ATOM     13  O   UNL     1      -2.430  11.473  17.585  0.00  0.00    +0.000 OA
BRANCH  13  14
ATOM     14  C   UNL     1      -2.669  10.167  17.079  0.00  0.00    +0.000 C 
ATOM     15  F   UNL     1      -1.510   9.503  16.856  0.00  0.00    +0.000 F 
ATOM     16  F   UNL     1      -3.311   9.477  18.064  0.00  0.00    +0.000 F 
ENDBRANCH  13  14
ENDBRANCH  12  13
ENDBRANCH   5   6
BRANCH   3  17
ATOM     17  C   UNL     1       2.240   8.052  18.739  0.00  0.00    +0.000 A 
ATOM     18  C   UNL     1       2.028   7.071  19.711  0.00  0.00    +0.000 A 
ATOM     19  C   UNL     1       2.682   5.861  19.586  0.00  0.00    +0.000 A 
ATOM     20  N   UNL     1       3.509   5.560  18.566  0.00  0.00    +0.000 NA
ATOM     21  C   UNL     1       3.681   6.508  17.619  0.00  0.00    +0.000 A 
ATOM     22  C   UNL     1       3.068   7.748  17.653  0.00  0.00    +0.000 A 
ENDBRANCH   3  17
BRANCH   1  25
ATOM     23  O   UNL     1       2.783  13.719  20.000  0.00  0.00    +0.000 OA
ATOM     24  C   UNL     1       2.067  13.980  19.033  0.00  0.00    +0.000 C 
ATOM     25  N   UNL     1       1.269  13.074  18.373  0.00  0.00    +0.000 N 
ATOM     26  H   UNL     1       0.682  13.439  17.628  0.00  0.00    +0.000 HD
BRANCH  24  27
ATOM     27  C   UNL     1       1.998  15.332  18.510  0.00  0.00    +0.000 A 
ATOM     28  C   UNL     1       2.996  16.053  17.830  0.00  0.00    +0.000 A 
ATOM     29  N   UNL     1       2.597  17.261  17.430  0.00  0.00    +0.000 NA
ATOM     30  N   UNL     1       1.308  17.338  17.835  0.00  0.00    +0.000 N 
ATOM     31  C   UNL     1       0.393  18.356  17.588  0.00  0.00    +0.000 A 
ATOM     32  C   UNL     1      -0.860  18.271  18.061  0.00  0.00    +0.000 A 
ATOM     33  C   UNL     1      -1.153  17.046  18.855  0.00  0.00    +0.000 A 
ATOM     34  N   UNL     1      -0.333  16.067  19.094  0.00  0.00    +0.000 NA
ATOM     35  C   UNL     1       0.916  16.199  18.553  0.00  0.00    +0.000 A 
ENDBRANCH  24  27
ENDBRANCH   1  25
TORSDOF 6
ENDMDL
MODEL 4
REMARK VINA RESULT:      -7.4      3.308      6.638
REMARK  Name = 
REMARK  6 active torsions:
REMARK  status: ('A' for Active; 'I' for Inactive)
REMARK    1  A    between atoms: C_2  and  C_26
REMARK    2  A    between atoms: N_3  and  C_4
REMARK    3  A    between atoms: C_6  and  C_7
REMARK    4  A    between atoms: C_14  and  C_15
REMARK    5  A    between atoms: C_21  and  O_22
REMARK    6  A    between atoms: O_22  and  C_23
REMARK                            x       y       z     vdW  Elec       q    Type
REMARK                         _______ _______ _______ _____ _____    ______ ____
ROOT
ATOM      1  C   UNL     1       1.107  11.977  19.225  0.00  0.00    +0.000 A 
ATOM      2  S   UNL     1       2.125  10.928  18.351  0.00  0.00    +0.000 S 
ATOM      3  C   UNL     1       1.532   9.597  19.252  0.00  0.00    +0.000 A 
ATOM      4  N   UNL     1       0.567   9.889  20.098  0.00  0.00    +0.000 NA
ATOM      5  C   UNL     1       0.310  11.251  20.102  0.00  0.00    +0.000 A 
ENDROOT
BRANCH   5   6
ATOM      6  C   UNL     1      -0.768  11.771  20.951  0.00  0.00    +0.000 A 
ATOM      7  C   UNL     1      -1.846  12.413  20.305  0.00  0.00    +0.000 A 
ATOM      8  C   UNL     1      -3.027  12.740  20.961  0.00  0.00    +0.000 A 
ATOM      9 CL   UNL     1      -4.309  13.448  20.056  0.00  0.00    +0.000 Cl
ATOM     10  C   UNL     1      -3.172  12.435  22.291  0.00  0.00    +0.000 A 
ATOM     11  C   UNL     1      -2.106  11.847  22.975  0.00  0.00    +0.000 A 
ATOM     12  C   UNL     1      -0.889  11.527  22.334  0.00  0.00    +0.000 A 
BRANCH  12  13
ATOM     13  O   UNL     1      -0.023  10.926  23.207  0.00  0.00    +0.000 OA
BRANCH  13  14
ATOM     14  C   UNL     1      -0.018   9.518  23.404  0.00  0.00    +0.000 C 
ATOM     15  F   UNL     1      -0.931   8.906  22.612  0.00  0.00    +0.000 F 
ATOM     16  F   UNL     1       1.200   9.069  22.986  0.00  0.00    +0.000 F 
ENDBRANCH  13  14
ENDBRANCH  12  13
ENDBRANCH   5   6
BRANCH   3  17
ATOM     17  C   UNL     1       2.035   8.244  19.005  0.00  0.00    +0.000 A 
ATOM     18  C   UNL     1       1.923   7.235  19.966  0.00  0.00    +0.000 A 
ATOM     19  C   UNL     1       2.483   6.001  19.700  0.00  0.00    +0.000 A 
ATOM     20  N   UNL     1       3.123   5.702  18.553  0.00  0.00    +0.000 NA
ATOM     21  C   UNL     1       3.198   6.678  17.623  0.00  0.00    +0.000 A 
ATOM     22  C   UNL     1       2.667   7.944  17.793  0.00  0.00    +0.000 A 
ENDBRANCH   3  17
BRANCH   1  25
ATOM     23  O   UNL     1       2.928  14.002  20.006  0.00  0.00    +0.000 OA
ATOM     24  C   UNL     1       2.016  14.218  19.208  0.00  0.00    +0.000 C 
ATOM     25  N   UNL     1       1.106  13.281  18.774  0.00  0.00    +0.000 N 
ATOM     26  H   UNL     1       0.367  13.612  18.161  0.00  0.00    +0.000 HD
BRANCH  24  27
ATOM     27  C   UNL     1       1.816  15.547  18.659  0.00  0.00    +0.000 A 
ATOM     28  C   UNL     1       2.729  16.332  17.932  0.00  0.00    +0.000 A 
ATOM     29  N   UNL     1       2.217  17.493  17.519  0.00  0.00    +0.000 NA
ATOM     30  N   UNL     1       0.939  17.471  17.964  0.00  0.00    +0.000 N 
ATOM     31  C   UNL     1      -0.066  18.403  17.725  0.00  0.00    +0.000 A 
ATOM     32  C   UNL     1      -1.293  18.224  18.240  0.00  0.00    +0.000 A 
ATOM     33  C   UNL     1      -1.456  16.999  19.070  0.00  0.00    +0.000 A 
ATOM     34  N   UNL     1      -0.550  16.098  19.303  0.00  0.00    +0.000 NA
ATOM     35  C   UNL     1       0.667  16.321  18.719  0.00  0.00    +0.000 A 
ENDBRANCH  24  27
ENDBRANCH   1  25
TORSDOF 6
ENDMDL
MODEL 5
REMARK VINA RESULT:      -7.4      1.665      2.148
REMARK  Name = 
REMARK  6 active torsions:
REMARK  status: ('A' for Active; 'I' for Inactive)
REMARK    1  A    between atoms: C_2  and  C_26
REMARK    2  A    between atoms: N_3  and  C_4
REMARK    3  A    between atoms: C_6  and  C_7
REMARK    4  A    between atoms: C_14  and  C_15
REMARK    5  A    between atoms: C_21  and  O_22
REMARK    6  A    between atoms: O_22  and  C_23
REMARK                            x       y       z     vdW  Elec       q    Type
REMARK                         _______ _______ _______ _____ _____    ______ ____
ROOT
ATOM      1  C   UNL     1      -0.322  12.923  19.474  0.00  0.00    +0.000 A 
ATOM      2  S   UNL     1       0.554  14.134  18.656  0.00  0.00    +0.000 S 
ATOM      3  C   UNL     1       1.934  13.782  19.610  0.00  0.00    +0.000 A 
ATOM      4  N   UNL     1       1.792  12.765  20.432  0.00  0.00    +0.000 NA
ATOM      5  C   UNL     1       0.502  12.259  20.374  0.00  0.00    +0.000 A 
ENDROOT
BRANCH   5   6
ATOM      6  C   UNL     1       0.157  11.089  21.188  0.00  0.00    +0.000 A 
ATOM      7  C   UNL     1       0.630   9.835  20.749  0.00  0.00    +0.000 A 
ATOM      8  C   UNL     1       0.574   8.692  21.539  0.00  0.00    +0.000 A 
ATOM      9 CL   UNL     1       1.255   7.232  20.933  0.00  0.00    +0.000 Cl
ATOM     10  C   UNL     1       0.042   8.765  22.801  0.00  0.00    +0.000 A 
ATOM     11  C   UNL     1      -0.484   9.979  23.250  0.00  0.00    +0.000 A 
ATOM     12  C   UNL     1      -0.458  11.147  22.456  0.00  0.00    +0.000 A 
BRANCH  12  13
ATOM     13  O   UNL     1      -0.995  12.208  23.133  0.00  0.00    +0.000 OA
BRANCH  13  14
ATOM     14  C   UNL     1      -2.360  12.575  22.983  0.00  0.00    +0.000 C 
ATOM     15  F   UNL     1      -2.885  12.069  21.842  0.00  0.00    +0.000 F 
ATOM     16  F   UNL     1      -3.039  11.978  24.004  0.00  0.00    +0.000 F 
ENDBRANCH  13  14
ENDBRANCH  12  13
ENDBRANCH   5   6
BRANCH   3  17
ATOM     17  C   UNL     1       3.179  14.532  19.427  0.00  0.00    +0.000 A 
ATOM     18  C   UNL     1       3.767  14.678  18.167  0.00  0.00    +0.000 A 
ATOM     19  C   UNL     1       4.979  15.334  18.072  0.00  0.00    +0.000 A 
ATOM     20  N   UNL     1       5.628  15.860  19.129  0.00  0.00    +0.000 NA
ATOM     21  C   UNL     1       5.034  15.737  20.335  0.00  0.00    +0.000 A 
ATOM     22  C   UNL     1       3.820  15.101  20.533  0.00  0.00    +0.000 A 
ENDBRANCH   3  17
BRANCH   1  25
ATOM     23  O   UNL     1      -1.082  10.705  17.885  0.00  0.00    +0.000 OA
ATOM     24  C   UNL     1      -1.879  11.593  18.187  0.00  0.00    +0.000 C 
ATOM     25  N   UNL     1      -1.584  12.689  18.965  0.00  0.00    +0.000 N 
ATOM     26  H   UNL     1      -2.321  13.378  19.085  0.00  0.00    +0.000 HD
BRANCH  24  27
ATOM     27  C   UNL     1      -3.247  11.553  17.703  0.00  0.00    +0.000 A 
ATOM     28  C   UNL     1      -3.707  11.175  16.429  0.00  0.00    +0.000 A 
ATOM     29  N   UNL     1      -5.036  11.196  16.318  0.00  0.00    +0.000 NA
ATOM     30  N   UNL     1      -5.467  11.577  17.543  0.00  0.00    +0.000 N 
ATOM     31  C   UNL     1      -6.778  11.667  17.998  0.00  0.00    +0.000 A 
ATOM     32  C   UNL     1      -7.033  12.059  19.257  0.00  0.00    +0.000 A 
ATOM     33  C   UNL     1      -5.832  12.390  20.071  0.00  0.00    +0.000 A 
ATOM     34  N   UNL     1      -4.593  12.303  19.689  0.00  0.00    +0.000 NA
ATOM     35  C   UNL     1      -4.401  11.863  18.408  0.00  0.00    +0.000 A 
ENDBRANCH  24  27
ENDBRANCH   1  25
TORSDOF 6
ENDMDL
MODEL 6
REMARK VINA RESULT:      -7.4      3.919      6.211
REMARK  Name = 
REMARK  6 active torsions:
REMARK  status: ('A' for Active; 'I' for Inactive)
REMARK    1  A    between atoms: C_2  and  C_26
REMARK    2  A    between atoms: N_3  and  C_4
REMARK    3  A    between atoms: C_6  and  C_7
REMARK    4  A    between atoms: C_14  and  C_15
REMARK    5  A    between atoms: C_21  and  O_22
REMARK    6  A    between atoms: O_22  and  C_23
REMARK                            x       y       z     vdW  Elec       q    Type
REMARK                         _______ _______ _______ _____ _____    ______ ____
ROOT
ATOM      1  C   UNL     1      -0.401  10.606  20.191  0.00  0.00    +0.000 A 
ATOM      2  S   UNL     1       1.030   9.813  20.667  0.00  0.00    +0.000 S 
ATOM      3  C   UNL     1       1.059   8.966  19.178  0.00  0.00    +0.000 A 
ATOM      4  N   UNL     1       0.114   9.309  18.328  0.00  0.00    +0.000 NA
ATOM      5  C   UNL     1      -0.738  10.246  18.891  0.00  0.00    +0.000 A 
ENDROOT
BRANCH   5   6
ATOM      6  C   UNL     1      -1.835  10.790  18.083  0.00  0.00    +0.000 A 
ATOM      7  C   UNL     1      -1.896  10.395  16.730  0.00  0.00    +0.000 A 
ATOM      8  C   UNL     1      -3.001  10.647  15.923  0.00  0.00    +0.000 A 
ATOM      9 CL   UNL     1      -3.002  10.049  14.309  0.00  0.00    +0.000 Cl
ATOM     10  C   UNL     1      -4.086  11.305  16.444  0.00  0.00    +0.000 A 
ATOM     11  C   UNL     1      -4.039  11.757  17.765  0.00  0.00    +0.000 A 
ATOM     12  C   UNL     1      -2.919  11.531  18.596  0.00  0.00    +0.000 A 
BRANCH  12  13
ATOM     13  O   UNL     1      -3.134  12.034  19.850  0.00  0.00    +0.000 OA
BRANCH  13  14
ATOM     14  C   UNL     1      -4.270  12.834  20.148  0.00  0.00    +0.000 C 
ATOM     15  F   UNL     1      -5.080  12.228  21.048  0.00  0.00    +0.000 F 
ATOM     16  F   UNL     1      -3.805  13.960  20.762  0.00  0.00    +0.000 F 
ENDBRANCH  13  14
ENDBRANCH  12  13
ENDBRANCH   5   6
BRANCH   3  17
ATOM     17  C   UNL     1       2.124   8.003  18.887  0.00  0.00    +0.000 A 
ATOM     18  C   UNL     1       2.929   8.124  17.750  0.00  0.00    +0.000 A 
ATOM     19  C   UNL     1       3.867   7.143  17.494  0.00  0.00    +0.000 A 
ATOM     20  N   UNL     1       4.066   6.074  18.289  0.00  0.00    +0.000 NA
ATOM     21  C   UNL     1       3.301   5.986  19.398  0.00  0.00    +0.000 A 
ATOM     22  C   UNL     1       2.338   6.918  19.743  0.00  0.00    +0.000 A 
ENDBRANCH   3  17
BRANCH   1  25
ATOM     23  O   UNL     1       1.129  12.812  21.094  0.00  0.00    +0.000 OA
ATOM     24  C   UNL     1      -0.027  12.621  21.473  0.00  0.00    +0.000 C 
ATOM     25  N   UNL     1      -0.831  11.582  21.065  0.00  0.00    +0.000 N 
ATOM     26  H   UNL     1      -1.744  11.511  21.506  0.00  0.00    +0.000 HD
BRANCH  24  27
ATOM     27  C   UNL     1      -0.643  13.514  22.438  0.00  0.00    +0.000 A 
ATOM     28  C   UNL     1      -0.248  14.815  22.795  0.00  0.00    +0.000 A 
ATOM     29  N   UNL     1      -1.062  15.392  23.679  0.00  0.00    +0.000 NA
ATOM     30  N   UNL     1      -2.024  14.467  23.901  0.00  0.00    +0.000 N 
ATOM     31  C   UNL     1      -3.173  14.596  24.674  0.00  0.00    +0.000 A 
ATOM     32  C   UNL     1      -4.035  13.573  24.783  0.00  0.00    +0.000 A 
ATOM     33  C   UNL     1      -3.647  12.339  24.047  0.00  0.00    +0.000 A 
ATOM     34  N   UNL     1      -2.593  12.184  23.303  0.00  0.00    +0.000 NA
ATOM     35  C   UNL     1      -1.775  13.276  23.204  0.00  0.00    +0.000 A 
ENDBRANCH  24  27
ENDBRANCH   1  25
TORSDOF 6
ENDMDL
MODEL 7
REMARK VINA RESULT:      -7.3      6.403      9.044
REMARK  Name = 
REMARK  6 active torsions:
REMARK  status: ('A' for Active; 'I' for Inactive)
REMARK    1  A    between atoms: C_2  and  C_26
REMARK    2  A    between atoms: N_3  and  C_4
REMARK    3  A    between atoms: C_6  and  C_7
REMARK    4  A    between atoms: C_14  and  C_15
REMARK    5  A    between atoms: C_21  and  O_22
REMARK    6  A    between atoms: O_22  and  C_23
REMARK                            x       y       z     vdW  Elec       q    Type
REMARK                         _______ _______ _______ _____ _____    ______ ____
ROOT
ATOM      1  C   UNL     1       4.392   6.353  17.049  0.00  0.00    +0.000 A 
ATOM      2  S   UNL     1       5.027   6.717  15.511  0.00  0.00    +0.000 S 
ATOM      3  C   UNL     1       5.413   5.064  15.276  0.00  0.00    +0.000 A 
ATOM      4  N   UNL     1       5.018   4.262  16.242  0.00  0.00    +0.000 NA
ATOM      5  C   UNL     1       4.433   4.982  17.273  0.00  0.00    +0.000 A 
ENDROOT
BRANCH   5   6
ATOM      6  C   UNL     1       3.885   4.259  18.426  0.00  0.00    +0.000 A 
ATOM      7  C   UNL     1       2.541   3.840  18.346  0.00  0.00    +0.000 A 
ATOM      8  C   UNL     1       1.974   2.956  19.258  0.00  0.00    +0.000 A 
ATOM      9 CL   UNL     1       0.347   2.448  19.018  0.00  0.00    +0.000 Cl
ATOM     10  C   UNL     1       2.736   2.458  20.284  0.00  0.00    +0.000 A 
ATOM     11  C   UNL     1       4.056   2.892  20.425  0.00  0.00    +0.000 A 
ATOM     12  C   UNL     1       4.646   3.807  19.524  0.00  0.00    +0.000 A 
BRANCH  12  13
ATOM     13  O   UNL     1       5.953   4.041  19.853  0.00  0.00    +0.000 OA
BRANCH  13  14
ATOM     14  C   UNL     1       6.656   5.173  19.358  0.00  0.00    +0.000 C 
ATOM     15  F   UNL     1       7.522   5.659  20.278  0.00  0.00    +0.000 F 
ATOM     16  F   UNL     1       7.422   4.732  18.319  0.00  0.00    +0.000 F 
ENDBRANCH  13  14
ENDBRANCH  12  13
ENDBRANCH   5   6
BRANCH   3  17
ATOM     17  C   UNL     1       6.061   4.616  14.041  0.00  0.00    +0.000 A 
ATOM     18  C   UNL     1       7.251   5.193  13.589  0.00  0.00    +0.000 A 
ATOM     19  C   UNL     1       7.772   4.777  12.379  0.00  0.00    +0.000 A 
ATOM     20  N   UNL     1       7.205   3.828  11.608  0.00  0.00    +0.000 NA
ATOM     21  C   UNL     1       6.072   3.260  12.072  0.00  0.00    +0.000 A 
ATOM     22  C   UNL     1       5.474   3.605  13.272  0.00  0.00    +0.000 A 
ENDBRANCH   3  17
BRANCH   1  25
ATOM     23  O   UNL     1       1.604   6.680  17.429  0.00  0.00    +0.000 OA
ATOM     24  C   UNL     1       2.418   7.517  17.820  0.00  0.00    +0.000 C 
ATOM     25  N   UNL     1       3.783   7.417  17.683  0.00  0.00    +0.000 N 
ATOM     26  H   UNL     1       4.334   8.211  17.996  0.00  0.00    +0.000 HD
BRANCH  24  27
ATOM     27  C   UNL     1       1.968   8.737  18.466  0.00  0.00    +0.000 A 
ATOM     28  C   UNL     1       1.880  10.029  17.919  0.00  0.00    +0.000 A 
ATOM     29  N   UNL     1       1.374  10.928  18.764  0.00  0.00    +0.000 NA
ATOM     30  N   UNL     1       1.104  10.219  19.884  0.00  0.00    +0.000 N 
ATOM     31  C   UNL     1       0.474  10.658  21.044  0.00  0.00    +0.000 A 
ATOM     32  C   UNL     1       0.277   9.815  22.070  0.00  0.00    +0.000 A 
ATOM     33  C   UNL     1       0.792   8.434  21.859  0.00  0.00    +0.000 A 
ATOM     34  N   UNL     1       1.369   7.981  20.787  0.00  0.00    +0.000 NA
ATOM     35  C   UNL     1       1.507   8.881  19.767  0.00  0.00    +0.000 A 
ENDBRANCH  24  27
ENDBRANCH   1  25
TORSDOF 6
ENDMDL
MODEL 8
REMARK VINA RESULT:      -7.3      2.528      3.702
REMARK  Name = 
REMARK  6 active torsions:
REMARK  status: ('A' for Active; 'I' for Inactive)
REMARK    1  A    between atoms: C_2  and  C_26
REMARK    2  A    between atoms: N_3  and  C_4
REMARK    3  A    between atoms: C_6  and  C_7
REMARK    4  A    between atoms: C_14  and  C_15
REMARK    5  A    between atoms: C_21  and  O_22
REMARK    6  A    between atoms: O_22  and  C_23
REMARK                            x       y       z     vdW  Elec       q    Type
REMARK                         _______ _______ _______ _____ _____    ______ ____
ROOT
ATOM      1  C   UNL     1      -1.033  13.537  20.550  0.00  0.00    +0.000 A 
ATOM      2  S   UNL     1      -0.079  14.903  20.907  0.00  0.00    +0.000 S 
ATOM      3  C   UNL     1       0.966  14.516  19.605  0.00  0.00    +0.000 A 
ATOM      4  N   UNL     1       0.589  13.482  18.882  0.00  0.00    +0.000 NA
ATOM      5  C   UNL     1      -0.554  12.902  19.410  0.00  0.00    +0.000 A 
ENDROOT
BRANCH   5   6
ATOM      6  C   UNL     1      -1.159  11.759  18.718  0.00  0.00    +0.000 A 
ATOM      7  C   UNL     1      -2.400  11.971  18.082  0.00  0.00    +0.000 A 
ATOM      8  C   UNL     1      -2.963  11.050  17.206  0.00  0.00    +0.000 A 
ATOM      9 CL   UNL     1      -4.443  11.448  16.424  0.00  0.00    +0.000 Cl
ATOM     10  C   UNL     1      -2.300   9.880  16.934  0.00  0.00    +0.000 A 
ATOM     11  C   UNL     1      -1.094   9.613  17.585  0.00  0.00    +0.000 A 
ATOM     12  C   UNL     1      -0.515  10.524  18.496  0.00  0.00    +0.000 A 
BRANCH  12  13
ATOM     13  O   UNL     1       0.679  10.050  18.966  0.00  0.00    +0.000 OA
BRANCH  13  14
ATOM     14  C   UNL     1       0.848   9.670  20.325  0.00  0.00    +0.000 C 
ATOM     15  F   UNL     1       1.203  10.727  21.093  0.00  0.00    +0.000 F 
ATOM     16  F   UNL     1      -0.377   9.275  20.775  0.00  0.00    +0.000 F 
ENDBRANCH  13  14
ENDBRANCH  12  13
ENDBRANCH   5   6
BRANCH   3  17
ATOM     17  C   UNL     1       2.132  15.351  19.309  0.00  0.00    +0.000 A 
ATOM     18  C   UNL     1       2.555  16.353  20.187  0.00  0.00    +0.000 A 
ATOM     19  C   UNL     1       3.617  17.155  19.817  0.00  0.00    +0.000 A 
ATOM     20  N   UNL     1       4.286  17.019  18.655  0.00  0.00    +0.000 NA
ATOM     21  C   UNL     1       3.885  16.029  17.831  0.00  0.00    +0.000 A 
ATOM     22  C   UNL     1       2.835  15.171  18.113  0.00  0.00    +0.000 A 
ENDBRANCH   3  17
BRANCH   1  25
ATOM     23  O   UNL     1      -1.429  11.787  22.742  0.00  0.00    +0.000 OA
ATOM     24  C   UNL     1      -2.313  12.548  22.348  0.00  0.00    +0.000 C 
ATOM     25  N   UNL     1      -2.186  13.433  21.301  0.00  0.00    +0.000 N 
ATOM     26  H   UNL     1      -3.016  13.958  21.043  0.00  0.00    +0.000 HD
BRANCH  24  27
ATOM     27  C   UNL     1      -3.621  12.550  22.978  0.00  0.00    +0.000 A 
ATOM     28  C   UNL     1      -3.945  12.221  24.307  0.00  0.00    +0.000 A 
ATOM     29  N   UNL     1      -5.239  12.376  24.589  0.00  0.00    +0.000 NA
ATOM     30  N   UNL     1      -5.781  12.832  23.436  0.00  0.00    +0.000 N 
ATOM     31  C   UNL     1      -7.089  13.245  23.210  0.00  0.00    +0.000 A 
ATOM     32  C   UNL     1      -7.463  13.679  21.996  0.00  0.00    +0.000 A 
ATOM     33  C   UNL     1      -6.394  13.657  20.961  0.00  0.00    +0.000 A 
ATOM     34  N   UNL     1      -5.158  13.295  21.135  0.00  0.00    +0.000 NA
ATOM     35  C   UNL     1      -4.834  12.898  22.403  0.00  0.00    +0.000 A 
ENDBRANCH  24  27
ENDBRANCH   1  25
TORSDOF 6
ENDMDL
MODEL 9
REMARK VINA RESULT:      -7.3      1.374      1.984
REMARK  Name = 
REMARK  6 active torsions:
REMARK  status: ('A' for Active; 'I' for Inactive)
REMARK    1  A    between atoms: C_2  and  C_26
REMARK    2  A    between atoms: N_3  and  C_4
REMARK    3  A    between atoms: C_6  and  C_7
REMARK    4  A    between atoms: C_14  and  C_15
REMARK    5  A    between atoms: C_21  and  O_22
REMARK    6  A    between atoms: O_22  and  C_23
REMARK                            x       y       z     vdW  Elec       q    Type
REMARK                         _______ _______ _______ _____ _____    ______ ____
ROOT
ATOM      1  C   UNL     1      -0.155  13.246  19.866  0.00  0.00    +0.000 A 
ATOM      2  S   UNL     1       0.291  14.867  19.591  0.00  0.00    +0.000 S 
ATOM      3  C   UNL     1       1.942  14.407  19.544  0.00  0.00    +0.000 A 
ATOM      4  N   UNL     1       2.157  13.113  19.637  0.00  0.00    +0.000 NA
ATOM      5  C   UNL     1       0.967  12.427  19.828  0.00  0.00    +0.000 A 
ENDROOT
BRANCH   5   6
ATOM      6  C   UNL     1       0.993  10.963  19.912  0.00  0.00    +0.000 A 
ATOM      7  C   UNL     1       1.484  10.260  18.791  0.00  0.00    +0.000 A 
ATOM      8  C   UNL     1       1.777   8.901  18.825  0.00  0.00    +0.000 A 
ATOM      9 CL   UNL     1       2.449   8.163  17.423  0.00  0.00    +0.000 Cl
ATOM     10  C   UNL     1       1.589   8.196  19.987  0.00  0.00    +0.000 A 
ATOM     11  C   UNL     1       1.054   8.847  21.101  0.00  0.00    +0.000 A 
ATOM     12  C   UNL     1       0.728  10.221  21.082  0.00  0.00    +0.000 A 
BRANCH  12  13
ATOM     13  O   UNL     1       0.261  10.628  22.302  0.00  0.00    +0.000 OA
BRANCH  13  14
ATOM     14  C   UNL     1      -0.574   9.796  23.096  0.00  0.00    +0.000 C 
ATOM     15  F   UNL     1       0.082   9.333  24.186  0.00  0.00    +0.000 F 
ATOM     16  F   UNL     1      -1.577  10.588  23.570  0.00  0.00    +0.000 F 
ENDBRANCH  13  14
ENDBRANCH  12  13
ENDBRANCH   5   6
BRANCH   3  17
ATOM     17  C   UNL     1       2.990  15.408  19.330  0.00  0.00    +0.000 A 
ATOM     18  C   UNL     1       4.011  15.208  18.397  0.00  0.00    +0.000 A 
ATOM     19  C   UNL     1       5.011  16.156  18.295  0.00  0.00    +0.000 A 
ATOM     20  N   UNL     1       5.053  17.280  19.037  0.00  0.00    +0.000 NA
ATOM     21  C   UNL     1       4.044  17.473  19.913  0.00  0.00    +0.000 A 
ATOM     22  C   UNL     1       2.997  16.585  20.087  0.00  0.00    +0.000 A 
ENDBRANCH   3  17
BRANCH   1  25
ATOM     23  O   UNL     1      -1.852  13.363  22.131  0.00  0.00    +0.000 OA
ATOM     24  C   UNL     1      -2.279  13.081  21.011  0.00  0.00    +0.000 C 
ATOM     25  N   UNL     1      -1.516  13.020  19.867  0.00  0.00    +0.000 N 
ATOM     26  H   UNL     1      -1.986  12.714  19.020  0.00  0.00    +0.000 HD
BRANCH  24  27
ATOM     27  C   UNL     1      -3.680  12.758  20.815  0.00  0.00    +0.000 A 
ATOM     28  C   UNL     1      -4.752  12.964  21.702  0.00  0.00    +0.000 A 
ATOM     29  N   UNL     1      -5.933  12.605  21.198  0.00  0.00    +0.000 NA
ATOM     30  N   UNL     1      -5.645  12.170  19.950  0.00  0.00    +0.000 N 
ATOM     31  C   UNL     1      -6.533  11.767  18.958  0.00  0.00    +0.000 A 
ATOM     32  C   UNL     1      -6.077  11.367  17.760  0.00  0.00    +0.000 A 
ATOM     33  C   UNL     1      -4.595  11.377  17.614  0.00  0.00    +0.000 A 
ATOM     34  N   UNL     1      -3.734  11.761  18.509  0.00  0.00    +0.000 NA
ATOM     35  C   UNL     1      -4.267  12.191  19.693  0.00  0.00    +0.000 A 
ENDBRANCH  24  27
ENDBRANCH   1  25
TORSDOF 6
ENDMDL
