MODEL 1
REMARK VINA RESULT:      -7.9      0.000      0.000
REMARK  Name = 
REMARK  6 active torsions:
REMARK  status: ('A' for Active; 'I' for Inactive)
REMARK    1  A    between atoms: C_2  and  C_9
REMARK    2  A    between atoms: N_3  and  C_4
REMARK    3  A    between atoms: C_12  and  C_13
REMARK    4  A    between atoms: C_13  and  S_14
REMARK    5  A    between atoms: S_14  and  C_16
REMARK    6  A    between atoms: C_16  and  C_17
REMARK                            x       y       z     vdW  Elec       q    Type
REMARK                         _______ _______ _______ _____ _____    ______ ____
ROOT
ATOM      1  C   UNL     1       7.849   7.723  17.865  0.00  0.00    +0.000 A 
ATOM      2  C   UNL     1       7.961   6.649  18.727  0.00  0.00    +0.000 A 
ATOM      3  C   UNL     1       7.554   5.501  18.021  0.00  0.00    +0.000 A 
ATOM      4  C   UNL     1       7.241   5.922  16.745  0.00  0.00    +0.000 A 
ATOM      5  O   UNL     1       7.381   7.287  16.645  0.00  0.00    +0.000 OA
ENDROOT
BRANCH   1   7
ATOM      6  O   UNL     1       7.728  10.025  17.415  0.00  0.00    +0.000 OA
ATOM      7  C   UNL     1       8.179   9.116  18.113  0.00  0.00    +0.000 C 
ATOM      8  N   UNL     1       9.038   9.373  19.161  0.00  0.00    +0.000 N 
ATOM      9  H   UNL     1       9.293   8.599  19.763  0.00  0.00    +0.000 HD
BRANCH   8  10
ATOM     10  C   UNL     1       9.422  10.732  19.486  0.00  0.00    +0.000 C 
ATOM     11  C   UNL     1       9.407  11.026  20.983  0.00  0.00    +0.000 C 
ATOM     12  C   UNL     1      10.206  12.320  21.096  0.00  0.00    +0.000 C 
ATOM     13  C   UNL     1      11.207  12.294  19.940  0.00  0.00    +0.000 C 
ATOM     14  C   UNL     1      10.853  11.076  19.089  0.00  0.00    +0.000 C 
ENDBRANCH   8  10
ENDBRANCH   1   7
BRANCH   4  15
ATOM     15  C   UNL     1       6.875   5.155  15.525  0.00  0.00    +0.000 C 
BRANCH  15  16
ATOM     16  S   UNL     1       5.196   4.463  15.744  0.00  0.00    +0.000 S 
ATOM     17  O   UNL     1       5.324   3.159  16.616  0.00  0.00    +0.000 OA
BRANCH  16  18
ATOM     18  C   UNL     1       4.558   5.778  16.832  0.00  0.00    +0.000 C 
BRANCH  18  19
ATOM     19  C   UNL     1       3.667   5.203  17.908  0.00  0.00    +0.000 A 
ATOM     20  C   UNL     1       4.052   5.263  19.258  0.00  0.00    +0.000 A 
ATOM     21  C   UNL     1       3.251   4.699  20.254  0.00  0.00    +0.000 A 
ATOM     22  C   UNL     1       2.060   4.067  19.908  0.00  0.00    +0.000 A 
ATOM     23 CL   UNL     1       1.069   3.375  21.133  0.00  0.00    +0.000 Cl
ATOM     24  C   UNL     1       1.669   3.988  18.574  0.00  0.00    +0.000 A 
ATOM     25  C   UNL     1       2.470   4.551  17.575  0.00  0.00    +0.000 A 
ENDBRANCH  18  19
ENDBRANCH  16  18
ENDBRANCH  15  16
ENDBRANCH   4  15
TORSDOF 6
ENDMDL
MODEL 2
REMARK VINA RESULT:      -7.3      4.850      6.681
REMARK  Name = 
REMARK  6 active torsions:
REMARK  status: ('A' for Active; 'I' for Inactive)
REMARK    1  A    between atoms: C_2  and  C_9
REMARK    2  A    between atoms: N_3  and  C_4
REMARK    3  A    between atoms: C_12  and  C_13
REMARK    4  A    between atoms: C_13  and  S_14
REMARK    5  A    between atoms: S_14  and  C_16
REMARK    6  A    between atoms: C_16  and  C_17
REMARK                            x       y       z     vdW  Elec       q    Type
REMARK                         _______ _______ _______ _____ _____    ______ ____
ROOT
ATOM      1  C   UNL     1       2.043   7.340  18.785  0.00  0.00    +0.000 A 
ATOM      2  C   UNL     1       2.367   6.882  20.048  0.00  0.00    +0.000 A 
ATOM      3  C   UNL     1       2.446   5.479  19.977  0.00  0.00    +0.000 A 
ATOM      4  C   UNL     1       2.196   5.143  18.663  0.00  0.00    +0.000 A 
ATOM      5  O   UNL     1       1.910   6.270  17.928  0.00  0.00    +0.000 OA
ENDROOT
BRANCH   1   7
ATOM      6  O   UNL     1       2.374   9.117  17.286  0.00  0.00    +0.000 OA
ATOM      7  C   UNL     1       1.879   8.713  18.338  0.00  0.00    +0.000 C 
ATOM      8  N   UNL     1       1.154   9.550  19.161  0.00  0.00    +0.000 N 
ATOM      9  H   UNL     1       0.684   9.138  19.958  0.00  0.00    +0.000 HD
BRANCH   8  10
ATOM     10  C   UNL     1       0.935  10.935  18.796  0.00  0.00    +0.000 C 
ATOM     11  C   UNL     1      -0.531  11.272  18.539  0.00  0.00    +0.000 C 
ATOM     12  C   UNL     1      -0.556  12.796  18.581  0.00  0.00    +0.000 C 
ATOM     13  C   UNL     1       0.567  13.205  19.536  0.00  0.00    +0.000 C 
ATOM     14  C   UNL     1       1.321  11.924  19.890  0.00  0.00    +0.000 C 
ENDBRANCH   8  10
ENDBRANCH   1   7
BRANCH   4  15
ATOM     15  C   UNL     1       2.262   3.835  17.959  0.00  0.00    +0.000 C 
BRANCH  15  16
ATOM     16  S   UNL     1       3.843   3.016  18.377  0.00  0.00    +0.000 S 
ATOM     17  O   UNL     1       3.628   1.462  18.252  0.00  0.00    +0.000 OA
BRANCH  16  18
ATOM     18  C   UNL     1       4.764   3.552  16.899  0.00  0.00    +0.000 C 
BRANCH  18  19
ATOM     19  C   UNL     1       5.598   4.776  17.196  0.00  0.00    +0.000 A 
ATOM     20  C   UNL     1       5.180   6.045  16.762  0.00  0.00    +0.000 A 
ATOM     21  C   UNL     1       5.965   7.175  17.000  0.00  0.00    +0.000 A 
ATOM     22  C   UNL     1       7.177   7.046  17.672  0.00  0.00    +0.000 A 
ATOM     23 CL   UNL     1       8.146   8.436  17.971  0.00  0.00    +0.000 Cl
ATOM     24  C   UNL     1       7.613   5.793  18.099  0.00  0.00    +0.000 A 
ATOM     25  C   UNL     1       6.829   4.661  17.861  0.00  0.00    +0.000 A 
ENDBRANCH  18  19
ENDBRANCH  16  18
ENDBRANCH  15  16
ENDBRANCH   4  15
TORSDOF 6
ENDMDL
MODEL 3
REMARK VINA RESULT:      -7.2      1.257      1.399
REMARK  Name = 
REMARK  6 active torsions:
REMARK  status: ('A' for Active; 'I' for Inactive)
REMARK    1  A    between atoms: C_2  and  C_9
REMARK    2  A    between atoms: N_3  and  C_4
REMARK    3  A    between atoms: C_12  and  C_13
REMARK    4  A    between atoms: C_13  and  S_14
REMARK    5  A    between atoms: S_14  and  C_16
REMARK    6  A    between atoms: C_16  and  C_17
REMARK                            x       y       z     vdW  Elec       q    Type
REMARK                         _______ _______ _______ _____ _____    ______ ____
ROOT
ATOM      1  C   UNL     1       7.755   8.467  17.928  0.00  0.00    +0.000 A 
ATOM      2  C   UNL     1       8.241   7.259  18.392  0.00  0.00    +0.000 A 
ATOM      3  C   UNL     1       7.344   6.259  17.973  0.00  0.00    +0.000 A 
ATOM      4  C   UNL     1       6.364   6.898  17.244  0.00  0.00    +0.000 A 
ATOM      5  O   UNL     1       6.582   8.256  17.239  0.00  0.00    +0.000 OA
ENDROOT
BRANCH   1   7
ATOM      6  O   UNL     1       8.101  10.696  17.275  0.00  0.00    +0.000 OA
ATOM      7  C   UNL     1       8.341   9.788  18.072  0.00  0.00    +0.000 C 
ATOM      8  N   UNL     1       9.195   9.975  19.139  0.00  0.00    +0.000 N 
ATOM      9  H   UNL     1       9.273   9.228  19.818  0.00  0.00    +0.000 HD
BRANCH   8  10
ATOM     10  C   UNL     1       9.823  11.261  19.366  0.00  0.00    +0.000 C 
ATOM     11  C   UNL     1       9.907  11.646  20.840  0.00  0.00    +0.000 C 
ATOM     12  C   UNL     1      10.925  12.781  20.852  0.00  0.00    +0.000 C 
ATOM     13  C   UNL     1      11.870  12.504  19.681  0.00  0.00    +0.000 C 
ATOM     14  C   UNL     1      11.279  11.319  18.920  0.00  0.00    +0.000 C 
ENDBRANCH   8  10
ENDBRANCH   1   7
BRANCH   4  15
ATOM     15  C   UNL     1       5.226   6.359  16.451  0.00  0.00    +0.000 C 
BRANCH  15  16
ATOM     16  S   UNL     1       5.861   5.104  15.283  0.00  0.00    +0.000 S 
ATOM     17  O   UNL     1       7.380   5.422  15.014  0.00  0.00    +0.000 OA
BRANCH  16  18
ATOM     18  C   UNL     1       5.802   3.689  16.430  0.00  0.00    +0.000 C 
BRANCH  18  19
ATOM     19  C   UNL     1       4.587   3.769  17.323  0.00  0.00    +0.000 A 
ATOM     20  C   UNL     1       4.733   3.837  18.719  0.00  0.00    +0.000 A 
ATOM     21  C   UNL     1       3.613   3.872  19.553  0.00  0.00    +0.000 A 
ATOM     22  C   UNL     1       2.337   3.836  18.998  0.00  0.00    +0.000 A 
ATOM     23 CL   UNL     1       0.955   3.883  20.022  0.00  0.00    +0.000 Cl
ATOM     24  C   UNL     1       2.173   3.756  17.617  0.00  0.00    +0.000 A 
ATOM     25  C   UNL     1       3.293   3.720  16.781  0.00  0.00    +0.000 A 
ENDBRANCH  18  19
ENDBRANCH  16  18
ENDBRANCH  15  16
ENDBRANCH   4  15
TORSDOF 6
ENDMDL
MODEL 4
REMARK VINA RESULT:      -7.2      4.834      6.653
REMARK  Name = 
REMARK  6 active torsions:
REMARK  status: ('A' for Active; 'I' for Inactive)
REMARK    1  A    between atoms: C_2  and  C_9
REMARK    2  A    between atoms: N_3  and  C_4
REMARK    3  A    between atoms: C_12  and  C_13
REMARK    4  A    between atoms: C_13  and  S_14
REMARK    5  A    between atoms: S_14  and  C_16
REMARK    6  A    between atoms: C_16  and  C_17
REMARK                            x       y       z     vdW  Elec       q    Type
REMARK                         _______ _______ _______ _____ _____    ______ ____
ROOT
ATOM      1  C   UNL     1       2.153   7.353  18.698  0.00  0.00    +0.000 A 
ATOM      2  C   UNL     1       2.692   6.966  19.910  0.00  0.00    +0.000 A 
ATOM      3  C   UNL     1       2.761   5.560  19.907  0.00  0.00    +0.000 A 
ATOM      4  C   UNL     1       2.289   5.152  18.677  0.00  0.00    +0.000 A 
ATOM      5  O   UNL     1       1.877   6.237  17.939  0.00  0.00    +0.000 OA
ENDROOT
BRANCH   1   7
ATOM      6  O   UNL     1       2.541   9.170  17.261  0.00  0.00    +0.000 OA
ATOM      7  C   UNL     1       1.911   8.700  18.209  0.00  0.00    +0.000 C 
ATOM      8  N   UNL     1       0.950   9.436  18.870  0.00  0.00    +0.000 N 
ATOM      9  H   UNL     1       0.393   8.964  19.571  0.00  0.00    +0.000 HD
BRANCH   8  10
ATOM     10  C   UNL     1       0.637  10.788  18.451  0.00  0.00    +0.000 C 
ATOM     11  C   UNL     1      -0.826  11.166  18.660  0.00  0.00    +0.000 C 
ATOM     12  C   UNL     1      -0.818  12.686  18.542  0.00  0.00    +0.000 C 
ATOM     13  C   UNL     1       0.564  13.134  19.019  0.00  0.00    +0.000 C 
ATOM     14  C   UNL     1       1.378  11.860  19.239  0.00  0.00    +0.000 C 
ENDBRANCH   8  10
ENDBRANCH   1   7
BRANCH   4  15
ATOM     15  C   UNL     1       2.237   3.805  18.047  0.00  0.00    +0.000 C 
BRANCH  15  16
ATOM     16  S   UNL     1       3.845   2.972  18.298  0.00  0.00    +0.000 S 
ATOM     17  O   UNL     1       3.619   1.425  18.110  0.00  0.00    +0.000 OA
BRANCH  16  18
ATOM     18  C   UNL     1       4.647   3.586  16.781  0.00  0.00    +0.000 C 
BRANCH  18  19
ATOM     19  C   UNL     1       5.551   4.758  17.084  0.00  0.00    +0.000 A 
ATOM     20  C   UNL     1       6.735   4.572  17.817  0.00  0.00    +0.000 A 
ATOM     21  C   UNL     1       7.556   5.657  18.135  0.00  0.00    +0.000 A 
ATOM     22  C   UNL     1       7.198   6.937  17.724  0.00  0.00    +0.000 A 
ATOM     23 CL   UNL     1       8.208   8.276  18.110  0.00  0.00    +0.000 Cl
ATOM     24  C   UNL     1       6.021   7.142  17.007  0.00  0.00    +0.000 A 
ATOM     25  C   UNL     1       5.198   6.057  16.689  0.00  0.00    +0.000 A 
ENDBRANCH  18  19
ENDBRANCH  16  18
ENDBRANCH  15  16
ENDBRANCH   4  15
TORSDOF 6
ENDMDL
MODEL 5
REMARK VINA RESULT:      -6.9      4.658      6.711
REMARK  Name = 
REMARK  6 active torsions:
REMARK  status: ('A' for Active; 'I' for Inactive)
REMARK    1  A    between atoms: C_2  and  C_9
REMARK    2  A    between atoms: N_3  and  C_4
REMARK    3  A    between atoms: C_12  and  C_13
REMARK    4  A    between atoms: C_13  and  S_14
REMARK    5  A    between atoms: S_14  and  C_16
REMARK    6  A    between atoms: C_16  and  C_17
REMARK                            x       y       z     vdW  Elec       q    Type
REMARK                         _______ _______ _______ _____ _____    ______ ____
ROOT
ATOM      1  C   UNL     1       2.456   8.462  18.019  0.00  0.00    +0.000 A 
ATOM      2  C   UNL     1       2.325   7.412  18.907  0.00  0.00    +0.000 A 
ATOM      3  C   UNL     1       3.388   6.522  18.663  0.00  0.00    +0.000 A 
ATOM      4  C   UNL     1       4.141   7.086  17.654  0.00  0.00    +0.000 A 
ATOM      5  O   UNL     1       3.562   8.256  17.223  0.00  0.00    +0.000 OA
ENDROOT
BRANCH   1   7
ATOM      6  O   UNL     1       2.092  10.737  17.565  0.00  0.00    +0.000 OA
ATOM      7  C   UNL     1       1.625   9.647  17.896  0.00  0.00    +0.000 C 
ATOM      8  N   UNL     1       0.285   9.497  18.185  0.00  0.00    +0.000 N 
ATOM      9  H   UNL     1      -0.061   8.560  18.349  0.00  0.00    +0.000 HD
BRANCH   8  10
ATOM     10  C   UNL     1      -0.623  10.623  18.086  0.00  0.00    +0.000 C 
ATOM     11  C   UNL     1      -1.913  10.300  17.338  0.00  0.00    +0.000 C 
ATOM     12  C   UNL     1      -2.835  11.457  17.709  0.00  0.00    +0.000 C 
ATOM     13  C   UNL     1      -2.398  11.908  19.104  0.00  0.00    +0.000 C 
ATOM     14  C   UNL     1      -1.131  11.120  19.434  0.00  0.00    +0.000 C 
ENDBRANCH   8  10
ENDBRANCH   1   7
BRANCH   4  15
ATOM     15  C   UNL     1       5.442   6.677  17.060  0.00  0.00    +0.000 C 
BRANCH  15  16
ATOM     16  S   UNL     1       5.130   5.446  15.744  0.00  0.00    +0.000 S 
ATOM     17  O   UNL     1       6.231   5.640  14.635  0.00  0.00    +0.000 OA
BRANCH  16  18
ATOM     18  C   UNL     1       5.595   3.972  16.709  0.00  0.00    +0.000 C 
BRANCH  18  19
ATOM     19  C   UNL     1       4.472   3.555  17.631  0.00  0.00    +0.000 A 
ATOM     20  C   UNL     1       3.163   3.420  17.141  0.00  0.00    +0.000 A 
ATOM     21  C   UNL     1       2.114   3.072  17.995  0.00  0.00    +0.000 A 
ATOM     22  C   UNL     1       2.365   2.860  19.348  0.00  0.00    +0.000 A 
ATOM     23 CL   UNL     1       1.077   2.428  20.403  0.00  0.00    +0.000 Cl
ATOM     24  C   UNL     1       3.656   3.002  19.853  0.00  0.00    +0.000 A 
ATOM     25  C   UNL     1       4.707   3.351  18.999  0.00  0.00    +0.000 A 
ENDBRANCH  18  19
ENDBRANCH  16  18
ENDBRANCH  15  16
ENDBRANCH   4  15
TORSDOF 6
ENDMDL
MODEL 6
REMARK VINA RESULT:      -6.9      4.601      6.573
REMARK  Name = 
REMARK  6 active torsions:
REMARK  status: ('A' for Active; 'I' for Inactive)
REMARK    1  A    between atoms: C_2  and  C_9
REMARK    2  A    between atoms: N_3  and  C_4
REMARK    3  A    between atoms: C_12  and  C_13
REMARK    4  A    between atoms: C_13  and  S_14
REMARK    5  A    between atoms: S_14  and  C_16
REMARK    6  A    between atoms: C_16  and  C_17
REMARK                            x       y       z     vdW  Elec       q    Type
REMARK                         _______ _______ _______ _____ _____    ______ ____
ROOT
ATOM      1  C   UNL     1       5.469   5.132  17.332  0.00  0.00    +0.000 A 
ATOM      2  C   UNL     1       6.312   5.479  18.370  0.00  0.00    +0.000 A 
ATOM      3  C   UNL     1       5.767   4.938  19.550  0.00  0.00    +0.000 A 
ATOM      4  C   UNL     1       4.629   4.257  19.174  0.00  0.00    +0.000 A 
ATOM      5  O   UNL     1       4.412   4.398  17.823  0.00  0.00    +0.000 OA
ENDROOT
BRANCH   1   7
ATOM      6  O   UNL     1       5.332   6.531  15.450  0.00  0.00    +0.000 OA
ATOM      7  C   UNL     1       5.614   5.427  15.917  0.00  0.00    +0.000 C 
ATOM      8  N   UNL     1       6.068   4.401  15.113  0.00  0.00    +0.000 N 
ATOM      9  H   UNL     1       6.383   3.551  15.565  0.00  0.00    +0.000 HD
BRANCH   8  10
ATOM     10  C   UNL     1       6.248   4.602  13.689  0.00  0.00    +0.000 C 
ATOM     11  C   UNL     1       7.632   5.126  13.318  0.00  0.00    +0.000 C 
ATOM     12  C   UNL     1       7.715   4.873  11.817  0.00  0.00    +0.000 C 
ATOM     13  C   UNL     1       6.842   3.645  11.553  0.00  0.00    +0.000 C 
ATOM     14  C   UNL     1       6.142   3.320  12.872  0.00  0.00    +0.000 C 
ENDBRANCH   8  10
ENDBRANCH   1   7
BRANCH   4  15
ATOM     15  C   UNL     1       3.708   3.386  19.953  0.00  0.00    +0.000 C 
BRANCH  15  16
ATOM     16  S   UNL     1       1.984   3.889  19.608  0.00  0.00    +0.000 S 
ATOM     17  O   UNL     1       1.040   2.716  20.067  0.00  0.00    +0.000 OA
BRANCH  16  18
ATOM     18  C   UNL     1       1.879   5.191  20.880  0.00  0.00    +0.000 C 
BRANCH  18  19
ATOM     19  C   UNL     1       1.809   6.561  20.245  0.00  0.00    +0.000 A 
ATOM     20  C   UNL     1       1.245   7.640  20.944  0.00  0.00    +0.000 A 
ATOM     21  C   UNL     1       1.142   8.900  20.349  0.00  0.00    +0.000 A 
ATOM     22  C   UNL     1       1.601   9.090  19.049  0.00  0.00    +0.000 A 
ATOM     23 CL   UNL     1       1.480  10.641  18.313  0.00  0.00    +0.000 Cl
ATOM     24  C   UNL     1       2.152   8.027  18.336  0.00  0.00    +0.000 A 
ATOM     25  C   UNL     1       2.255   6.765  18.930  0.00  0.00    +0.000 A 
ENDBRANCH  18  19
ENDBRANCH  16  18
ENDBRANCH  15  16
ENDBRANCH   4  15
TORSDOF 6
ENDMDL
MODEL 7
REMARK VINA RESULT:      -6.9      1.268      1.518
REMARK  Name = 
REMARK  6 active torsions:
REMARK  status: ('A' for Active; 'I' for Inactive)
REMARK    1  A    between atoms: C_2  and  C_9
REMARK    2  A    between atoms: N_3  and  C_4
REMARK    3  A    between atoms: C_12  and  C_13
REMARK    4  A    between atoms: C_13  and  S_14
REMARK    5  A    between atoms: S_14  and  C_16
REMARK    6  A    between atoms: C_16  and  C_17
REMARK                            x       y       z     vdW  Elec       q    Type
REMARK                         _______ _______ _______ _____ _____    ______ ____
ROOT
ATOM      1  C   UNL     1       8.109   8.499  18.035  0.00  0.00    +0.000 A 
ATOM      2  C   UNL     1       8.384   7.474  18.920  0.00  0.00    +0.000 A 
ATOM      3  C   UNL     1       7.767   6.312  18.419  0.00  0.00    +0.000 A 
ATOM      4  C   UNL     1       7.167   6.673  17.231  0.00  0.00    +0.000 A 
ATOM      5  O   UNL     1       7.336   8.018  17.001  0.00  0.00    +0.000 OA
ENDROOT
BRANCH   1   7
ATOM      6  O   UNL     1       7.969  10.775  17.476  0.00  0.00    +0.000 OA
ATOM      7  C   UNL     1       8.550   9.882  18.093  0.00  0.00    +0.000 C 
ATOM      8  N   UNL     1       9.664  10.146  18.861  0.00  0.00    +0.000 N 
ATOM      9  H   UNL     1      10.037   9.393  19.428  0.00  0.00    +0.000 HD
BRANCH   8  10
ATOM     10  C   UNL     1      10.176  11.496  18.982  0.00  0.00    +0.000 C 
ATOM     11  C   UNL     1      10.891  11.760  20.304  0.00  0.00    +0.000 C 
ATOM     12  C   UNL     1      11.662  13.048  20.037  0.00  0.00    +0.000 C 
ATOM     13  C   UNL     1      11.978  13.042  18.540  0.00  0.00    +0.000 C 
ATOM     14  C   UNL     1      11.240  11.843  17.948  0.00  0.00    +0.000 C 
ENDBRANCH   8  10
ENDBRANCH   1   7
BRANCH   4  15
ATOM     15  C   UNL     1       6.478   5.857  16.196  0.00  0.00    +0.000 C 
BRANCH  15  16
ATOM     16  S   UNL     1       6.107   4.208  16.892  0.00  0.00    +0.000 S 
ATOM     17  O   UNL     1       6.337   4.280  18.448  0.00  0.00    +0.000 OA
BRANCH  16  18
ATOM     18  C   UNL     1       4.306   4.254  16.613  0.00  0.00    +0.000 C 
BRANCH  18  19
ATOM     19  C   UNL     1       3.556   3.853  17.862  0.00  0.00    +0.000 A 
ATOM     20  C   UNL     1       3.420   2.498  18.206  0.00  0.00    +0.000 A 
ATOM     21  C   UNL     1       2.695   2.118  19.338  0.00  0.00    +0.000 A 
ATOM     22  C   UNL     1       2.097   3.091  20.134  0.00  0.00    +0.000 A 
ATOM     23 CL   UNL     1       1.206   2.628  21.531  0.00  0.00    +0.000 Cl
ATOM     24  C   UNL     1       2.212   4.439  19.801  0.00  0.00    +0.000 A 
ATOM     25  C   UNL     1       2.937   4.820  18.667  0.00  0.00    +0.000 A 
ENDBRANCH  18  19
ENDBRANCH  16  18
ENDBRANCH  15  16
ENDBRANCH   4  15
TORSDOF 6
ENDMDL
MODEL 8
REMARK VINA RESULT:      -6.9      4.896      7.155
REMARK  Name = 
REMARK  6 active torsions:
REMARK  status: ('A' for Active; 'I' for Inactive)
REMARK    1  A    between atoms: C_2  and  C_9
REMARK    2  A    between atoms: N_3  and  C_4
REMARK    3  A    between atoms: C_12  and  C_13
REMARK    4  A    between atoms: C_13  and  S_14
REMARK    5  A    between atoms: S_14  and  C_16
REMARK    6  A    between atoms: C_16  and  C_17
REMARK                            x       y       z     vdW  Elec       q    Type
REMARK                         _______ _______ _______ _____ _____    ______ ____
ROOT
ATOM      1  C   UNL     1       1.753   5.293  20.633  0.00  0.00    +0.000 A 
ATOM      2  C   UNL     1       2.260   4.483  21.631  0.00  0.00    +0.000 A 
ATOM      3  C   UNL     1       2.084   3.149  21.217  0.00  0.00    +0.000 A 
ATOM      4  C   UNL     1       1.503   3.206  19.967  0.00  0.00    +0.000 A 
ATOM      5  O   UNL     1       1.259   4.511  19.612  0.00  0.00    +0.000 OA
ENDROOT
BRANCH   1   7
ATOM      6  O   UNL     1       2.460   7.376  19.810  0.00  0.00    +0.000 OA
ATOM      7  C   UNL     1       1.730   6.745  20.575  0.00  0.00    +0.000 C 
ATOM      8  N   UNL     1       0.860   7.386  21.432  0.00  0.00    +0.000 N 
ATOM      9  H   UNL     1       0.212   6.816  21.961  0.00  0.00    +0.000 HD
BRANCH   8  10
ATOM     10  C   UNL     1       0.765   8.832  21.443  0.00  0.00    +0.000 C 
ATOM     11  C   UNL     1      -0.176   9.388  20.380  0.00  0.00    +0.000 C 
ATOM     12  C   UNL     1      -0.419  10.823  20.838  0.00  0.00    +0.000 C 
ATOM     13  C   UNL     1      -0.293  10.800  22.362  0.00  0.00    +0.000 C 
ATOM     14  C   UNL     1       0.186   9.398  22.735  0.00  0.00    +0.000 C 
ENDBRANCH   8  10
ENDBRANCH   1   7
BRANCH   4  15
ATOM     15  C   UNL     1       1.195   2.133  18.984  0.00  0.00    +0.000 C 
BRANCH  15  16
ATOM     16  S   UNL     1       2.234   2.375  17.499  0.00  0.00    +0.000 S 
ATOM     17  O   UNL     1       2.037   3.858  17.010  0.00  0.00    +0.000 OA
BRANCH  16  18
ATOM     18  C   UNL     1       3.846   2.297  18.346  0.00  0.00    +0.000 C 
BRANCH  18  19
ATOM     19  C   UNL     1       4.648   3.553  18.096  0.00  0.00    +0.000 A 
ATOM     20  C   UNL     1       5.101   3.862  16.804  0.00  0.00    +0.000 A 
ATOM     21  C   UNL     1       5.875   5.002  16.572  0.00  0.00    +0.000 A 
ATOM     22  C   UNL     1       6.205   5.840  17.633  0.00  0.00    +0.000 A 
ATOM     23 CL   UNL     1       7.156   7.247  17.353  0.00  0.00    +0.000 Cl
ATOM     24  C   UNL     1       5.774   5.542  18.924  0.00  0.00    +0.000 A 
ATOM     25  C   UNL     1       5.000   4.402  19.157  0.00  0.00    +0.000 A 
ENDBRANCH  18  19
ENDBRANCH  16  18
ENDBRANCH  15  16
ENDBRANCH   4  15
TORSDOF 6
ENDMDL
MODEL 9
REMARK VINA RESULT:      -6.8      1.651      1.874
REMARK  Name = 
REMARK  6 active torsions:
REMARK  status: ('A' for Active; 'I' for Inactive)
REMARK    1  A    between atoms: C_2  and  C_9
REMARK    2  A    between atoms: N_3  and  C_4
REMARK    3  A    between atoms: C_12  and  C_13
REMARK    4  A    between atoms: C_13  and  S_14
REMARK    5  A    between atoms: S_14  and  C_16
REMARK    6  A    between atoms: C_16  and  C_17
REMARK                            x       y       z     vdW  Elec       q    Type
REMARK                         _______ _______ _______ _____ _____    ______ ____
ROOT
ATOM      1  C   UNL     1       7.744   7.690  18.129  0.00  0.00    +0.000 A 
ATOM      2  C   UNL     1       8.311   6.601  18.764  0.00  0.00    +0.000 A 
ATOM      3  C   UNL     1       7.573   5.464  18.384  0.00  0.00    +0.000 A 
ATOM      4  C   UNL     1       6.604   5.907  17.507  0.00  0.00    +0.000 A 
ATOM      5  O   UNL     1       6.673   7.274  17.370  0.00  0.00    +0.000 OA
ENDROOT
BRANCH   1   7
ATOM      6  O   UNL     1       7.802   9.897  17.330  0.00  0.00    +0.000 OA
ATOM      7  C   UNL     1       8.166   9.079  18.176  0.00  0.00    +0.000 C 
ATOM      8  N   UNL     1       9.009   9.438  19.207  0.00  0.00    +0.000 N 
ATOM      9  H   UNL     1       9.190   8.751  19.929  0.00  0.00    +0.000 HD
BRANCH   8  10
ATOM     10  C   UNL     1       9.479  10.802  19.337  0.00  0.00    +0.000 C 
ATOM     11  C   UNL     1       9.616  11.264  20.785  0.00  0.00    +0.000 C 
ATOM     12  C   UNL     1      10.476  12.518  20.676  0.00  0.00    +0.000 C 
ATOM     13  C   UNL     1      11.364  12.309  19.448  0.00  0.00    +0.000 C 
ATOM     14  C   UNL     1      10.880  11.023  18.779  0.00  0.00    +0.000 C 
ENDBRANCH   8  10
ENDBRANCH   1   7
BRANCH   4  15
ATOM     15  C   UNL     1       5.615   5.160  16.685  0.00  0.00    +0.000 C 
BRANCH  15  16
ATOM     16  S   UNL     1       4.921   3.797  17.688  0.00  0.00    +0.000 S 
ATOM     17  O   UNL     1       5.228   4.108  19.200  0.00  0.00    +0.000 OA
BRANCH  16  18
ATOM     18  C   UNL     1       3.164   4.191  17.404  0.00  0.00    +0.000 C 
BRANCH  18  19
ATOM     19  C   UNL     1       2.672   5.212  18.402  0.00  0.00    +0.000 A 
ATOM     20  C   UNL     1       2.791   6.585  18.132  0.00  0.00    +0.000 A 
ATOM     21  C   UNL     1       2.373   7.536  19.067  0.00  0.00    +0.000 A 
ATOM     22  C   UNL     1       1.835   7.120  20.281  0.00  0.00    +0.000 A 
ATOM     23 CL   UNL     1       1.315   8.287  21.434  0.00  0.00    +0.000 Cl
ATOM     24  C   UNL     1       1.720   5.762  20.571  0.00  0.00    +0.000 A 
ATOM     25  C   UNL     1       2.139   4.810  19.636  0.00  0.00    +0.000 A 
ENDBRANCH  18  19
ENDBRANCH  16  18
ENDBRANCH  15  16
ENDBRANCH   4  15
TORSDOF 6
ENDMDL
