MODEL 1
REMARK VINA RESULT:      -7.4      0.000      0.000
REMARK  Name = 
REMARK  7 active torsions:
REMARK  status: ('A' for Active; 'I' for Inactive)
REMARK    1  A    between atoms: C_1  and  N_2
REMARK    2  A    between atoms: N_2  and  C_3
REMARK    3  A    between atoms: N_2  and  C_4
REMARK    4  A    between atoms: C_4  and  C_5
REMARK    5  A    between atoms: N_10  and  C_11
REMARK    6  A    between atoms: C_20  and  O_21
REMARK    7  A    between atoms: C_20  and  C_22
REMARK                            x       y       z     vdW  Elec       q    Type
REMARK                         _______ _______ _______ _____ _____    ______ ____
ROOT
ATOM      1  C   UNL     1       4.714   6.197  17.211  0.00  0.00    +0.000 C 
ATOM      2  C   UNL     1       6.003   6.648  16.480  0.00  0.00    +0.000 C 
ATOM      3  N   UNL     1       7.064   6.827  17.472  0.00  0.00    +0.000 N 
ATOM      4  C   UNL     1       7.562   8.095  17.729  0.00  0.00    +0.000 C 
ATOM      5  O   UNL     1       7.118   9.030  17.080  0.00  0.00    +0.000 OA
ATOM      6  N   UNL     1       8.524   8.345  18.679  0.00  0.00    +0.000 N 
ATOM      7  C   UNL     1       7.445   5.594  18.169  0.00  0.00    +0.000 C 
ATOM      8  C   UNL     1       6.217   5.011  18.899  0.00  0.00    +0.000 C 
ATOM      9  C   UNL     1       4.962   4.844  17.974  0.00  0.00    +0.000 C 
ATOM     10  H   UNL     1       8.970   7.563  19.168  0.00  0.00    +0.000 HD
ENDROOT
BRANCH   6  11
ATOM     11  C   UNL     1       9.011   9.647  19.064  0.00  0.00    +0.000 A 
ATOM     12  C   UNL     1       9.016  10.129  20.398  0.00  0.00    +0.000 A 
ATOM     13  C   UNL     1       9.512  11.402  20.696  0.00  0.00    +0.000 A 
ATOM     14  C   UNL     1      10.010  12.218  19.685  0.00  0.00    +0.000 A 
ATOM     15  C   UNL     1      10.027  11.760  18.367  0.00  0.00    +0.000 A 
ATOM     16 CL   UNL     1      10.661  12.789  17.095  0.00  0.00    +0.000 Cl
ATOM     17  C   UNL     1       9.541  10.484  18.061  0.00  0.00    +0.000 A 
ENDBRANCH   6  11
BRANCH   9  18
ATOM     18  C   UNL     1       3.707   4.403  18.757  0.00  0.00    +0.000 A 
ATOM     19  C   UNL     1       3.675   4.294  20.170  0.00  0.00    +0.000 A 
ATOM     20  C   UNL     1       2.528   3.846  20.830  0.00  0.00    +0.000 A 
ATOM     21  C   UNL     1       1.388   3.495  20.109  0.00  0.00    +0.000 A 
ATOM     22  C   UNL     1       1.391   3.601  18.717  0.00  0.00    +0.000 A 
ATOM     23  C   UNL     1       2.534   4.050  18.046  0.00  0.00    +0.000 A 
ENDBRANCH   9  18
BRANCH   9  24
ATOM     24  O   UNL     1       5.189   3.803  17.044  0.00  0.00    +0.000 OA
ATOM     25  H   UNL     1       5.620   4.149  16.227  0.00  0.00    +0.000 HD
ENDBRANCH   9  24
BRANCH   1  26
ATOM     26  C   UNL     1       4.240   7.350  18.151  0.00  0.00    +0.000 C 
BRANCH  26  28
ATOM     27  C   UNL     1       2.201   7.432  19.498  0.00  0.00    +0.000 C 
ATOM     28  N   UNL     1       2.769   7.510  18.146  0.00  0.00    +0.000 NA
ATOM     29  C   UNL     1       2.392   8.783  17.505  0.00  0.00    +0.000 C 
ENDBRANCH  26  28
ENDBRANCH   1  26
TORSDOF 5
ENDMDL
MODEL 2
REMARK VINA RESULT:      -7.2      1.065      1.413
REMARK  Name = 
REMARK  7 active torsions:
REMARK  status: ('A' for Active; 'I' for Inactive)
REMARK    1  A    between atoms: C_1  and  N_2
REMARK    2  A    between atoms: N_2  and  C_3
REMARK    3  A    between atoms: N_2  and  C_4
REMARK    4  A    between atoms: C_4  and  C_5
REMARK    5  A    between atoms: N_10  and  C_11
REMARK    6  A    between atoms: C_20  and  O_21
REMARK    7  A    between atoms: C_20  and  C_22
REMARK                            x       y       z     vdW  Elec       q    Type
REMARK                         _______ _______ _______ _____ _____    ______ ____
ROOT
ATOM      1  C   UNL     1       4.683   6.135  17.327  0.00  0.00    +0.000 C 
ATOM      2  C   UNL     1       5.990   6.504  16.583  0.00  0.00    +0.000 C 
ATOM      3  N   UNL     1       7.039   6.749  17.574  0.00  0.00    +0.000 N 
ATOM      4  C   UNL     1       7.554   8.026  17.732  0.00  0.00    +0.000 C 
ATOM      5  O   UNL     1       7.136   8.911  17.000  0.00  0.00    +0.000 OA
ATOM      6  N   UNL     1       8.506   8.340  18.674  0.00  0.00    +0.000 N 
ATOM      7  C   UNL     1       7.389   5.574  18.378  0.00  0.00    +0.000 C 
ATOM      8  C   UNL     1       6.140   5.072  19.133  0.00  0.00    +0.000 C 
ATOM      9  C   UNL     1       4.897   4.848  18.205  0.00  0.00    +0.000 C 
ATOM     10  H   UNL     1       8.931   7.596  19.233  0.00  0.00    +0.000 HD
ENDROOT
BRANCH   6  11
ATOM     11  C   UNL     1       9.008   9.662  18.957  0.00  0.00    +0.000 A 
ATOM     12  C   UNL     1       9.590  10.515  17.983  0.00  0.00    +0.000 A 
ATOM     13  C   UNL     1      10.048  11.789  18.331  0.00  0.00    +0.000 A 
ATOM     14  C   UNL     1       9.939  12.242  19.643  0.00  0.00    +0.000 A 
ATOM     15  C   UNL     1       9.359  11.427  20.614  0.00  0.00    +0.000 A 
ATOM     16 CL   UNL     1       9.218  12.003  22.265  0.00  0.00    +0.000 Cl
ATOM     17  C   UNL     1       8.890  10.153  20.273  0.00  0.00    +0.000 A 
ENDBRANCH   6  11
BRANCH   9  18
ATOM     18  C   UNL     1       3.623   4.494  19.001  0.00  0.00    +0.000 A 
ATOM     19  C   UNL     1       3.562   4.522  20.417  0.00  0.00    +0.000 A 
ATOM     20  C   UNL     1       2.398   4.148  21.093  0.00  0.00    +0.000 A 
ATOM     21  C   UNL     1       1.270   3.736  20.387  0.00  0.00    +0.000 A 
ATOM     22  C   UNL     1       1.302   3.706  18.991  0.00  0.00    +0.000 A 
ATOM     23  C   UNL     1       2.461   4.080  18.303  0.00  0.00    +0.000 A 
ENDBRANCH   9  18
BRANCH   9  24
ATOM     24  O   UNL     1       5.120   3.729  17.369  0.00  0.00    +0.000 OA
ATOM     25  H   UNL     1       5.900   3.210  17.678  0.00  0.00    +0.000 HD
ENDBRANCH   9  24
BRANCH   1  26
ATOM     26  C   UNL     1       4.214   7.370  18.160  0.00  0.00    +0.000 C 
BRANCH  26  28
ATOM     27  C   UNL     1       2.165   7.545  19.483  0.00  0.00    +0.000 C 
ATOM     28  N   UNL     1       2.744   7.540  18.132  0.00  0.00    +0.000 NA
ATOM     29  C   UNL     1       2.383   8.777  17.416  0.00  0.00    +0.000 C 
ENDBRANCH  26  28
ENDBRANCH   1  26
TORSDOF 5
ENDMDL
MODEL 3
REMARK VINA RESULT:      -6.5      5.638      8.794
REMARK  Name = 
REMARK  7 active torsions:
REMARK  status: ('A' for Active; 'I' for Inactive)
REMARK    1  A    between atoms: C_1  and  N_2
REMARK    2  A    between atoms: N_2  and  C_3
REMARK    3  A    between atoms: N_2  and  C_4
REMARK    4  A    between atoms: C_4  and  C_5
REMARK    5  A    between atoms: N_10  and  C_11
REMARK    6  A    between atoms: C_20  and  O_21
REMARK    7  A    between atoms: C_20  and  C_22
REMARK                            x       y       z     vdW  Elec       q    Type
REMARK                         _______ _______ _______ _____ _____    ______ ____
ROOT
ATOM      1  C   UNL     1      -0.014  10.872  20.207  0.00  0.00    +0.000 C 
ATOM      2  C   UNL     1       1.451  10.402  20.027  0.00  0.00    +0.000 C 
ATOM      3  N   UNL     1       1.457   9.203  19.188  0.00  0.00    +0.000 N 
ATOM      4  C   UNL     1       1.833   7.983  19.729  0.00  0.00    +0.000 C 
ATOM      5  O   UNL     1       2.189   7.958  20.897  0.00  0.00    +0.000 OA
ATOM      6  N   UNL     1       1.817   6.808  19.015  0.00  0.00    +0.000 N 
ATOM      7  C   UNL     1       0.967   9.425  17.823  0.00  0.00    +0.000 C 
ATOM      8  C   UNL     1      -0.481   9.954  17.871  0.00  0.00    +0.000 C 
ATOM      9  C   UNL     1      -0.660  11.197  18.811  0.00  0.00    +0.000 C 
ATOM     10  H   UNL     1       1.607   6.826  18.013  0.00  0.00    +0.000 HD
ENDROOT
BRANCH   6  11
ATOM     11  C   UNL     1       2.098   5.496  19.544  0.00  0.00    +0.000 A 
ATOM     12  C   UNL     1       1.833   5.107  20.883  0.00  0.00    +0.000 A 
ATOM     13  C   UNL     1       2.126   3.813  21.322  0.00  0.00    +0.000 A 
ATOM     14  C   UNL     1       2.684   2.883  20.450  0.00  0.00    +0.000 A 
ATOM     15  C   UNL     1       2.942   3.238  19.126  0.00  0.00    +0.000 A 
ATOM     16 CL   UNL     1       3.640   2.062  18.027  0.00  0.00    +0.000 Cl
ATOM     17  C   UNL     1       2.644   4.530  18.675  0.00  0.00    +0.000 A 
ENDBRANCH   6  11
BRANCH   9  18
ATOM     18  C   UNL     1      -2.139  11.613  18.961  0.00  0.00    +0.000 A 
ATOM     19  C   UNL     1      -2.588  12.539  19.936  0.00  0.00    +0.000 A 
ATOM     20  C   UNL     1      -3.944  12.849  20.062  0.00  0.00    +0.000 A 
ATOM     21  C   UNL     1      -4.887  12.251  19.229  0.00  0.00    +0.000 A 
ATOM     22  C   UNL     1      -4.471  11.340  18.256  0.00  0.00    +0.000 A 
ATOM     23  C   UNL     1      -3.115  11.024  18.119  0.00  0.00    +0.000 A 
ENDBRANCH   9  18
BRANCH   9  24
ATOM     24  O   UNL     1      -0.027  12.324  18.239  0.00  0.00    +0.000 OA
ATOM     25  H   UNL     1       0.647  12.698  18.854  0.00  0.00    +0.000 HD
ENDBRANCH   9  24
BRANCH   1  26
ATOM     26  C   UNL     1      -0.797   9.781  21.004  0.00  0.00    +0.000 C 
BRANCH  26  28
ATOM     27  C   UNL     1       0.091   9.417  23.252  0.00  0.00    +0.000 C 
ATOM     28  N   UNL     1      -0.916  10.113  22.441  0.00  0.00    +0.000 NA
ATOM     29  C   UNL     1      -0.818  11.570  22.642  0.00  0.00    +0.000 C 
ENDBRANCH  26  28
ENDBRANCH   1  26
TORSDOF 5
ENDMDL
MODEL 4
REMARK VINA RESULT:      -6.4      5.399      8.836
REMARK  Name = 
REMARK  7 active torsions:
REMARK  status: ('A' for Active; 'I' for Inactive)
REMARK    1  A    between atoms: C_1  and  N_2
REMARK    2  A    between atoms: N_2  and  C_3
REMARK    3  A    between atoms: N_2  and  C_4
REMARK    4  A    between atoms: C_4  and  C_5
REMARK    5  A    between atoms: N_10  and  C_11
REMARK    6  A    between atoms: C_20  and  O_21
REMARK    7  A    between atoms: C_20  and  C_22
REMARK                            x       y       z     vdW  Elec       q    Type
REMARK                         _______ _______ _______ _____ _____    ______ ____
ROOT
ATOM      1  C   UNL     1      -0.227  11.389  20.089  0.00  0.00    +0.000 C 
ATOM      2  C   UNL     1       1.226  10.970  19.755  0.00  0.00    +0.000 C 
ATOM      3  N   UNL     1       1.189   9.708  19.015  0.00  0.00    +0.000 N 
ATOM      4  C   UNL     1       1.697   8.555  19.592  0.00  0.00    +0.000 C 
ATOM      5  O   UNL     1       2.200   8.640  20.702  0.00  0.00    +0.000 OA
ATOM      6  N   UNL     1       1.654   7.326  18.976  0.00  0.00    +0.000 N 
ATOM      7  C   UNL     1       0.519   9.797  17.713  0.00  0.00    +0.000 C 
ATOM      8  C   UNL     1      -0.938  10.265  17.911  0.00  0.00    +0.000 C 
ATOM      9  C   UNL     1      -1.063  11.570  18.770  0.00  0.00    +0.000 C 
ATOM     10  H   UNL     1       1.317   7.253  18.012  0.00  0.00    +0.000 HD
ENDROOT
BRANCH   6  11
ATOM     11  C   UNL     1       2.071   6.075  19.561  0.00  0.00    +0.000 A 
ATOM     12  C   UNL     1       1.340   5.385  20.563  0.00  0.00    +0.000 A 
ATOM     13  C   UNL     1       1.804   4.171  21.077  0.00  0.00    +0.000 A 
ATOM     14  C   UNL     1       2.994   3.618  20.612  0.00  0.00    +0.000 A 
ATOM     15  C   UNL     1       3.723   4.272  19.619  0.00  0.00    +0.000 A 
ATOM     16 CL   UNL     1       5.219   3.570  19.031  0.00  0.00    +0.000 Cl
ATOM     17  C   UNL     1       3.261   5.484  19.092  0.00  0.00    +0.000 A 
ENDBRANCH   6  11
BRANCH   9  18
ATOM     18  C   UNL     1      -2.531  11.932  19.081  0.00  0.00    +0.000 A 
ATOM     19  C   UNL     1      -2.909  12.796  20.139  0.00  0.00    +0.000 A 
ATOM     20  C   UNL     1      -4.254  13.056  20.409  0.00  0.00    +0.000 A 
ATOM     21  C   UNL     1      -5.257  12.469  19.641  0.00  0.00    +0.000 A 
ATOM     22  C   UNL     1      -4.912  11.620  18.587  0.00  0.00    +0.000 A 
ATOM     23  C   UNL     1      -3.568  11.353  18.307  0.00  0.00    +0.000 A 
ENDBRANCH   9  18
BRANCH   9  24
ATOM     24  O   UNL     1      -0.569  12.674  18.036  0.00  0.00    +0.000 OA
ATOM     25  H   UNL     1      -0.653  13.507  18.557  0.00  0.00    +0.000 HD
ENDBRANCH   9  24
BRANCH   1  26
ATOM     26  C   UNL     1      -0.843  10.333  21.062  0.00  0.00    +0.000 C 
BRANCH  26  28
ATOM     27  C   UNL     1      -1.616  11.314  23.164  0.00  0.00    +0.000 C 
ATOM     28  N   UNL     1      -0.519  10.618  22.477  0.00  0.00    +0.000 NA
ATOM     29  C   UNL     1      -0.179   9.372  23.188  0.00  0.00    +0.000 C 
ENDBRANCH  26  28
ENDBRANCH   1  26
TORSDOF 5
ENDMDL
MODEL 5
REMARK VINA RESULT:      -6.4      3.221      6.595
REMARK  Name = 
REMARK  7 active torsions:
REMARK  status: ('A' for Active; 'I' for Inactive)
REMARK    1  A    between atoms: C_1  and  N_2
REMARK    2  A    between atoms: N_2  and  C_3
REMARK    3  A    between atoms: N_2  and  C_4
REMARK    4  A    between atoms: C_4  and  C_5
REMARK    5  A    between atoms: N_10  and  C_11
REMARK    6  A    between atoms: C_20  and  O_21
REMARK    7  A    between atoms: C_20  and  C_22
REMARK                            x       y       z     vdW  Elec       q    Type
REMARK                         _______ _______ _______ _____ _____    ______ ____
ROOT
ATOM      1  C   UNL     1       6.316   4.528  17.009  0.00  0.00    +0.000 C 
ATOM      2  C   UNL     1       5.537   4.194  18.305  0.00  0.00    +0.000 C 
ATOM      3  N   UNL     1       4.157   4.655  18.153  0.00  0.00    +0.000 N 
ATOM      4  C   UNL     1       3.689   5.701  18.934  0.00  0.00    +0.000 C 
ATOM      5  O   UNL     1       4.445   6.184  19.763  0.00  0.00    +0.000 OA
ATOM      6  N   UNL     1       2.420   6.218  18.813  0.00  0.00    +0.000 N 
ATOM      7  C   UNL     1       3.413   3.976  17.087  0.00  0.00    +0.000 C 
ATOM      8  C   UNL     1       4.128   4.191  15.737  0.00  0.00    +0.000 C 
ATOM      9  C   UNL     1       5.651   3.820  15.772  0.00  0.00    +0.000 C 
ATOM     10  H   UNL     1       1.746   5.768  18.188  0.00  0.00    +0.000 HD
ENDROOT
BRANCH   6  11
ATOM     11  C   UNL     1       1.907   7.365  19.521  0.00  0.00    +0.000 A 
ATOM     12  C   UNL     1       1.535   7.352  20.891  0.00  0.00    +0.000 A 
ATOM     13  C   UNL     1       1.052   8.507  21.512  0.00  0.00    +0.000 A 
ATOM     14  C   UNL     1       0.928   9.693  20.793  0.00  0.00    +0.000 A 
ATOM     15  C   UNL     1       1.299   9.734  19.449  0.00  0.00    +0.000 A 
ATOM     16 CL   UNL     1       1.147  11.231  18.548  0.00  0.00    +0.000 Cl
ATOM     17  C   UNL     1       1.792   8.584  18.822  0.00  0.00    +0.000 A 
ENDBRANCH   6  11
BRANCH   9  18
ATOM     18  C   UNL     1       6.377   4.184  14.460  0.00  0.00    +0.000 A 
ATOM     19  C   UNL     1       7.425   5.136  14.393  0.00  0.00    +0.000 A 
ATOM     20  C   UNL     1       8.019   5.466  13.172  0.00  0.00    +0.000 A 
ATOM     21  C   UNL     1       7.591   4.864  11.991  0.00  0.00    +0.000 A 
ATOM     22  C   UNL     1       6.565   3.917  12.030  0.00  0.00    +0.000 A 
ATOM     23  C   UNL     1       5.964   3.578  13.247  0.00  0.00    +0.000 A 
ENDBRANCH   9  18
BRANCH   9  24
ATOM     24  O   UNL     1       5.798   2.418  15.886  0.00  0.00    +0.000 OA
ATOM     25  H   UNL     1       6.436   2.077  15.215  0.00  0.00    +0.000 HD
ENDBRANCH   9  24
BRANCH   1  26
ATOM     26  C   UNL     1       6.392   6.080  16.855  0.00  0.00    +0.000 C 
BRANCH  26  28
ATOM     27  C   UNL     1       7.609   8.112  17.461  0.00  0.00    +0.000 C 
ATOM     28  N   UNL     1       7.627   6.643  17.444  0.00  0.00    +0.000 NA
ATOM     29  C   UNL     1       7.833   6.117  18.807  0.00  0.00    +0.000 C 
ENDBRANCH  26  28
ENDBRANCH   1  26
TORSDOF 5
ENDMDL
MODEL 6
REMARK VINA RESULT:      -6.3      8.520     11.629
REMARK  Name = 
REMARK  7 active torsions:
REMARK  status: ('A' for Active; 'I' for Inactive)
REMARK    1  A    between atoms: C_1  and  N_2
REMARK    2  A    between atoms: N_2  and  C_3
REMARK    3  A    between atoms: N_2  and  C_4
REMARK    4  A    between atoms: C_4  and  C_5
REMARK    5  A    between atoms: N_10  and  C_11
REMARK    6  A    between atoms: C_20  and  O_21
REMARK    7  A    between atoms: C_20  and  C_22
REMARK                            x       y       z     vdW  Elec       q    Type
REMARK                         _______ _______ _______ _____ _____    ______ ____
ROOT
ATOM      1  C   UNL     1      -0.638  12.498  19.304  0.00  0.00    +0.000 C 
ATOM      2  C   UNL     1      -1.092  13.913  19.739  0.00  0.00    +0.000 C 
ATOM      3  N   UNL     1      -1.536  13.853  21.132  0.00  0.00    +0.000 N 
ATOM      4  C   UNL     1      -2.872  14.056  21.440  0.00  0.00    +0.000 C 
ATOM      5  O   UNL     1      -3.640  14.319  20.527  0.00  0.00    +0.000 OA
ATOM      6  N   UNL     1      -3.370  13.968  22.719  0.00  0.00    +0.000 N 
ATOM      7  C   UNL     1      -0.478  13.494  22.083  0.00  0.00    +0.000 C 
ATOM      8  C   UNL     1       0.099  12.111  21.717  0.00  0.00    +0.000 C 
ATOM      9  C   UNL     1       0.540  11.996  20.217  0.00  0.00    +0.000 C 
ATOM     10  H   UNL     1      -2.727  13.836  23.506  0.00  0.00    +0.000 HD
ENDROOT
BRANCH   6  11
ATOM     11  C   UNL     1      -4.759  14.067  23.092  0.00  0.00    +0.000 A 
ATOM     12  C   UNL     1      -5.367  15.253  23.582  0.00  0.00    +0.000 A 
ATOM     13  C   UNL     1      -6.724  15.275  23.916  0.00  0.00    +0.000 A 
ATOM     14  C   UNL     1      -7.503  14.130  23.772  0.00  0.00    +0.000 A 
ATOM     15  C   UNL     1      -6.931  12.956  23.280  0.00  0.00    +0.000 A 
ATOM     16 CL   UNL     1      -7.917  11.517  23.095  0.00  0.00    +0.000 Cl
ATOM     17  C   UNL     1      -5.575  12.928  22.935  0.00  0.00    +0.000 A 
ENDBRANCH   6  11
BRANCH   9  18
ATOM     18  C   UNL     1       0.972  10.563  19.838  0.00  0.00    +0.000 A 
ATOM     19  C   UNL     1       0.985   9.488  20.762  0.00  0.00    +0.000 A 
ATOM     20  C   UNL     1       1.429   8.219  20.381  0.00  0.00    +0.000 A 
ATOM     21  C   UNL     1       1.869   7.984  19.081  0.00  0.00    +0.000 A 
ATOM     22  C   UNL     1       1.859   9.023  18.149  0.00  0.00    +0.000 A 
ATOM     23  C   UNL     1       1.415  10.298  18.518  0.00  0.00    +0.000 A 
ENDBRANCH   9  18
BRANCH   9  24
ATOM     24  O   UNL     1       1.691  12.787  19.994  0.00  0.00    +0.000 OA
ATOM     25  H   UNL     1       2.133  12.534  19.150  0.00  0.00    +0.000 HD
ENDBRANCH   9  24
BRANCH   1  26
ATOM     26  C   UNL     1      -1.875  11.545  19.324  0.00  0.00    +0.000 C 
BRANCH  26  28
ATOM     27  C   UNL     1      -2.163  10.136  17.348  0.00  0.00    +0.000 C 
ATOM     28  N   UNL     1      -2.503  11.412  17.991  0.00  0.00    +0.000 NA
ATOM     29  C   UNL     1      -3.967  11.560  18.095  0.00  0.00    +0.000 C 
ENDBRANCH  26  28
ENDBRANCH   1  26
TORSDOF 5
ENDMDL
MODEL 7
REMARK VINA RESULT:      -6.3      7.834     10.834
REMARK  Name = 
REMARK  7 active torsions:
REMARK  status: ('A' for Active; 'I' for Inactive)
REMARK    1  A    between atoms: C_1  and  N_2
REMARK    2  A    between atoms: N_2  and  C_3
REMARK    3  A    between atoms: N_2  and  C_4
REMARK    4  A    between atoms: C_4  and  C_5
REMARK    5  A    between atoms: N_10  and  C_11
REMARK    6  A    between atoms: C_20  and  O_21
REMARK    7  A    between atoms: C_20  and  C_22
REMARK                            x       y       z     vdW  Elec       q    Type
REMARK                         _______ _______ _______ _____ _____    ______ ____
ROOT
ATOM      1  C   UNL     1      -0.588  11.468  18.575  0.00  0.00    +0.000 C 
ATOM      2  C   UNL     1      -1.090  12.924  18.732  0.00  0.00    +0.000 C 
ATOM      3  N   UNL     1      -1.220  13.222  20.159  0.00  0.00    +0.000 N 
ATOM      4  C   UNL     1      -2.474  13.436  20.708  0.00  0.00    +0.000 C 
ATOM      5  O   UNL     1      -3.442  13.405  19.963  0.00  0.00    +0.000 OA
ATOM      6  N   UNL     1      -2.676  13.673  22.048  0.00  0.00    +0.000 N 
ATOM      7  C   UNL     1       0.048  13.185  20.895  0.00  0.00    +0.000 C 
ATOM      8  C   UNL     1       0.682  11.784  20.766  0.00  0.00    +0.000 C 
ATOM      9  C   UNL     1       0.804  11.288  19.284  0.00  0.00    +0.000 C 
ATOM     10  H   UNL     1      -1.872  13.791  22.670  0.00  0.00    +0.000 HD
ENDROOT
BRANCH   6  11
ATOM     11  C   UNL     1      -3.958  13.803  22.697  0.00  0.00    +0.000 A 
ATOM     12  C   UNL     1      -4.666  12.719  23.279  0.00  0.00    +0.000 A 
ATOM     13  C   UNL     1      -5.902  12.923  23.898  0.00  0.00    +0.000 A 
ATOM     14  C   UNL     1      -6.459  14.197  23.956  0.00  0.00    +0.000 A 
ATOM     15  C   UNL     1      -5.776  15.280  23.402  0.00  0.00    +0.000 A 
ATOM     16 CL   UNL     1      -6.478  16.886  23.481  0.00  0.00    +0.000 Cl
ATOM     17  C   UNL     1      -4.533  15.086  22.787  0.00  0.00    +0.000 A 
ENDBRANCH   6  11
BRANCH   9  18
ATOM     18  C   UNL     1       1.298   9.829  19.190  0.00  0.00    +0.000 A 
ATOM     19  C   UNL     1       1.301   8.939  20.293  0.00  0.00    +0.000 A 
ATOM     20  C   UNL     1       1.802   7.641  20.168  0.00  0.00    +0.000 A 
ATOM     21  C   UNL     1       2.311   7.193  18.951  0.00  0.00    +0.000 A 
ATOM     22  C   UNL     1       2.313   8.047  17.846  0.00  0.00    +0.000 A 
ATOM     23  C   UNL     1       1.813   9.349  17.960  0.00  0.00    +0.000 A 
ENDBRANCH   9  18
BRANCH   9  24
ATOM     24  O   UNL     1       1.788  12.045  18.607  0.00  0.00    +0.000 OA
ATOM     25  H   UNL     1       1.795  12.978  18.926  0.00  0.00    +0.000 HD
ENDBRANCH   9  24
BRANCH   1  26
ATOM     26  C   UNL     1      -1.682  10.497  19.123  0.00  0.00    +0.000 C 
BRANCH  26  28
ATOM     27  C   UNL     1      -3.779  10.617  17.872  0.00  0.00    +0.000 C 
ATOM     28  N   UNL     1      -2.503   9.909  18.043  0.00  0.00    +0.000 NA
ATOM     29  C   UNL     1      -1.751   9.895  16.774  0.00  0.00    +0.000 C 
ENDBRANCH  26  28
ENDBRANCH   1  26
TORSDOF 5
ENDMDL
MODEL 8
REMARK VINA RESULT:      -6.3      5.503      8.747
REMARK  Name = 
REMARK  7 active torsions:
REMARK  status: ('A' for Active; 'I' for Inactive)
REMARK    1  A    between atoms: C_1  and  N_2
REMARK    2  A    between atoms: N_2  and  C_3
REMARK    3  A    between atoms: N_2  and  C_4
REMARK    4  A    between atoms: C_4  and  C_5
REMARK    5  A    between atoms: N_10  and  C_11
REMARK    6  A    between atoms: C_20  and  O_21
REMARK    7  A    between atoms: C_20  and  C_22
REMARK                            x       y       z     vdW  Elec       q    Type
REMARK                         _______ _______ _______ _____ _____    ______ ____
ROOT
ATOM      1  C   UNL     1      -0.178  10.838  19.953  0.00  0.00    +0.000 C 
ATOM      2  C   UNL     1       1.329  10.560  19.727  0.00  0.00    +0.000 C 
ATOM      3  N   UNL     1       1.463   9.382  18.869  0.00  0.00    +0.000 N 
ATOM      4  C   UNL     1       2.006   8.214  19.381  0.00  0.00    +0.000 C 
ATOM      5  O   UNL     1       2.396   8.219  20.539  0.00  0.00    +0.000 OA
ATOM      6  N   UNL     1       2.119   7.055  18.649  0.00  0.00    +0.000 N 
ATOM      7  C   UNL     1       0.911   9.557  17.522  0.00  0.00    +0.000 C 
ATOM      8  C   UNL     1      -0.591   9.897  17.617  0.00  0.00    +0.000 C 
ATOM      9  C   UNL     1      -0.900  11.095  18.580  0.00  0.00    +0.000 C 
ATOM     10  H   UNL     1       1.881   7.058  17.654  0.00  0.00    +0.000 HD
ENDROOT
BRANCH   6  11
ATOM     11  C   UNL     1       2.580   5.783  19.150  0.00  0.00    +0.000 A 
ATOM     12  C   UNL     1       3.873   5.254  18.903  0.00  0.00    +0.000 A 
ATOM     13  C   UNL     1       4.251   4.016  19.429  0.00  0.00    +0.000 A 
ATOM     14  C   UNL     1       3.362   3.280  20.207  0.00  0.00    +0.000 A 
ATOM     15  C   UNL     1       2.089   3.786  20.475  0.00  0.00    +0.000 A 
ATOM     16 CL   UNL     1       0.972   2.859  21.460  0.00  0.00    +0.000 Cl
ATOM     17  C   UNL     1       1.705   5.029  19.958  0.00  0.00    +0.000 A 
ENDBRANCH   6  11
BRANCH   9  18
ATOM     18  C   UNL     1      -2.415  11.318  18.776  0.00  0.00    +0.000 A 
ATOM     19  C   UNL     1      -3.403  10.621  18.035  0.00  0.00    +0.000 A 
ATOM     20  C   UNL     1      -4.761  10.891  18.216  0.00  0.00    +0.000 A 
ATOM     21  C   UNL     1      -5.174  11.857  19.132  0.00  0.00    +0.000 A 
ATOM     22  C   UNL     1      -4.222  12.553  19.879  0.00  0.00    +0.000 A 
ATOM     23  C   UNL     1      -2.859  12.289  19.707  0.00  0.00    +0.000 A 
ENDBRANCH   9  18
BRANCH   9  24
ATOM     24  O   UNL     1      -0.431  12.300  18.009  0.00  0.00    +0.000 OA
ATOM     25  H   UNL     1       0.096  12.121  17.195  0.00  0.00    +0.000 HD
ENDBRANCH   9  24
BRANCH   1  26
ATOM     26  C   UNL     1      -0.794   9.646  20.753  0.00  0.00    +0.000 C 
BRANCH  26  28
ATOM     27  C   UNL     1       0.198   9.294  22.960  0.00  0.00    +0.000 C 
ATOM     28  N   UNL     1      -0.887   9.931  22.202  0.00  0.00    +0.000 NA
ATOM     29  C   UNL     1      -0.893  11.387  22.441  0.00  0.00    +0.000 C 
ENDBRANCH  26  28
ENDBRANCH   1  26
TORSDOF 5
ENDMDL
MODEL 9
REMARK VINA RESULT:      -6.1      7.937     11.269
REMARK  Name = 
REMARK  7 active torsions:
REMARK  status: ('A' for Active; 'I' for Inactive)
REMARK    1  A    between atoms: C_1  and  N_2
REMARK    2  A    between atoms: N_2  and  C_3
REMARK    3  A    between atoms: N_2  and  C_4
REMARK    4  A    between atoms: C_4  and  C_5
REMARK    5  A    between atoms: N_10  and  C_11
REMARK    6  A    between atoms: C_20  and  O_21
REMARK    7  A    between atoms: C_20  and  C_22
REMARK                            x       y       z     vdW  Elec       q    Type
REMARK                         _______ _______ _______ _____ _____    ______ ____
ROOT
ATOM      1  C   UNL     1      -0.561  11.299  18.491  0.00  0.00    +0.000 C 
ATOM      2  C   UNL     1      -1.208  12.691  18.694  0.00  0.00    +0.000 C 
ATOM      3  N   UNL     1      -1.764  12.755  20.046  0.00  0.00    +0.000 N 
ATOM      4  C   UNL     1      -3.137  12.829  20.225  0.00  0.00    +0.000 C 
ATOM      5  O   UNL     1      -3.845  12.878  19.231  0.00  0.00    +0.000 OA
ATOM      6  N   UNL     1      -3.732  12.844  21.464  0.00  0.00    +0.000 N 
ATOM      7  C   UNL     1      -0.761  12.652  21.111  0.00  0.00    +0.000 C 
ATOM      8  C   UNL     1      -0.002  11.315  20.981  0.00  0.00    +0.000 C 
ATOM      9  C   UNL     1       0.580  11.065  19.547  0.00  0.00    +0.000 C 
ATOM     10  H   UNL     1      -3.152  12.894  22.306  0.00  0.00    +0.000 HD
ENDROOT
BRANCH   6  11
ATOM     11  C   UNL     1      -5.152  12.818  21.718  0.00  0.00    +0.000 A 
ATOM     12  C   UNL     1      -6.037  11.850  21.177  0.00  0.00    +0.000 A 
ATOM     13  C   UNL     1      -7.402  11.884  21.474  0.00  0.00    +0.000 A 
ATOM     14  C   UNL     1      -7.916  12.873  22.309  0.00  0.00    +0.000 A 
ATOM     15  C   UNL     1      -7.064  13.828  22.863  0.00  0.00    +0.000 A 
ATOM     16 CL   UNL     1      -7.714  15.069  23.918  0.00  0.00    +0.000 Cl
ATOM     17  C   UNL     1      -5.694  13.796  22.577  0.00  0.00    +0.000 A 
ENDBRANCH   6  11
BRANCH   9  18
ATOM     18  C   UNL     1       1.202   9.660  19.400  0.00  0.00    +0.000 A 
ATOM     19  C   UNL     1       1.740   9.174  18.182  0.00  0.00    +0.000 A 
ATOM     20  C   UNL     1       2.250   7.877  18.088  0.00  0.00    +0.000 A 
ATOM     21  C   UNL     1       2.238   7.030  19.195  0.00  0.00    +0.000 A 
ATOM     22  C   UNL     1       1.720   7.486  20.409  0.00  0.00    +0.000 A 
ATOM     23  C   UNL     1       1.209   8.784  20.514  0.00  0.00    +0.000 A 
ENDBRANCH   9  18
BRANCH   9  24
ATOM     24  O   UNL     1       1.650  11.957  19.303  0.00  0.00    +0.000 OA
ATOM     25  H   UNL     1       1.316  12.820  18.961  0.00  0.00    +0.000 HD
ENDBRANCH   9  24
BRANCH   1  26
ATOM     26  C   UNL     1      -1.681  10.212  18.551  0.00  0.00    +0.000 C 
BRANCH  26  28
ATOM     27  C   UNL     1      -2.255  10.044  16.180  0.00  0.00    +0.000 C 
ATOM     28  N   UNL     1      -2.722  10.421  17.521  0.00  0.00    +0.000 NA
ATOM     29  C   UNL     1      -3.945   9.672  17.867  0.00  0.00    +0.000 C 
ENDBRANCH  26  28
ENDBRANCH   1  26
TORSDOF 5
ENDMDL
