MODEL 1
REMARK VINA RESULT:      -7.4      0.000      0.000
REMARK  Name = 
REMARK  1 active torsions:
REMARK  status: ('A' for Active; 'I' for Inactive)
REMARK    1  A    between atoms: C_3  and  C_4
REMARK                            x       y       z     vdW  Elec       q    Type
REMARK                         _______ _______ _______ _____ _____    ______ ____
ROOT
ATOM      1  N   UNL     1       4.179   7.204  17.434  0.00  0.00    +0.000 N 
ATOM      2  C   UNL     1       3.801   5.922  17.920  0.00  0.00    +0.000 A 
ATOM      3  C   UNL     1       4.287   4.709  17.374  0.00  0.00    +0.000 A 
ATOM      4  N   UNL     1       3.874   3.503  17.971  0.00  0.00    +0.000 N 
ATOM      5  O   UNL     1       4.291   2.365  17.549  0.00  0.00    +0.000 OA
ATOM      6  C   UNL     1       2.977   3.515  19.077  0.00  0.00    +0.000 A 
ATOM      7  C   UNL     1       2.539   2.317  19.689  0.00  0.00    +0.000 A 
ATOM      8  C   UNL     1       1.666   2.331  20.781  0.00  0.00    +0.000 A 
ATOM      9  C   UNL     1       1.204   3.537  21.287  0.00  0.00    +0.000 A 
ATOM     10  C   UNL     1       1.616   4.732  20.699  0.00  0.00    +0.000 A 
ATOM     11  C   UNL     1       2.501   4.735  19.599  0.00  0.00    +0.000 A 
ATOM     12  N   UNL     1       2.918   5.931  19.017  0.00  0.00    +0.000 N 
ATOM     13  O   UNL     1       2.493   7.070  19.444  0.00  0.00    +0.000 OA
ATOM     14  H   UNL     1       4.011   7.325  16.439  0.00  0.00    +0.000 HD
ATOM     15  H   UNL     1       3.648   7.888  17.998  0.00  0.00    +0.000 HD
ENDROOT
BRANCH   3  16
ATOM     16  C   UNL     1       5.198   4.669  16.187  0.00  0.00    +0.000 A 
ATOM     17  C   UNL     1       6.561   5.013  16.294  0.00  0.00    +0.000 A 
ATOM     18  C   UNL     1       7.397   5.097  15.173  0.00  0.00    +0.000 A 
ATOM     19  C   UNL     1       6.901   4.781  13.916  0.00  0.00    +0.000 A 
ATOM     20 CL   UNL     1       7.918   4.895  12.536  0.00  0.00    +0.000 Cl
ATOM     21  C   UNL     1       5.578   4.381  13.776  0.00  0.00    +0.000 A 
ATOM     22  C   UNL     1       4.736   4.343  14.896  0.00  0.00    +0.000 A 
ENDBRANCH   3  16
TORSDOF 1
ENDMDL
MODEL 2
REMARK VINA RESULT:      -7.0      1.511      2.780
REMARK  Name = 
REMARK  1 active torsions:
REMARK  status: ('A' for Active; 'I' for Inactive)
REMARK    1  A    between atoms: C_3  and  C_4
REMARK                            x       y       z     vdW  Elec       q    Type
REMARK                         _______ _______ _______ _____ _____    ______ ____
ROOT
ATOM      1  N   UNL     1       4.399   2.419  17.908  0.00  0.00    +0.000 N 
ATOM      2  C   UNL     1       3.971   3.749  18.171  0.00  0.00    +0.000 A 
ATOM      3  C   UNL     1       4.305   4.851  17.347  0.00  0.00    +0.000 A 
ATOM      4  N   UNL     1       3.783   6.113  17.688  0.00  0.00    +0.000 N 
ATOM      5  O   UNL     1       4.020   7.154  16.975  0.00  0.00    +0.000 OA
ATOM      6  C   UNL     1       2.962   6.268  18.841  0.00  0.00    +0.000 A 
ATOM      7  C   UNL     1       2.432   7.528  19.209  0.00  0.00    +0.000 A 
ATOM      8  C   UNL     1       1.619   7.676  20.336  0.00  0.00    +0.000 A 
ATOM      9  C   UNL     1       1.315   6.576  21.126  0.00  0.00    +0.000 A 
ATOM     10  C   UNL     1       1.829   5.325  20.788  0.00  0.00    +0.000 A 
ATOM     11  C   UNL     1       2.649   5.158  19.650  0.00  0.00    +0.000 A 
ATOM     12  N   UNL     1       3.155   3.904  19.308  0.00  0.00    +0.000 N 
ATOM     13  O   UNL     1       2.914   2.864  20.029  0.00  0.00    +0.000 OA
ATOM     14  H   UNL     1       5.407   2.329  17.816  0.00  0.00    +0.000 HD
ATOM     15  H   UNL     1       4.034   1.845  18.686  0.00  0.00    +0.000 HD
ENDROOT
BRANCH   3  16
ATOM     16  C   UNL     1       5.199   4.721  16.154  0.00  0.00    +0.000 A 
ATOM     17  C   UNL     1       6.555   5.105  16.206  0.00  0.00    +0.000 A 
ATOM     18  C   UNL     1       7.373   5.103  15.070  0.00  0.00    +0.000 A 
ATOM     19  C   UNL     1       6.867   4.661  13.855  0.00  0.00    +0.000 A 
ATOM     20 CL   UNL     1       7.862   4.670  12.455  0.00  0.00    +0.000 Cl
ATOM     21  C   UNL     1       5.552   4.220  13.774  0.00  0.00    +0.000 A 
ATOM     22  C   UNL     1       4.728   4.267  14.906  0.00  0.00    +0.000 A 
ENDBRANCH   3  16
TORSDOF 1
ENDMDL
MODEL 3
REMARK VINA RESULT:      -7.0      0.156      1.083
REMARK  Name = 
REMARK  1 active torsions:
REMARK  status: ('A' for Active; 'I' for Inactive)
REMARK    1  A    between atoms: C_3  and  C_4
REMARK                            x       y       z     vdW  Elec       q    Type
REMARK                         _______ _______ _______ _____ _____    ______ ____
ROOT
ATOM      1  N   UNL     1       4.077   7.302  17.462  0.00  0.00    +0.000 N 
ATOM      2  C   UNL     1       3.750   6.003  17.938  0.00  0.00    +0.000 A 
ATOM      3  C   UNL     1       4.252   4.813  17.356  0.00  0.00    +0.000 A 
ATOM      4  N   UNL     1       3.891   3.587  17.945  0.00  0.00    +0.000 N 
ATOM      5  O   UNL     1       4.326   2.468  17.491  0.00  0.00    +0.000 OA
ATOM      6  C   UNL     1       3.031   3.555  19.080  0.00  0.00    +0.000 A 
ATOM      7  C   UNL     1       2.646   2.336  19.686  0.00  0.00    +0.000 A 
ATOM      8  C   UNL     1       1.809   2.308  20.804  0.00  0.00    +0.000 A 
ATOM      9  C   UNL     1       1.331   3.493  21.346  0.00  0.00    +0.000 A 
ATOM     10  C   UNL     1       1.690   4.708  20.766  0.00  0.00    +0.000 A 
ATOM     11  C   UNL     1       2.539   4.753  19.637  0.00  0.00    +0.000 A 
ATOM     12  N   UNL     1       2.904   5.969  19.062  0.00  0.00    +0.000 N 
ATOM     13  O   UNL     1       2.462   7.089  19.523  0.00  0.00    +0.000 OA
ATOM     14  H   UNL     1       3.874   7.435  16.475  0.00  0.00    +0.000 HD
ATOM     15  H   UNL     1       3.546   7.962  18.054  0.00  0.00    +0.000 HD
ENDROOT
BRANCH   3  16
ATOM     16  C   UNL     1       5.124   4.818  16.140  0.00  0.00    +0.000 A 
ATOM     17  C   UNL     1       4.630   4.421  14.880  0.00  0.00    +0.000 A 
ATOM     18  C   UNL     1       5.460   4.304  13.759  0.00  0.00    +0.000 A 
ATOM     19  C   UNL     1       6.804   4.638  13.857  0.00  0.00    +0.000 A 
ATOM     20 CL   UNL     1       7.831   4.484  12.487  0.00  0.00    +0.000 Cl
ATOM     21  C   UNL     1       7.318   5.089  15.066  0.00  0.00    +0.000 A 
ATOM     22  C   UNL     1       6.489   5.160  16.194  0.00  0.00    +0.000 A 
ENDBRANCH   3  16
TORSDOF 1
ENDMDL
MODEL 4
REMARK VINA RESULT:      -6.8      3.338      6.411
REMARK  Name = 
REMARK  1 active torsions:
REMARK  status: ('A' for Active; 'I' for Inactive)
REMARK    1  A    between atoms: C_3  and  C_4
REMARK                            x       y       z     vdW  Elec       q    Type
REMARK                         _______ _______ _______ _____ _____    ______ ____
ROOT
ATOM      1  N   UNL     1       6.537   5.387  19.625  0.00  0.00    +0.000 N 
ATOM      2  C   UNL     1       6.106   4.917  18.354  0.00  0.00    +0.000 A 
ATOM      3  C   UNL     1       4.892   4.216  18.155  0.00  0.00    +0.000 A 
ATOM      4  N   UNL     1       4.553   3.841  16.841  0.00  0.00    +0.000 N 
ATOM      5  O   UNL     1       3.458   3.226  16.577  0.00  0.00    +0.000 OA
ATOM      6  C   UNL     1       5.423   4.147  15.755  0.00  0.00    +0.000 A 
ATOM      7  C   UNL     1       5.109   3.775  14.426  0.00  0.00    +0.000 A 
ATOM      8  C   UNL     1       5.959   4.084  13.361  0.00  0.00    +0.000 A 
ATOM      9  C   UNL     1       7.144   4.768  13.592  0.00  0.00    +0.000 A 
ATOM     10  C   UNL     1       7.480   5.142  14.892  0.00  0.00    +0.000 A 
ATOM     11  C   UNL     1       6.629   4.841  15.979  0.00  0.00    +0.000 A 
ATOM     12  N   UNL     1       6.962   5.223  17.278  0.00  0.00    +0.000 N 
ATOM     13  O   UNL     1       8.064   5.839  17.535  0.00  0.00    +0.000 OA
ATOM     14  H   UNL     1       6.584   4.657  20.331  0.00  0.00    +0.000 HD
ATOM     15  H   UNL     1       7.459   5.825  19.466  0.00  0.00    +0.000 HD
ENDROOT
BRANCH   3  16
ATOM     16  C   UNL     1       3.982   3.847  19.284  0.00  0.00    +0.000 A 
ATOM     17  C   UNL     1       4.125   2.625  19.975  0.00  0.00    +0.000 A 
ATOM     18  C   UNL     1       3.210   2.212  20.951  0.00  0.00    +0.000 A 
ATOM     19  C   UNL     1       2.153   3.040  21.303  0.00  0.00    +0.000 A 
ATOM     20 CL   UNL     1       1.021   2.531  22.490  0.00  0.00    +0.000 Cl
ATOM     21  C   UNL     1       2.010   4.277  20.687  0.00  0.00    +0.000 A 
ATOM     22  C   UNL     1       2.905   4.664  19.680  0.00  0.00    +0.000 A 
ENDBRANCH   3  16
TORSDOF 1
ENDMDL
MODEL 5
REMARK VINA RESULT:      -6.7      3.935      5.538
REMARK  Name = 
REMARK  1 active torsions:
REMARK  status: ('A' for Active; 'I' for Inactive)
REMARK    1  A    between atoms: C_3  and  C_4
REMARK                            x       y       z     vdW  Elec       q    Type
REMARK                         _______ _______ _______ _____ _____    ______ ____
ROOT
ATOM      1  N   UNL     1       3.194   7.825  17.037  0.00  0.00    +0.000 N 
ATOM      2  C   UNL     1       2.474   7.985  18.253  0.00  0.00    +0.000 A 
ATOM      3  C   UNL     1       2.254   6.930  19.171  0.00  0.00    +0.000 A 
ATOM      4  N   UNL     1       1.565   7.223  20.363  0.00  0.00    +0.000 N 
ATOM      5  O   UNL     1       1.349   6.325  21.255  0.00  0.00    +0.000 OA
ATOM      6  C   UNL     1       1.090   8.542  20.616  0.00  0.00    +0.000 A 
ATOM      7  C   UNL     1       0.387   8.861  21.802  0.00  0.00    +0.000 A 
ATOM      8  C   UNL     1      -0.071  10.157  22.054  0.00  0.00    +0.000 A 
ATOM      9  C   UNL     1       0.157  11.167  21.130  0.00  0.00    +0.000 A 
ATOM     10  C   UNL     1       0.843  10.879  19.951  0.00  0.00    +0.000 A 
ATOM     11  C   UNL     1       1.315   9.574  19.684  0.00  0.00    +0.000 A 
ATOM     12  N   UNL     1       2.007   9.289  18.508  0.00  0.00    +0.000 N 
ATOM     13  O   UNL     1       2.218  10.194  17.616  0.00  0.00    +0.000 OA
ATOM     14  H   UNL     1       2.826   7.087  16.443  0.00  0.00    +0.000 HD
ATOM     15  H   UNL     1       3.163   8.745  16.567  0.00  0.00    +0.000 HD
ENDROOT
BRANCH   3  16
ATOM     16  C   UNL     1       2.707   5.527  18.908  0.00  0.00    +0.000 A 
ATOM     17  C   UNL     1       1.926   4.632  18.148  0.00  0.00    +0.000 A 
ATOM     18  C   UNL     1       2.277   3.285  17.995  0.00  0.00    +0.000 A 
ATOM     19  C   UNL     1       3.454   2.810  18.555  0.00  0.00    +0.000 A 
ATOM     20 CL   UNL     1       3.882   1.155  18.380  0.00  0.00    +0.000 Cl
ATOM     21  C   UNL     1       4.281   3.673  19.262  0.00  0.00    +0.000 A 
ATOM     22  C   UNL     1       3.901   5.009  19.448  0.00  0.00    +0.000 A 
ENDBRANCH   3  16
TORSDOF 1
ENDMDL
MODEL 6
REMARK VINA RESULT:      -6.6      3.718      6.522
REMARK  Name = 
REMARK  1 active torsions:
REMARK  status: ('A' for Active; 'I' for Inactive)
REMARK    1  A    between atoms: C_3  and  C_4
REMARK                            x       y       z     vdW  Elec       q    Type
REMARK                         _______ _______ _______ _____ _____    ______ ____
ROOT
ATOM      1  N   UNL     1       1.481   4.490  18.693  0.00  0.00    +0.000 N 
ATOM      2  C   UNL     1       2.635   4.976  18.021  0.00  0.00    +0.000 A 
ATOM      3  C   UNL     1       3.030   6.336  18.038  0.00  0.00    +0.000 A 
ATOM      4  N   UNL     1       4.219   6.688  17.371  0.00  0.00    +0.000 N 
ATOM      5  O   UNL     1       4.654   7.895  17.363  0.00  0.00    +0.000 OA
ATOM      6  C   UNL     1       4.983   5.700  16.687  0.00  0.00    +0.000 A 
ATOM      7  C   UNL     1       6.177   6.029  16.002  0.00  0.00    +0.000 A 
ATOM      8  C   UNL     1       6.930   5.056  15.339  0.00  0.00    +0.000 A 
ATOM      9  C   UNL     1       6.511   3.732  15.338  0.00  0.00    +0.000 A 
ATOM     10  C   UNL     1       5.336   3.382  16.001  0.00  0.00    +0.000 A 
ATOM     11  C   UNL     1       4.566   4.354  16.679  0.00  0.00    +0.000 A 
ATOM     12  N   UNL     1       3.395   4.001  17.348  0.00  0.00    +0.000 N 
ATOM     13  O   UNL     1       2.963   2.787  17.350  0.00  0.00    +0.000 OA
ATOM     14  H   UNL     1       0.626   4.972  18.429  0.00  0.00    +0.000 HD
ATOM     15  H   UNL     1       1.433   3.480  18.478  0.00  0.00    +0.000 HD
ENDROOT
BRANCH   3  16
ATOM     16  C   UNL     1       2.223   7.400  18.715  0.00  0.00    +0.000 A 
ATOM     17  C   UNL     1       1.661   8.470  17.988  0.00  0.00    +0.000 A 
ATOM     18  C   UNL     1       1.007   9.535  18.620  0.00  0.00    +0.000 A 
ATOM     19  C   UNL     1       0.848   9.528  19.999  0.00  0.00    +0.000 A 
ATOM     20 CL   UNL     1       0.058  10.839  20.780  0.00  0.00    +0.000 Cl
ATOM     21  C   UNL     1       1.336   8.463  20.746  0.00  0.00    +0.000 A 
ATOM     22  C   UNL     1       2.028   7.423  20.110  0.00  0.00    +0.000 A 
ENDBRANCH   3  16
TORSDOF 1
ENDMDL
MODEL 7
REMARK VINA RESULT:      -6.6      3.731      6.490
REMARK  Name = 
REMARK  1 active torsions:
REMARK  status: ('A' for Active; 'I' for Inactive)
REMARK    1  A    between atoms: C_3  and  C_4
REMARK                            x       y       z     vdW  Elec       q    Type
REMARK                         _______ _______ _______ _____ _____    ______ ____
ROOT
ATOM      1  N   UNL     1       1.526   4.583  18.779  0.00  0.00    +0.000 N 
ATOM      2  C   UNL     1       2.669   5.032  18.062  0.00  0.00    +0.000 A 
ATOM      3  C   UNL     1       3.097   6.382  18.048  0.00  0.00    +0.000 A 
ATOM      4  N   UNL     1       4.271   6.696  17.336  0.00  0.00    +0.000 N 
ATOM      5  O   UNL     1       4.736   7.891  17.299  0.00  0.00    +0.000 OA
ATOM      6  C   UNL     1       4.985   5.681  16.638  0.00  0.00    +0.000 A 
ATOM      7  C   UNL     1       6.162   5.971  15.909  0.00  0.00    +0.000 A 
ATOM      8  C   UNL     1       6.867   4.972  15.231  0.00  0.00    +0.000 A 
ATOM      9  C   UNL     1       6.416   3.660  15.261  0.00  0.00    +0.000 A 
ATOM     10  C   UNL     1       5.256   3.348  15.968  0.00  0.00    +0.000 A 
ATOM     11  C   UNL     1       4.535   4.346  16.661  0.00  0.00    +0.000 A 
ATOM     12  N   UNL     1       3.380   4.030  17.374  0.00  0.00    +0.000 N 
ATOM     13  O   UNL     1       2.917   2.828  17.406  0.00  0.00    +0.000 OA
ATOM     14  H   UNL     1       0.675   5.084  18.539  0.00  0.00    +0.000 HD
ATOM     15  H   UNL     1       1.445   3.573  18.578  0.00  0.00    +0.000 HD
ENDROOT
BRANCH   3  16
ATOM     16  C   UNL     1       2.341   7.473  18.740  0.00  0.00    +0.000 A 
ATOM     17  C   UNL     1       2.092   7.430  20.127  0.00  0.00    +0.000 A 
ATOM     18  C   UNL     1       1.286   8.379  20.768  0.00  0.00    +0.000 A 
ATOM     19  C   UNL     1       0.751   9.434  20.042  0.00  0.00    +0.000 A 
ATOM     20 CL   UNL     1      -0.249  10.594  20.821  0.00  0.00    +0.000 Cl
ATOM     21  C   UNL     1       1.021   9.545  18.684  0.00  0.00    +0.000 A 
ATOM     22  C   UNL     1       1.792   8.567  18.042  0.00  0.00    +0.000 A 
ENDBRANCH   3  16
TORSDOF 1
ENDMDL
MODEL 8
REMARK VINA RESULT:      -6.6      1.491      2.954
REMARK  Name = 
REMARK  1 active torsions:
REMARK  status: ('A' for Active; 'I' for Inactive)
REMARK    1  A    between atoms: C_3  and  C_4
REMARK                            x       y       z     vdW  Elec       q    Type
REMARK                         _______ _______ _______ _____ _____    ______ ____
ROOT
ATOM      1  N   UNL     1       4.377   2.318  17.515  0.00  0.00    +0.000 N 
ATOM      2  C   UNL     1       3.974   3.631  17.881  0.00  0.00    +0.000 A 
ATOM      3  C   UNL     1       4.295   4.783  17.124  0.00  0.00    +0.000 A 
ATOM      4  N   UNL     1       3.799   6.025  17.566  0.00  0.00    +0.000 N 
ATOM      5  O   UNL     1       4.027   7.110  16.919  0.00  0.00    +0.000 OA
ATOM      6  C   UNL     1       3.016   6.108  18.752  0.00  0.00    +0.000 A 
ATOM      7  C   UNL     1       2.513   7.345  19.222  0.00  0.00    +0.000 A 
ATOM      8  C   UNL     1       1.737   7.424  20.382  0.00  0.00    +0.000 A 
ATOM      9  C   UNL     1       1.445   6.275  21.104  0.00  0.00    +0.000 A 
ATOM     10  C   UNL     1       1.932   5.045  20.666  0.00  0.00    +0.000 A 
ATOM     11  C   UNL     1       2.715   4.948  19.493  0.00  0.00    +0.000 A 
ATOM     12  N   UNL     1       3.195   3.716  19.051  0.00  0.00    +0.000 N 
ATOM     13  O   UNL     1       2.964   2.631  19.707  0.00  0.00    +0.000 OA
ATOM     14  H   UNL     1       5.381   2.225  17.384  0.00  0.00    +0.000 HD
ATOM     15  H   UNL     1       4.030   1.696  18.263  0.00  0.00    +0.000 HD
ENDROOT
BRANCH   3  16
ATOM     16  C   UNL     1       5.150   4.727  15.896  0.00  0.00    +0.000 A 
ATOM     17  C   UNL     1       4.632   4.295  14.658  0.00  0.00    +0.000 A 
ATOM     18  C   UNL     1       5.445   4.123  13.531  0.00  0.00    +0.000 A 
ATOM     19  C   UNL     1       6.796   4.433  13.600  0.00  0.00    +0.000 A 
ATOM     20 CL   UNL     1       7.801   4.210  12.224  0.00  0.00    +0.000 Cl
ATOM     21  C   UNL     1       7.334   4.917  14.786  0.00  0.00    +0.000 A 
ATOM     22  C   UNL     1       6.523   5.044  15.921  0.00  0.00    +0.000 A 
ENDBRANCH   3  16
TORSDOF 1
ENDMDL
MODEL 9
REMARK VINA RESULT:      -6.6      4.230      5.711
REMARK  Name = 
REMARK  1 active torsions:
REMARK  status: ('A' for Active; 'I' for Inactive)
REMARK    1  A    between atoms: C_3  and  C_4
REMARK                            x       y       z     vdW  Elec       q    Type
REMARK                         _______ _______ _______ _____ _____    ______ ____
ROOT
ATOM      1  N   UNL     1       1.939   9.907  17.300  0.00  0.00    +0.000 N 
ATOM      2  C   UNL     1       1.516   9.552  18.610  0.00  0.00    +0.000 A 
ATOM      3  C   UNL     1       1.808   8.303  19.210  0.00  0.00    +0.000 A 
ATOM      4  N   UNL     1       1.372   8.086  20.531  0.00  0.00    +0.000 N 
ATOM      5  O   UNL     1       1.620   6.990  21.150  0.00  0.00    +0.000 OA
ATOM      6  C   UNL     1       0.642   9.093  21.225  0.00  0.00    +0.000 A 
ATOM      7  C   UNL     1       0.186   8.897  22.550  0.00  0.00    +0.000 A 
ATOM      8  C   UNL     1      -0.522   9.889  23.234  0.00  0.00    +0.000 A 
ATOM      9  C   UNL     1      -0.796  11.101  22.614  0.00  0.00    +0.000 A 
ATOM     10  C   UNL     1      -0.362  11.318  21.307  0.00  0.00    +0.000 A 
ATOM     11  C   UNL     1       0.358  10.326  20.605  0.00  0.00    +0.000 A 
ATOM     12  N   UNL     1       0.798  10.548  19.301  0.00  0.00    +0.000 N 
ATOM     13  O   UNL     1       0.543  11.650  18.684  0.00  0.00    +0.000 OA
ATOM     14  H   UNL     1       1.646   9.245  16.587  0.00  0.00    +0.000 HD
ATOM     15  H   UNL     1       1.556  10.851  17.126  0.00  0.00    +0.000 HD
ENDROOT
BRANCH   3  16
ATOM     16  C   UNL     1       2.537   7.214  18.487  0.00  0.00    +0.000 A 
ATOM     17  C   UNL     1       1.966   5.936  18.315  0.00  0.00    +0.000 A 
ATOM     18  C   UNL     1       2.680   4.873  17.749  0.00  0.00    +0.000 A 
ATOM     19  C   UNL     1       3.973   5.078  17.285  0.00  0.00    +0.000 A 
ATOM     20 CL   UNL     1       4.858   3.774  16.601  0.00  0.00    +0.000 Cl
ATOM     21  C   UNL     1       4.550   6.338  17.382  0.00  0.00    +0.000 A 
ATOM     22  C   UNL     1       3.844   7.385  17.991  0.00  0.00    +0.000 A 
ENDBRANCH   3  16
TORSDOF 1
ENDMDL
