MODEL 1
REMARK VINA RESULT:      -6.9      0.000      0.000
REMARK  Name = 
REMARK  5 active torsions:
REMARK  status: ('A' for Active; 'I' for Inactive)
REMARK    1  A    between atoms: C_1  and  N_2
REMARK    2  A    between atoms: N_2  and  C_3
REMARK    3  A    between atoms: N_2  and  S_4
REMARK    4  A    between atoms: S_4  and  C_7
REMARK    5  A    between atoms: C_7  and  C_8
REMARK                            x       y       z     vdW  Elec       q    Type
REMARK                         _______ _______ _______ _____ _____    ______ ____
ROOT
ATOM      1  C   UNL     1       3.945   4.420  18.294  0.00  0.00    +0.000 A 
ATOM      2  N   UNL     1       4.507   4.680  19.485  0.00  0.00    +0.000 NA
ATOM      3  O   UNL     1       5.868   4.774  19.254  0.00  0.00    +0.000 OA
ATOM      4  C   UNL     1       6.117   4.596  17.932  0.00  0.00    +0.000 A 
ATOM      5  C   UNL     1       7.369   4.631  17.321  0.00  0.00    +0.000 A 
ATOM      6  C   UNL     1       7.388   4.418  15.939  0.00  0.00    +0.000 A 
ATOM      7  C   UNL     1       6.205   4.194  15.230  0.00  0.00    +0.000 A 
ATOM      8 CL   UNL     1       6.274   3.922  13.531  0.00  0.00    +0.000 Cl
ATOM      9  C   UNL     1       4.961   4.182  15.872  0.00  0.00    +0.000 A 
ATOM     10  C   UNL     1       4.925   4.376  17.264  0.00  0.00    +0.000 A 
ENDROOT
BRANCH   1  11
ATOM     11  C   UNL     1       2.467   4.292  18.200  0.00  0.00    +0.000 C 
BRANCH  11  12
ATOM     12  S   UNL     1       1.862   2.772  18.942  0.00  0.00    +0.000 S 
ATOM     13  O   UNL     1       2.959   1.846  19.115  0.00  0.00    +0.000 OA
ATOM     14  O   UNL     1       0.642   2.360  18.272  0.00  0.00    +0.000 OA
BRANCH  12  16
ATOM     15  C   UNL     1       2.272   2.678  21.562  0.00  0.00    +0.000 C 
ATOM     16  N   UNL     1       1.378   3.255  20.517  0.00  0.00    +0.000 NA
ATOM     17  C   UNL     1       1.198   4.708  20.727  0.00  0.00    +0.000 C 
ENDBRANCH  12  16
ENDBRANCH  11  12
ENDBRANCH   1  11
TORSDOF 3
ENDMDL
MODEL 2
REMARK VINA RESULT:      -6.9      3.099      5.667
REMARK  Name = 
REMARK  5 active torsions:
REMARK  status: ('A' for Active; 'I' for Inactive)
REMARK    1  A    between atoms: C_1  and  N_2
REMARK    2  A    between atoms: N_2  and  C_3
REMARK    3  A    between atoms: N_2  and  S_4
REMARK    4  A    between atoms: S_4  and  C_7
REMARK    5  A    between atoms: C_7  and  C_8
REMARK                            x       y       z     vdW  Elec       q    Type
REMARK                         _______ _______ _______ _____ _____    ______ ____
ROOT
ATOM      1  C   UNL     1       4.009   3.387  17.729  0.00  0.00    +0.000 A 
ATOM      2  N   UNL     1       3.771   2.066  17.746  0.00  0.00    +0.000 NA
ATOM      3  O   UNL     1       2.793   1.865  18.704  0.00  0.00    +0.000 OA
ATOM      4  C   UNL     1       2.430   3.059  19.240  0.00  0.00    +0.000 A 
ATOM      5  C   UNL     1       1.466   3.256  20.226  0.00  0.00    +0.000 A 
ATOM      6  C   UNL     1       1.258   4.579  20.631  0.00  0.00    +0.000 A 
ATOM      7  C   UNL     1       1.980   5.627  20.055  0.00  0.00    +0.000 A 
ATOM      8 CL   UNL     1       1.703   7.241  20.591  0.00  0.00    +0.000 Cl
ATOM      9  C   UNL     1       2.930   5.396  19.053  0.00  0.00    +0.000 A 
ATOM     10  C   UNL     1       3.166   4.071  18.648  0.00  0.00    +0.000 A 
ENDROOT
BRANCH   1  11
ATOM     11  C   UNL     1       5.001   3.934  16.769  0.00  0.00    +0.000 C 
BRANCH  11  12
ATOM     12  S   UNL     1       6.422   4.664  17.592  0.00  0.00    +0.000 S 
ATOM     13  O   UNL     1       7.610   4.439  16.800  0.00  0.00    +0.000 OA
ATOM     14  O   UNL     1       6.392   4.319  19.002  0.00  0.00    +0.000 OA
BRANCH  12  16
ATOM     15  C   UNL     1       7.369   7.141  17.497  0.00  0.00    +0.000 C 
ATOM     16  N   UNL     1       6.104   6.351  17.527  0.00  0.00    +0.000 NA
ATOM     17  C   UNL     1       5.181   6.800  16.463  0.00  0.00    +0.000 C 
ENDBRANCH  12  16
ENDBRANCH  11  12
ENDBRANCH   1  11
TORSDOF 3
ENDMDL
MODEL 3
REMARK VINA RESULT:      -6.8      3.901      5.867
REMARK  Name = 
REMARK  5 active torsions:
REMARK  status: ('A' for Active; 'I' for Inactive)
REMARK    1  A    between atoms: C_1  and  N_2
REMARK    2  A    between atoms: N_2  and  C_3
REMARK    3  A    between atoms: N_2  and  S_4
REMARK    4  A    between atoms: S_4  and  C_7
REMARK    5  A    between atoms: C_7  and  C_8
REMARK                            x       y       z     vdW  Elec       q    Type
REMARK                         _______ _______ _______ _____ _____    ______ ____
ROOT
ATOM      1  C   UNL     1       4.523   5.370  17.397  0.00  0.00    +0.000 A 
ATOM      2  N   UNL     1       4.333   6.614  16.931  0.00  0.00    +0.000 NA
ATOM      3  O   UNL     1       3.403   7.200  17.771  0.00  0.00    +0.000 OA
ATOM      4  C   UNL     1       3.057   6.323  18.748  0.00  0.00    +0.000 A 
ATOM      5  C   UNL     1       2.154   6.560  19.782  0.00  0.00    +0.000 A 
ATOM      6  C   UNL     1       1.948   5.505  20.677  0.00  0.00    +0.000 A 
ATOM      7  C   UNL     1       2.630   4.294  20.528  0.00  0.00    +0.000 A 
ATOM      8 CL   UNL     1       2.337   3.015  21.644  0.00  0.00    +0.000 Cl
ATOM      9  C   UNL     1       3.544   4.094  19.488  0.00  0.00    +0.000 A 
ATOM     10  C   UNL     1       3.748   5.137  18.567  0.00  0.00    +0.000 A 
ENDROOT
BRANCH   1  11
ATOM     11  C   UNL     1       5.503   4.482  16.720  0.00  0.00    +0.000 C 
BRANCH  11  12
ATOM     12  S   UNL     1       7.161   5.173  16.709  0.00  0.00    +0.000 S 
ATOM     13  O   UNL     1       7.366   5.925  15.491  0.00  0.00    +0.000 OA
ATOM     14  O   UNL     1       8.111   4.156  17.122  0.00  0.00    +0.000 OA
BRANCH  12  16
ATOM     15  C   UNL     1       7.746   5.763  19.229  0.00  0.00    +0.000 C 
ATOM     16  N   UNL     1       7.131   6.318  17.989  0.00  0.00    +0.000 NA
ATOM     17  C   UNL     1       7.685   7.654  17.683  0.00  0.00    +0.000 C 
ENDBRANCH  12  16
ENDBRANCH  11  12
ENDBRANCH   1  11
TORSDOF 3
ENDMDL
MODEL 4
REMARK VINA RESULT:      -6.8      1.391      1.550
REMARK  Name = 
REMARK  5 active torsions:
REMARK  status: ('A' for Active; 'I' for Inactive)
REMARK    1  A    between atoms: C_1  and  N_2
REMARK    2  A    between atoms: N_2  and  C_3
REMARK    3  A    between atoms: N_2  and  S_4
REMARK    4  A    between atoms: S_4  and  C_7
REMARK    5  A    between atoms: C_7  and  C_8
REMARK                            x       y       z     vdW  Elec       q    Type
REMARK                         _______ _______ _______ _____ _____    ______ ____
ROOT
ATOM      1  C   UNL     1       5.175   4.380  18.477  0.00  0.00    +0.000 A 
ATOM      2  N   UNL     1       6.202   4.742  19.262  0.00  0.00    +0.000 NA
ATOM      3  O   UNL     1       7.274   4.958  18.415  0.00  0.00    +0.000 OA
ATOM      4  C   UNL     1       6.886   4.752  17.130  0.00  0.00    +0.000 A 
ATOM      5  C   UNL     1       7.689   4.884  15.999  0.00  0.00    +0.000 A 
ATOM      6  C   UNL     1       7.075   4.617  14.771  0.00  0.00    +0.000 A 
ATOM      7  C   UNL     1       5.728   4.252  14.706  0.00  0.00    +0.000 A 
ATOM      8 CL   UNL     1       5.014   3.919  13.174  0.00  0.00    +0.000 Cl
ATOM      9  C   UNL     1       4.944   4.145  15.861  0.00  0.00    +0.000 A 
ATOM     10  C   UNL     1       5.550   4.390  17.105  0.00  0.00    +0.000 A 
ENDROOT
BRANCH   1  11
ATOM     11  C   UNL     1       3.851   4.105  19.093  0.00  0.00    +0.000 C 
BRANCH  11  12
ATOM     12  S   UNL     1       3.644   2.375  19.530  0.00  0.00    +0.000 S 
ATOM     13  O   UNL     1       4.631   2.002  20.518  0.00  0.00    +0.000 OA
ATOM     14  O   UNL     1       3.469   1.590  18.321  0.00  0.00    +0.000 OA
BRANCH  12  16
ATOM     15  C   UNL     1       2.183   3.013  21.651  0.00  0.00    +0.000 C 
ATOM     16  N   UNL     1       2.121   2.337  20.323  0.00  0.00    +0.000 NA
ATOM     17  C   UNL     1       0.965   2.826  19.541  0.00  0.00    +0.000 C 
ENDBRANCH  12  16
ENDBRANCH  11  12
ENDBRANCH   1  11
TORSDOF 3
ENDMDL
MODEL 5
REMARK VINA RESULT:      -6.7      1.226      1.558
REMARK  Name = 
REMARK  5 active torsions:
REMARK  status: ('A' for Active; 'I' for Inactive)
REMARK    1  A    between atoms: C_1  and  N_2
REMARK    2  A    between atoms: N_2  and  C_3
REMARK    3  A    between atoms: N_2  and  S_4
REMARK    4  A    between atoms: S_4  and  C_7
REMARK    5  A    between atoms: C_7  and  C_8
REMARK                            x       y       z     vdW  Elec       q    Type
REMARK                         _______ _______ _______ _____ _____    ______ ____
ROOT
ATOM      1  C   UNL     1       3.950   5.263  18.404  0.00  0.00    +0.000 A 
ATOM      2  N   UNL     1       4.570   5.574  19.553  0.00  0.00    +0.000 NA
ATOM      3  O   UNL     1       5.923   5.408  19.315  0.00  0.00    +0.000 OA
ATOM      4  C   UNL     1       6.113   5.025  18.027  0.00  0.00    +0.000 A 
ATOM      5  C   UNL     1       7.342   4.773  17.418  0.00  0.00    +0.000 A 
ATOM      6  C   UNL     1       7.298   4.386  16.075  0.00  0.00    +0.000 A 
ATOM      7  C   UNL     1       6.080   4.276  15.399  0.00  0.00    +0.000 A 
ATOM      8 CL   UNL     1       6.070   3.784  13.748  0.00  0.00    +0.000 Cl
ATOM      9  C   UNL     1       4.865   4.554  16.034  0.00  0.00    +0.000 A 
ATOM     10  C   UNL     1       4.888   4.925  17.390  0.00  0.00    +0.000 A 
ENDROOT
BRANCH   1  11
ATOM     11  C   UNL     1       2.470   5.373  18.324  0.00  0.00    +0.000 C 
BRANCH  11  12
ATOM     12  S   UNL     1       1.638   3.924  18.985  0.00  0.00    +0.000 S 
ATOM     13  O   UNL     1       0.977   3.213  17.914  0.00  0.00    +0.000 OA
ATOM     14  O   UNL     1       0.915   4.290  20.190  0.00  0.00    +0.000 OA
BRANCH  12  16
ATOM     15  C   UNL     1       2.810   2.600  20.964  0.00  0.00    +0.000 C 
ATOM     16  N   UNL     1       2.929   2.922  19.512  0.00  0.00    +0.000 NA
ATOM     17  C   UNL     1       3.166   1.694  18.722  0.00  0.00    +0.000 C 
ENDBRANCH  12  16
ENDBRANCH  11  12
ENDBRANCH   1  11
TORSDOF 3
ENDMDL
MODEL 6
REMARK VINA RESULT:      -6.7      1.757      2.058
REMARK  Name = 
REMARK  5 active torsions:
REMARK  status: ('A' for Active; 'I' for Inactive)
REMARK    1  A    between atoms: C_1  and  N_2
REMARK    2  A    between atoms: N_2  and  C_3
REMARK    3  A    between atoms: N_2  and  S_4
REMARK    4  A    between atoms: S_4  and  C_7
REMARK    5  A    between atoms: C_7  and  C_8
REMARK                            x       y       z     vdW  Elec       q    Type
REMARK                         _______ _______ _______ _____ _____    ______ ____
ROOT
ATOM      1  C   UNL     1       5.012   4.594  18.941  0.00  0.00    +0.000 A 
ATOM      2  N   UNL     1       6.023   4.915  19.763  0.00  0.00    +0.000 NA
ATOM      3  O   UNL     1       7.144   5.035  18.962  0.00  0.00    +0.000 OA
ATOM      4  C   UNL     1       6.803   4.813  17.666  0.00  0.00    +0.000 A 
ATOM      5  C   UNL     1       7.664   4.859  16.571  0.00  0.00    +0.000 A 
ATOM      6  C   UNL     1       7.091   4.593  15.324  0.00  0.00    +0.000 A 
ATOM      7  C   UNL     1       5.727   4.311  15.205  0.00  0.00    +0.000 A 
ATOM      8 CL   UNL     1       5.064   3.976  13.651  0.00  0.00    +0.000 Cl
ATOM      9  C   UNL     1       4.886   4.291  16.324  0.00  0.00    +0.000 A 
ATOM     10  C   UNL     1       5.449   4.536  17.588  0.00  0.00    +0.000 A 
ENDROOT
BRANCH   1  11
ATOM     11  C   UNL     1       3.646   4.423  19.501  0.00  0.00    +0.000 C 
BRANCH  11  12
ATOM     12  S   UNL     1       3.396   2.793  20.213  0.00  0.00    +0.000 S 
ATOM     13  O   UNL     1       2.762   2.920  21.506  0.00  0.00    +0.000 OA
ATOM     14  O   UNL     1       4.605   2.005  20.053  0.00  0.00    +0.000 OA
BRANCH  12  16
ATOM     15  C   UNL     1       0.894   2.696  19.333  0.00  0.00    +0.000 C 
ATOM     16  N   UNL     1       2.238   2.069  19.171  0.00  0.00    +0.000 NA
ATOM     17  C   UNL     1       2.607   1.988  17.742  0.00  0.00    +0.000 C 
ENDBRANCH  12  16
ENDBRANCH  11  12
ENDBRANCH   1  11
TORSDOF 3
ENDMDL
MODEL 7
REMARK VINA RESULT:      -6.7      1.107      1.266
REMARK  Name = 
REMARK  5 active torsions:
REMARK  status: ('A' for Active; 'I' for Inactive)
REMARK    1  A    between atoms: C_1  and  N_2
REMARK    2  A    between atoms: N_2  and  C_3
REMARK    3  A    between atoms: N_2  and  S_4
REMARK    4  A    between atoms: S_4  and  C_7
REMARK    5  A    between atoms: C_7  and  C_8
REMARK                            x       y       z     vdW  Elec       q    Type
REMARK                         _______ _______ _______ _____ _____    ______ ____
ROOT
ATOM      1  C   UNL     1       4.518   3.925  18.573  0.00  0.00    +0.000 A 
ATOM      2  N   UNL     1       4.989   4.703  19.559  0.00  0.00    +0.000 NA
ATOM      3  O   UNL     1       5.995   5.468  18.997  0.00  0.00    +0.000 OA
ATOM      4  C   UNL     1       6.109   5.169  17.678  0.00  0.00    +0.000 A 
ATOM      5  C   UNL     1       7.007   5.744  16.780  0.00  0.00    +0.000 A 
ATOM      6  C   UNL     1       6.948   5.277  15.463  0.00  0.00    +0.000 A 
ATOM      7  C   UNL     1       6.025   4.297  15.089  0.00  0.00    +0.000 A 
ATOM      8 CL   UNL     1       5.995   3.740  13.459  0.00  0.00    +0.000 Cl
ATOM      9  C   UNL     1       5.125   3.752  16.012  0.00  0.00    +0.000 A 
ATOM     10  C   UNL     1       5.183   4.195  17.345  0.00  0.00    +0.000 A 
ENDROOT
BRANCH   1  11
ATOM     11  C   UNL     1       3.391   2.997  18.853  0.00  0.00    +0.000 C 
BRANCH  11  12
ATOM     12  S   UNL     1       1.788   3.771  18.608  0.00  0.00    +0.000 S 
ATOM     13  O   UNL     1       0.841   2.787  18.135  0.00  0.00    +0.000 OA
ATOM     14  O   UNL     1       1.963   5.030  17.906  0.00  0.00    +0.000 OA
BRANCH  12  16
ATOM     15  C   UNL     1       1.688   3.152  21.186  0.00  0.00    +0.000 C 
ATOM     16  N   UNL     1       1.297   4.197  20.197  0.00  0.00    +0.000 NA
ATOM     17  C   UNL     1       1.704   5.539  20.668  0.00  0.00    +0.000 C 
ENDBRANCH  12  16
ENDBRANCH  11  12
ENDBRANCH   1  11
TORSDOF 3
ENDMDL
MODEL 8
REMARK VINA RESULT:      -6.6      1.064      1.438
REMARK  Name = 
REMARK  5 active torsions:
REMARK  status: ('A' for Active; 'I' for Inactive)
REMARK    1  A    between atoms: C_1  and  N_2
REMARK    2  A    between atoms: N_2  and  C_3
REMARK    3  A    between atoms: N_2  and  S_4
REMARK    4  A    between atoms: S_4  and  C_7
REMARK    5  A    between atoms: C_7  and  C_8
REMARK                            x       y       z     vdW  Elec       q    Type
REMARK                         _______ _______ _______ _____ _____    ______ ____
ROOT
ATOM      1  C   UNL     1       4.562   3.302  18.250  0.00  0.00    +0.000 A 
ATOM      2  N   UNL     1       5.056   3.813  19.388  0.00  0.00    +0.000 NA
ATOM      3  O   UNL     1       6.150   4.576  19.022  0.00  0.00    +0.000 OA
ATOM      4  C   UNL     1       6.296   4.544  17.673  0.00  0.00    +0.000 A 
ATOM      5  C   UNL     1       7.281   5.201  16.937  0.00  0.00    +0.000 A 
ATOM      6  C   UNL     1       7.239   5.021  15.551  0.00  0.00    +0.000 A 
ATOM      7  C   UNL     1       6.250   4.232  14.958  0.00  0.00    +0.000 A 
ATOM      8 CL   UNL     1       6.243   4.025  13.248  0.00  0.00    +0.000 Cl
ATOM      9  C   UNL     1       5.264   3.599  15.725  0.00  0.00    +0.000 A 
ATOM     10  C   UNL     1       5.302   3.752  17.122  0.00  0.00    +0.000 A 
ENDROOT
BRANCH   1  11
ATOM     11  C   UNL     1       3.346   2.450  18.303  0.00  0.00    +0.000 C 
BRANCH  11  12
ATOM     12  S   UNL     1       1.856   3.400  18.628  0.00  0.00    +0.000 S 
ATOM     13  O   UNL     1       0.695   2.554  18.464  0.00  0.00    +0.000 OA
ATOM     14  O   UNL     1       1.943   4.681  17.950  0.00  0.00    +0.000 OA
BRANCH  12  16
ATOM     15  C   UNL     1       1.564   5.171  20.583  0.00  0.00    +0.000 C 
ATOM     16  N   UNL     1       1.964   3.761  20.303  0.00  0.00    +0.000 NA
ATOM     17  C   UNL     1       1.268   2.830  21.217  0.00  0.00    +0.000 C 
ENDBRANCH  12  16
ENDBRANCH  11  12
ENDBRANCH   1  11
TORSDOF 3
ENDMDL
MODEL 9
REMARK VINA RESULT:      -6.6      1.500      1.823
REMARK  Name = 
REMARK  5 active torsions:
REMARK  status: ('A' for Active; 'I' for Inactive)
REMARK    1  A    between atoms: C_1  and  N_2
REMARK    2  A    between atoms: N_2  and  C_3
REMARK    3  A    between atoms: N_2  and  S_4
REMARK    4  A    between atoms: S_4  and  C_7
REMARK    5  A    between atoms: C_7  and  C_8
REMARK                            x       y       z     vdW  Elec       q    Type
REMARK                         _______ _______ _______ _____ _____    ______ ____
ROOT
ATOM      1  C   UNL     1       4.463   3.452  18.646  0.00  0.00    +0.000 A 
ATOM      2  N   UNL     1       5.175   3.864  19.707  0.00  0.00    +0.000 NA
ATOM      3  O   UNL     1       6.306   4.475  19.195  0.00  0.00    +0.000 OA
ATOM      4  C   UNL     1       6.260   4.451  17.838  0.00  0.00    +0.000 A 
ATOM      5  C   UNL     1       7.218   4.981  16.975  0.00  0.00    +0.000 A 
ATOM      6  C   UNL     1       6.963   4.839  15.608  0.00  0.00    +0.000 A 
ATOM      7  C   UNL     1       5.801   4.208  15.155  0.00  0.00    +0.000 A 
ATOM      8 CL   UNL     1       5.532   4.042  13.462  0.00  0.00    +0.000 Cl
ATOM      9  C   UNL     1       4.850   3.703  16.049  0.00  0.00    +0.000 A 
ATOM     10  C   UNL     1       5.099   3.819  17.428  0.00  0.00    +0.000 A 
ENDROOT
BRANCH   1  11
ATOM     11  C   UNL     1       3.158   2.776  18.865  0.00  0.00    +0.000 C 
BRANCH  11  12
ATOM     12  S   UNL     1       1.771   3.913  18.755  0.00  0.00    +0.000 S 
ATOM     13  O   UNL     1       0.753   3.531  19.708  0.00  0.00    +0.000 OA
ATOM     14  O   UNL     1       1.436   4.134  17.360  0.00  0.00    +0.000 OA
BRANCH  12  16
ATOM     15  C   UNL     1       2.455   6.421  18.221  0.00  0.00    +0.000 C 
ATOM     16  N   UNL     1       2.423   5.402  19.310  0.00  0.00    +0.000 NA
ATOM     17  C   UNL     1       1.815   5.964  20.535  0.00  0.00    +0.000 C 
ENDBRANCH  12  16
ENDBRANCH  11  12
ENDBRANCH   1  11
TORSDOF 3
ENDMDL
