MODEL 1
REMARK VINA RESULT:      -8.1      0.000      0.000
REMARK  Name = 
REMARK  6 active torsions:
REMARK  status: ('A' for Active; 'I' for Inactive)
REMARK    1  A    between atoms: C_1  and  C_2
REMARK    2  A    between atoms: C_5  and  C_6
REMARK    3  A    between atoms: N_8  and  C_9
REMARK    4  A    between atoms: C_14  and  C_15
REMARK    5  A    between atoms: C_19  and  C_20
REMARK    6  A    between atoms: C_22  and  C_23
REMARK                            x       y       z     vdW  Elec       q    Type
REMARK                         _______ _______ _______ _____ _____    ______ ____
ROOT
ATOM      1  C   UNL     1       3.430   4.562  19.396  0.00  0.00    +0.000 A 
ATOM      2  C   UNL     1       3.442   3.323  20.065  0.00  0.00    +0.000 A 
ATOM      3  C   UNL     1       2.507   3.019  21.052  0.00  0.00    +0.000 A 
ATOM      4  C   UNL     1       1.552   3.960  21.405  0.00  0.00    +0.000 A 
ATOM      5  C   UNL     1       1.523   5.192  20.748  0.00  0.00    +0.000 A 
ATOM      6  C   UNL     1       2.447   5.508  19.728  0.00  0.00    +0.000 A 
ENDROOT
BRANCH   6   7
ATOM      7  C   UNL     1       2.216   6.825  19.073  0.00  0.00    +0.000 C 
ATOM      8  O   UNL     1       2.334   6.833  17.843  0.00  0.00    +0.000 OA
ATOM      9  N   UNL     1       1.832   7.973  19.764  0.00  0.00    +0.000 N 
ATOM     10  C   UNL     1       1.500   9.176  18.985  0.00  0.00    +0.000 C 
ATOM     11  C   UNL     1       0.075   9.635  19.331  0.00  0.00    +0.000 C 
ATOM     12  C   UNL     1      -0.334  10.867  18.542  0.00  0.00    +0.000 C 
ATOM     13  O   UNL     1       0.007   9.958  20.732  0.00  0.00    +0.000 OA
ATOM     14  C   UNL     1       0.249   8.789  21.532  0.00  0.00    +0.000 C 
ATOM     15  C   UNL     1       0.220   9.205  22.998  0.00  0.00    +0.000 C 
ATOM     16  C   UNL     1       1.600   8.132  21.203  0.00  0.00    +0.000 C 
ENDBRANCH   6   7
BRANCH   1  19
ATOM     17  C   UNL     1       4.233   4.214  17.121  0.00  0.00    +0.000 C 
ATOM     18  O   UNL     1       3.286   3.490  16.818  0.00  0.00    +0.000 OA
ATOM     19  N   UNL     1       4.398   4.783  18.385  0.00  0.00    +0.000 N 
ATOM     20  H   UNL     1       5.338   4.979  18.700  0.00  0.00    +0.000 HD
BRANCH  17  25
ATOM     21  C   UNL     1       8.140   5.215  12.956  0.00  0.00    +0.000 C 
ATOM     22  C   UNL     1       7.172   4.885  14.052  0.00  0.00    +0.000 A 
ATOM     23  C   UNL     1       5.972   4.227  13.776  0.00  0.00    +0.000 A 
ATOM     24  C   UNL     1       5.052   3.993  14.797  0.00  0.00    +0.000 A 
ATOM     25  C   UNL     1       5.310   4.419  16.111  0.00  0.00    +0.000 A 
ATOM     26  C   UNL     1       6.528   5.042  16.396  0.00  0.00    +0.000 A 
ATOM     27  C   UNL     1       7.452   5.270  15.371  0.00  0.00    +0.000 A 
ENDBRANCH  17  25
ENDBRANCH   1  19
TORSDOF 3
ENDMDL
MODEL 2
REMARK VINA RESULT:      -8.0      2.012      6.913
REMARK  Name = 
REMARK  6 active torsions:
REMARK  status: ('A' for Active; 'I' for Inactive)
REMARK    1  A    between atoms: C_1  and  C_2
REMARK    2  A    between atoms: C_5  and  C_6
REMARK    3  A    between atoms: N_8  and  C_9
REMARK    4  A    between atoms: C_14  and  C_15
REMARK    5  A    between atoms: C_19  and  C_20
REMARK    6  A    between atoms: C_22  and  C_23
REMARK                            x       y       z     vdW  Elec       q    Type
REMARK                         _______ _______ _______ _____ _____    ______ ____
ROOT
ATOM      1  C   UNL     1       4.878   5.906  16.958  0.00  0.00    +0.000 A 
ATOM      2  C   UNL     1       5.101   6.214  15.602  0.00  0.00    +0.000 A 
ATOM      3  C   UNL     1       5.713   5.307  14.741  0.00  0.00    +0.000 A 
ATOM      4  C   UNL     1       6.135   4.078  15.225  0.00  0.00    +0.000 A 
ATOM      5  C   UNL     1       5.918   3.755  16.567  0.00  0.00    +0.000 A 
ATOM      6  C   UNL     1       5.278   4.653  17.448  0.00  0.00    +0.000 A 
ENDROOT
BRANCH   6   7
ATOM      7  C   UNL     1       5.046   4.113  18.817  0.00  0.00    +0.000 C 
ATOM      8  O   UNL     1       5.802   4.547  19.693  0.00  0.00    +0.000 OA
ATOM      9  N   UNL     1       4.016   3.229  19.132  0.00  0.00    +0.000 N 
ATOM     10  C   UNL     1       3.807   2.879  20.546  0.00  0.00    +0.000 C 
ATOM     11  C   UNL     1       2.364   3.219  20.952  0.00  0.00    +0.000 C 
ATOM     12  C   UNL     1       2.092   2.896  22.411  0.00  0.00    +0.000 C 
ATOM     13  O   UNL     1       1.451   2.450  20.145  0.00  0.00    +0.000 OA
ATOM     14  C   UNL     1       1.568   2.819  18.762  0.00  0.00    +0.000 C 
ATOM     15  C   UNL     1       0.622   1.936  17.957  0.00  0.00    +0.000 C 
ATOM     16  C   UNL     1       3.005   2.655  18.239  0.00  0.00    +0.000 C 
ENDBRANCH   6   7
BRANCH   1  19
ATOM     17  C   UNL     1       2.866   6.741  18.050  0.00  0.00    +0.000 C 
ATOM     18  O   UNL     1       2.164   5.826  17.622  0.00  0.00    +0.000 OA
ATOM     19  N   UNL     1       4.225   6.873  17.763  0.00  0.00    +0.000 N 
ATOM     20  H   UNL     1       4.624   7.803  17.759  0.00  0.00    +0.000 HD
BRANCH  17  25
ATOM     21  C   UNL     1      -0.008  10.927  20.849  0.00  0.00    +0.000 C 
ATOM     22  C   UNL     1       0.808   9.877  20.156  0.00  0.00    +0.000 A 
ATOM     23  C   UNL     1       1.184  10.027  18.819  0.00  0.00    +0.000 A 
ATOM     24  C   UNL     1       1.881   9.007  18.172  0.00  0.00    +0.000 A 
ATOM     25  C   UNL     1       2.207   7.817  18.844  0.00  0.00    +0.000 A 
ATOM     26  C   UNL     1       1.864   7.683  20.192  0.00  0.00    +0.000 A 
ATOM     27  C   UNL     1       1.171   8.710  20.842  0.00  0.00    +0.000 A 
ENDBRANCH  17  25
ENDBRANCH   1  19
TORSDOF 3
ENDMDL
MODEL 3
REMARK VINA RESULT:      -7.7      7.238     10.508
REMARK  Name = 
REMARK  6 active torsions:
REMARK  status: ('A' for Active; 'I' for Inactive)
REMARK    1  A    between atoms: C_1  and  C_2
REMARK    2  A    between atoms: C_5  and  C_6
REMARK    3  A    between atoms: N_8  and  C_9
REMARK    4  A    between atoms: C_14  and  C_15
REMARK    5  A    between atoms: C_19  and  C_20
REMARK    6  A    between atoms: C_22  and  C_23
REMARK                            x       y       z     vdW  Elec       q    Type
REMARK                         _______ _______ _______ _____ _____    ______ ____
ROOT
ATOM      1  C   UNL     1      -3.769  14.402  21.653  0.00  0.00    +0.000 A 
ATOM      2  C   UNL     1      -4.327  15.691  21.553  0.00  0.00    +0.000 A 
ATOM      3  C   UNL     1      -4.632  16.442  22.686  0.00  0.00    +0.000 A 
ATOM      4  C   UNL     1      -4.404  15.908  23.945  0.00  0.00    +0.000 A 
ATOM      5  C   UNL     1      -3.847  14.632  24.062  0.00  0.00    +0.000 A 
ATOM      6  C   UNL     1      -3.508  13.867  22.925  0.00  0.00    +0.000 A 
ENDROOT
BRANCH   6   7
ATOM      7  C   UNL     1      -2.842  12.571  23.229  0.00  0.00    +0.000 C 
ATOM      8  O   UNL     1      -3.575  11.696  23.701  0.00  0.00    +0.000 OA
ATOM      9  N   UNL     1      -1.500  12.311  22.954  0.00  0.00    +0.000 N 
ATOM     10  C   UNL     1      -0.996  10.947  23.173  0.00  0.00    +0.000 C 
ATOM     11  C   UNL     1      -0.389  10.407  21.868  0.00  0.00    +0.000 C 
ATOM     12  C   UNL     1       0.134   8.990  22.027  0.00  0.00    +0.000 C 
ATOM     13  O   UNL     1       0.711  11.249  21.474  0.00  0.00    +0.000 OA
ATOM     14  C   UNL     1       0.249  12.576  21.173  0.00  0.00    +0.000 C 
ATOM     15  C   UNL     1       1.460  13.429  20.818  0.00  0.00    +0.000 C 
ATOM     16  C   UNL     1      -0.505  13.207  22.356  0.00  0.00    +0.000 C 
ENDBRANCH   6   7
BRANCH   1  19
ATOM     17  C   UNL     1      -4.301  12.699  19.994  0.00  0.00    +0.000 C 
ATOM     18  O   UNL     1      -5.312  12.329  20.589  0.00  0.00    +0.000 OA
ATOM     19  N   UNL     1      -3.462  13.714  20.452  0.00  0.00    +0.000 N 
ATOM     20  H   UNL     1      -2.485  13.679  20.193  0.00  0.00    +0.000 HD
BRANCH  17  25
ATOM     21  C   UNL     1      -2.885  10.148  14.984  0.00  0.00    +0.000 C 
ATOM     22  C   UNL     1      -3.265  10.730  16.312  0.00  0.00    +0.000 A 
ATOM     23  C   UNL     1      -4.565  11.178  16.553  0.00  0.00    +0.000 A 
ATOM     24  C   UNL     1      -4.880  11.783  17.770  0.00  0.00    +0.000 A 
ATOM     25  C   UNL     1      -3.903  11.958  18.763  0.00  0.00    +0.000 A 
ATOM     26  C   UNL     1      -2.611  11.473  18.537  0.00  0.00    +0.000 A 
ATOM     27  C   UNL     1      -2.299  10.862  17.318  0.00  0.00    +0.000 A 
ENDBRANCH  17  25
ENDBRANCH   1  19
TORSDOF 3
ENDMDL
MODEL 4
REMARK VINA RESULT:      -7.7      3.536      6.777
REMARK  Name = 
REMARK  6 active torsions:
REMARK  status: ('A' for Active; 'I' for Inactive)
REMARK    1  A    between atoms: C_1  and  C_2
REMARK    2  A    between atoms: C_5  and  C_6
REMARK    3  A    between atoms: N_8  and  C_9
REMARK    4  A    between atoms: C_14  and  C_15
REMARK    5  A    between atoms: C_19  and  C_20
REMARK    6  A    between atoms: C_22  and  C_23
REMARK                            x       y       z     vdW  Elec       q    Type
REMARK                         _______ _______ _______ _____ _____    ______ ____
ROOT
ATOM      1  C   UNL     1      -0.639  10.205  21.193  0.00  0.00    +0.000 A 
ATOM      2  C   UNL     1      -0.771  10.235  22.595  0.00  0.00    +0.000 A 
ATOM      3  C   UNL     1      -1.317  11.334  23.252  0.00  0.00    +0.000 A 
ATOM      4  C   UNL     1      -1.723  12.439  22.519  0.00  0.00    +0.000 A 
ATOM      5  C   UNL     1      -1.603  12.426  21.128  0.00  0.00    +0.000 A 
ATOM      6  C   UNL     1      -1.074  11.309  20.443  0.00  0.00    +0.000 A 
ENDROOT
BRANCH   6   7
ATOM      7  C   UNL     1      -1.103  11.426  18.959  0.00  0.00    +0.000 C 
ATOM      8  O   UNL     1      -0.007  11.314  18.397  0.00  0.00    +0.000 OA
ATOM      9  N   UNL     1      -2.274  11.587  18.221  0.00  0.00    +0.000 N 
ATOM     10  C   UNL     1      -2.183  11.549  16.753  0.00  0.00    +0.000 C 
ATOM     11  C   UNL     1      -3.112  10.452  16.208  0.00  0.00    +0.000 C 
ATOM     12  C   UNL     1      -3.047  10.352  14.694  0.00  0.00    +0.000 C 
ATOM     13  O   UNL     1      -4.470  10.754  16.580  0.00  0.00    +0.000 OA
ATOM     14  C   UNL     1      -4.621  10.724  18.008  0.00  0.00    +0.000 C 
ATOM     15  C   UNL     1      -6.059  11.105  18.339  0.00  0.00    +0.000 C 
ATOM     16  C   UNL     1      -3.652  11.688  18.712  0.00  0.00    +0.000 C 
ENDBRANCH   6   7
BRANCH   1  19
ATOM     17  C   UNL     1       1.157   8.570  20.991  0.00  0.00    +0.000 C 
ATOM     18  O   UNL     1       1.863   9.131  21.827  0.00  0.00    +0.000 OA
ATOM     19  N   UNL     1      -0.098   9.038  20.599  0.00  0.00    +0.000 N 
ATOM     20  H   UNL     1      -0.417   8.822  19.664  0.00  0.00    +0.000 HD
BRANCH  17  25
ATOM     21  C   UNL     1       3.693   4.135  18.251  0.00  0.00    +0.000 C 
ATOM     22  C   UNL     1       2.964   5.259  18.923  0.00  0.00    +0.000 A 
ATOM     23  C   UNL     1       2.961   6.543  18.373  0.00  0.00    +0.000 A 
ATOM     24  C   UNL     1       2.338   7.590  19.050  0.00  0.00    +0.000 A 
ATOM     25  C   UNL     1       1.714   7.378  20.291  0.00  0.00    +0.000 A 
ATOM     26  C   UNL     1       1.683   6.085  20.822  0.00  0.00    +0.000 A 
ATOM     27  C   UNL     1       2.303   5.035  20.139  0.00  0.00    +0.000 A 
ENDBRANCH  17  25
ENDBRANCH   1  19
TORSDOF 3
ENDMDL
MODEL 5
REMARK VINA RESULT:      -7.6      0.794      1.223
REMARK  Name = 
REMARK  6 active torsions:
REMARK  status: ('A' for Active; 'I' for Inactive)
REMARK    1  A    between atoms: C_1  and  C_2
REMARK    2  A    between atoms: C_5  and  C_6
REMARK    3  A    between atoms: N_8  and  C_9
REMARK    4  A    between atoms: C_14  and  C_15
REMARK    5  A    between atoms: C_19  and  C_20
REMARK    6  A    between atoms: C_22  and  C_23
REMARK                            x       y       z     vdW  Elec       q    Type
REMARK                         _______ _______ _______ _____ _____    ______ ____
ROOT
ATOM      1  C   UNL     1       2.821   4.270  18.792  0.00  0.00    +0.000 A 
ATOM      2  C   UNL     1       2.657   3.003  19.385  0.00  0.00    +0.000 A 
ATOM      3  C   UNL     1       1.995   2.849  20.600  0.00  0.00    +0.000 A 
ATOM      4  C   UNL     1       1.500   3.964  21.259  0.00  0.00    +0.000 A 
ATOM      5  C   UNL     1       1.651   5.227  20.683  0.00  0.00    +0.000 A 
ATOM      6  C   UNL     1       2.297   5.400  19.440  0.00  0.00    +0.000 A 
ENDROOT
BRANCH   6   7
ATOM      7  C   UNL     1       2.290   6.799  18.930  0.00  0.00    +0.000 C 
ATOM      8  O   UNL     1       2.604   6.932  17.742  0.00  0.00    +0.000 OA
ATOM      9  N   UNL     1       1.898   7.897  19.695  0.00  0.00    +0.000 N 
ATOM     10  C   UNL     1       1.801   9.207  19.034  0.00  0.00    +0.000 C 
ATOM     11  C   UNL     1       0.383   9.771  19.217  0.00  0.00    +0.000 C 
ATOM     12  C   UNL     1       0.215  11.119  18.538  0.00  0.00    +0.000 C 
ATOM     13  O   UNL     1       0.119   9.941  20.622  0.00  0.00    +0.000 OA
ATOM     14  C   UNL     1       0.127   8.671  21.294  0.00  0.00    +0.000 C 
ATOM     15  C   UNL     1      -0.103   8.922  22.780  0.00  0.00    +0.000 C 
ATOM     16  C   UNL     1       1.452   7.918  21.091  0.00  0.00    +0.000 C 
ENDBRANCH   6   7
BRANCH   1  19
ATOM     17  C   UNL     1       4.877   4.377  17.488  0.00  0.00    +0.000 C 
ATOM     18  O   UNL     1       5.597   4.378  18.485  0.00  0.00    +0.000 OA
ATOM     19  N   UNL     1       3.483   4.339  17.540  0.00  0.00    +0.000 N 
ATOM     20  H   UNL     1       2.965   4.763  16.782  0.00  0.00    +0.000 HD
BRANCH  17  25
ATOM     21  C   UNL     1       7.762   4.783  12.476  0.00  0.00    +0.000 C 
ATOM     22  C   UNL     1       6.967   4.743  13.746  0.00  0.00    +0.000 A 
ATOM     23  C   UNL     1       7.416   5.400  14.894  0.00  0.00    +0.000 A 
ATOM     24  C   UNL     1       6.699   5.290  16.085  0.00  0.00    +0.000 A 
ATOM     25  C   UNL     1       5.527   4.518  16.154  0.00  0.00    +0.000 A 
ATOM     26  C   UNL     1       5.057   3.894  14.995  0.00  0.00    +0.000 A 
ATOM     27  C   UNL     1       5.774   4.009  13.800  0.00  0.00    +0.000 A 
ENDBRANCH  17  25
ENDBRANCH   1  19
TORSDOF 3
ENDMDL
MODEL 6
REMARK VINA RESULT:      -7.6      2.476      6.817
REMARK  Name = 
REMARK  6 active torsions:
REMARK  status: ('A' for Active; 'I' for Inactive)
REMARK    1  A    between atoms: C_1  and  C_2
REMARK    2  A    between atoms: C_5  and  C_6
REMARK    3  A    between atoms: N_8  and  C_9
REMARK    4  A    between atoms: C_14  and  C_15
REMARK    5  A    between atoms: C_19  and  C_20
REMARK    6  A    between atoms: C_22  and  C_23
REMARK                            x       y       z     vdW  Elec       q    Type
REMARK                         _______ _______ _______ _____ _____    ______ ____
ROOT
ATOM      1  C   UNL     1       2.796   4.582  17.873  0.00  0.00    +0.000 A 
ATOM      2  C   UNL     1       2.060   3.501  18.398  0.00  0.00    +0.000 A 
ATOM      3  C   UNL     1       2.538   2.195  18.331  0.00  0.00    +0.000 A 
ATOM      4  C   UNL     1       3.754   1.940  17.716  0.00  0.00    +0.000 A 
ATOM      5  C   UNL     1       4.498   3.000  17.193  0.00  0.00    +0.000 A 
ATOM      6  C   UNL     1       4.041   4.333  17.274  0.00  0.00    +0.000 A 
ENDROOT
BRANCH   6   7
ATOM      7  C   UNL     1       4.998   5.346  16.750  0.00  0.00    +0.000 C 
ATOM      8  O   UNL     1       4.578   6.041  15.818  0.00  0.00    +0.000 OA
ATOM      9  N   UNL     1       6.265   5.563  17.292  0.00  0.00    +0.000 N 
ATOM     10  C   UNL     1       7.060   6.687  16.774  0.00  0.00    +0.000 C 
ATOM     11  C   UNL     1       7.442   7.623  17.931  0.00  0.00    +0.000 C 
ATOM     12  C   UNL     1       8.252   8.817  17.455  0.00  0.00    +0.000 C 
ATOM     13  O   UNL     1       8.236   6.896  18.887  0.00  0.00    +0.000 OA
ATOM     14  C   UNL     1       7.469   5.833  19.476  0.00  0.00    +0.000 C 
ATOM     15  C   UNL     1       8.377   5.069  20.433  0.00  0.00    +0.000 C 
ATOM     16  C   UNL     1       6.902   4.874  18.418  0.00  0.00    +0.000 C 
ENDBRANCH   6   7
BRANCH   1  19
ATOM     17  C   UNL     1       2.532   6.647  19.140  0.00  0.00    +0.000 C 
ATOM     18  O   UNL     1       3.221   6.247  20.078  0.00  0.00    +0.000 OA
ATOM     19  N   UNL     1       2.253   5.885  18.005  0.00  0.00    +0.000 N 
ATOM     20  H   UNL     1       1.388   6.062  17.512  0.00  0.00    +0.000 HD
BRANCH  17  25
ATOM     21  C   UNL     1       0.285  11.930  19.948  0.00  0.00    +0.000 C 
ATOM     22  C   UNL     1       0.790  10.538  19.712  0.00  0.00    +0.000 A 
ATOM     23  C   UNL     1       0.850   9.610  20.754  0.00  0.00    +0.000 A 
ATOM     24  C   UNL     1       1.390   8.344  20.531  0.00  0.00    +0.000 A 
ATOM     25  C   UNL     1       1.886   7.984  19.267  0.00  0.00    +0.000 A 
ATOM     26  C   UNL     1       1.789   8.899  18.214  0.00  0.00    +0.000 A 
ATOM     27  C   UNL     1       1.242  10.166  18.439  0.00  0.00    +0.000 A 
ENDBRANCH  17  25
ENDBRANCH   1  19
TORSDOF 3
ENDMDL
MODEL 7
REMARK VINA RESULT:      -7.6      2.555      6.962
REMARK  Name = 
REMARK  6 active torsions:
REMARK  status: ('A' for Active; 'I' for Inactive)
REMARK    1  A    between atoms: C_1  and  C_2
REMARK    2  A    between atoms: C_5  and  C_6
REMARK    3  A    between atoms: N_8  and  C_9
REMARK    4  A    between atoms: C_14  and  C_15
REMARK    5  A    between atoms: C_19  and  C_20
REMARK    6  A    between atoms: C_22  and  C_23
REMARK                            x       y       z     vdW  Elec       q    Type
REMARK                         _______ _______ _______ _____ _____    ______ ____
ROOT
ATOM      1  C   UNL     1       2.891   5.080  17.805  0.00  0.00    +0.000 A 
ATOM      2  C   UNL     1       2.123   3.984  18.241  0.00  0.00    +0.000 A 
ATOM      3  C   UNL     1       2.545   2.673  18.037  0.00  0.00    +0.000 A 
ATOM      4  C   UNL     1       3.737   2.431  17.372  0.00  0.00    +0.000 A 
ATOM      5  C   UNL     1       4.514   3.507  16.936  0.00  0.00    +0.000 A 
ATOM      6  C   UNL     1       4.114   4.843  17.156  0.00  0.00    +0.000 A 
ENDROOT
BRANCH   6   7
ATOM      7  C   UNL     1       5.101   5.864  16.709  0.00  0.00    +0.000 C 
ATOM      8  O   UNL     1       4.696   6.651  15.847  0.00  0.00    +0.000 OA
ATOM      9  N   UNL     1       6.379   5.989  17.251  0.00  0.00    +0.000 N 
ATOM     10  C   UNL     1       7.210   7.126  16.822  0.00  0.00    +0.000 C 
ATOM     11  C   UNL     1       7.636   7.943  18.051  0.00  0.00    +0.000 C 
ATOM     12  C   UNL     1       8.483   9.145  17.670  0.00  0.00    +0.000 C 
ATOM     13  O   UNL     1       8.414   7.108  18.930  0.00  0.00    +0.000 OA
ATOM     14  C   UNL     1       7.615   6.026  19.435  0.00  0.00    +0.000 C 
ATOM     15  C   UNL     1       8.505   5.150  20.309  0.00  0.00    +0.000 C 
ATOM     16  C   UNL     1       7.003   5.182  18.304  0.00  0.00    +0.000 C 
ENDBRANCH   6   7
BRANCH   1  19
ATOM     17  C   UNL     1       2.323   6.841  19.391  0.00  0.00    +0.000 C 
ATOM     18  O   UNL     1       2.630   6.162  20.369  0.00  0.00    +0.000 OA
ATOM     19  N   UNL     1       2.406   6.384  18.075  0.00  0.00    +0.000 N 
ATOM     20  H   UNL     1       1.770   6.776  17.393  0.00  0.00    +0.000 HD
BRANCH  17  25
ATOM     21  C   UNL     1      -0.210  12.018  20.021  0.00  0.00    +0.000 C 
ATOM     22  C   UNL     1       0.518  10.715  19.884  0.00  0.00    +0.000 A 
ATOM     23  C   UNL     1       1.032  10.306  18.651  0.00  0.00    +0.000 A 
ATOM     24  C   UNL     1       1.642   9.058  18.529  0.00  0.00    +0.000 A 
ATOM     25  C   UNL     1       1.743   8.193  19.631  0.00  0.00    +0.000 A 
ATOM     26  C   UNL     1       1.264   8.619  20.874  0.00  0.00    +0.000 A 
ATOM     27  C   UNL     1       0.658   9.873  20.996  0.00  0.00    +0.000 A 
ENDBRANCH  17  25
ENDBRANCH   1  19
TORSDOF 3
ENDMDL
MODEL 8
REMARK VINA RESULT:      -7.4      4.726      8.615
REMARK  Name = 
REMARK  6 active torsions:
REMARK  status: ('A' for Active; 'I' for Inactive)
REMARK    1  A    between atoms: C_1  and  C_2
REMARK    2  A    between atoms: C_5  and  C_6
REMARK    3  A    between atoms: N_8  and  C_9
REMARK    4  A    between atoms: C_14  and  C_15
REMARK    5  A    between atoms: C_19  and  C_20
REMARK    6  A    between atoms: C_22  and  C_23
REMARK                            x       y       z     vdW  Elec       q    Type
REMARK                         _______ _______ _______ _____ _____    ______ ____
ROOT
ATOM      1  C   UNL     1       0.621  13.774  19.753  0.00  0.00    +0.000 A 
ATOM      2  C   UNL     1       1.069  14.645  18.741  0.00  0.00    +0.000 A 
ATOM      3  C   UNL     1       0.593  15.949  18.639  0.00  0.00    +0.000 A 
ATOM      4  C   UNL     1      -0.361  16.403  19.536  0.00  0.00    +0.000 A 
ATOM      5  C   UNL     1      -0.814  15.554  20.549  0.00  0.00    +0.000 A 
ATOM      6  C   UNL     1      -0.324  14.237  20.682  0.00  0.00    +0.000 A 
ENDROOT
BRANCH   6   7
ATOM      7  C   UNL     1      -0.845  13.503  21.868  0.00  0.00    +0.000 C 
ATOM      8  O   UNL     1      -0.164  13.601  22.895  0.00  0.00    +0.000 OA
ATOM      9  N   UNL     1      -2.047  12.796  21.870  0.00  0.00    +0.000 N 
ATOM     10  C   UNL     1      -2.520  12.230  23.143  0.00  0.00    +0.000 C 
ATOM     11  C   UNL     1      -3.928  12.765  23.452  0.00  0.00    +0.000 C 
ATOM     12  C   UNL     1      -4.464  12.230  24.768  0.00  0.00    +0.000 C 
ATOM     13  O   UNL     1      -4.829  12.363  22.403  0.00  0.00    +0.000 OA
ATOM     14  C   UNL     1      -4.447  12.959  21.153  0.00  0.00    +0.000 C 
ATOM     15  C   UNL     1      -5.400  12.453  20.078  0.00  0.00    +0.000 C 
ATOM     16  C   UNL     1      -2.998  12.617  20.768  0.00  0.00    +0.000 C 
ENDBRANCH   6   7
BRANCH   1  19
ATOM     17  C   UNL     1       0.565  11.423  19.115  0.00  0.00    +0.000 C 
ATOM     18  O   UNL     1      -0.469  11.548  18.461  0.00  0.00    +0.000 OA
ATOM     19  N   UNL     1       1.175  12.470  19.805  0.00  0.00    +0.000 N 
ATOM     20  H   UNL     1       1.718  12.248  20.628  0.00  0.00    +0.000 HD
BRANCH  17  25
ATOM     21  C   UNL     1       2.441   5.978  19.784  0.00  0.00    +0.000 C 
ATOM     22  C   UNL     1       2.035   7.413  19.629  0.00  0.00    +0.000 A 
ATOM     23  C   UNL     1       1.450   8.111  20.687  0.00  0.00    +0.000 A 
ATOM     24  C   UNL     1       1.013   9.422  20.501  0.00  0.00    +0.000 A 
ATOM     25  C   UNL     1       1.145  10.056  19.254  0.00  0.00    +0.000 A 
ATOM     26  C   UNL     1       1.766   9.371  18.206  0.00  0.00    +0.000 A 
ATOM     27  C   UNL     1       2.209   8.058  18.397  0.00  0.00    +0.000 A 
ENDBRANCH  17  25
ENDBRANCH   1  19
TORSDOF 3
ENDMDL
MODEL 9
REMARK VINA RESULT:      -7.4      1.764      6.586
REMARK  Name = 
REMARK  6 active torsions:
REMARK  status: ('A' for Active; 'I' for Inactive)
REMARK    1  A    between atoms: C_1  and  C_2
REMARK    2  A    between atoms: C_5  and  C_6
REMARK    3  A    between atoms: N_8  and  C_9
REMARK    4  A    between atoms: C_14  and  C_15
REMARK    5  A    between atoms: C_19  and  C_20
REMARK    6  A    between atoms: C_22  and  C_23
REMARK                            x       y       z     vdW  Elec       q    Type
REMARK                         _______ _______ _______ _____ _____    ______ ____
ROOT
ATOM      1  C   UNL     1       2.249   4.687  19.885  0.00  0.00    +0.000 A 
ATOM      2  C   UNL     1       1.826   4.488  21.214  0.00  0.00    +0.000 A 
ATOM      3  C   UNL     1       1.840   3.226  21.801  0.00  0.00    +0.000 A 
ATOM      4  C   UNL     1       2.258   2.130  21.063  0.00  0.00    +0.000 A 
ATOM      5  C   UNL     1       2.684   2.309  19.745  0.00  0.00    +0.000 A 
ATOM      6  C   UNL     1       2.700   3.585  19.141  0.00  0.00    +0.000 A 
ENDROOT
BRANCH   6   7
ATOM      7  C   UNL     1       3.268   3.609  17.765  0.00  0.00    +0.000 C 
ATOM      8  O   UNL     1       2.467   3.367  16.856  0.00  0.00    +0.000 OA
ATOM      9  N   UNL     1       4.593   3.940  17.484  0.00  0.00    +0.000 N 
ATOM     10  C   UNL     1       4.996   4.063  16.074  0.00  0.00    +0.000 C 
ATOM     11  C   UNL     1       5.587   5.461  15.829  0.00  0.00    +0.000 C 
ATOM     12  C   UNL     1       6.006   5.656  14.383  0.00  0.00    +0.000 C 
ATOM     13  O   UNL     1       6.750   5.636  16.660  0.00  0.00    +0.000 OA
ATOM     14  C   UNL     1       6.388   5.600  18.050  0.00  0.00    +0.000 C 
ATOM     15  C   UNL     1       7.663   5.733  18.874  0.00  0.00    +0.000 C 
ATOM     16  C   UNL     1       5.660   4.298  18.424  0.00  0.00    +0.000 C 
ENDBRANCH   6   7
BRANCH   1  19
ATOM     17  C   UNL     1       1.714   7.051  20.138  0.00  0.00    +0.000 C 
ATOM     18  O   UNL     1       1.235   6.899  21.261  0.00  0.00    +0.000 OA
ATOM     19  N   UNL     1       2.231   6.007  19.370  0.00  0.00    +0.000 N 
ATOM     20  H   UNL     1       2.198   6.094  18.363  0.00  0.00    +0.000 HD
BRANCH  17  25
ATOM     21  C   UNL     1       1.663  12.485  18.117  0.00  0.00    +0.000 C 
ATOM     22  C   UNL     1       1.606  11.064  18.594  0.00  0.00    +0.000 A 
ATOM     23  C   UNL     1       1.013  10.742  19.817  0.00  0.00    +0.000 A 
ATOM     24  C   UNL     1       1.034   9.425  20.276  0.00  0.00    +0.000 A 
ATOM     25  C   UNL     1       1.653   8.410  19.529  0.00  0.00    +0.000 A 
ATOM     26  C   UNL     1       2.212   8.726  18.287  0.00  0.00    +0.000 A 
ATOM     27  C   UNL     1       2.185  10.046  17.825  0.00  0.00    +0.000 A 
ENDBRANCH  17  25
ENDBRANCH   1  19
TORSDOF 3
ENDMDL
