MODEL 1
REMARK VINA RESULT:      -9.1      0.000      0.000
REMARK  Name = 
REMARK  9 active torsions:
REMARK  status: ('A' for Active; 'I' for Inactive)
REMARK    1  A    between atoms: C_1  and  C_2
REMARK    2  A    between atoms: C_5  and  C_6
REMARK    3  A    between atoms: N_8  and  N_9
REMARK    4  A    between atoms: C_10  and  C_12
REMARK    5  A    between atoms: C_17  and  O_18
REMARK    6  A    between atoms: O_18  and  C_19
REMARK    7  A    between atoms: C_19  and  C_20
REMARK    8  A    between atoms: C_21  and  C_22
REMARK    9  A    between atoms: C_25  and  C_26
REMARK                            x       y       z     vdW  Elec       q    Type
REMARK                         _______ _______ _______ _____ _____    ______ ____
ROOT
ATOM      1  N   UNL     1       1.726   7.378  21.082  0.00  0.00    +0.000 N 
ATOM      2  C   UNL     1       2.168   6.797  19.895  0.00  0.00    +0.000 C 
ATOM      3  O   UNL     1       2.366   7.453  18.877  0.00  0.00    +0.000 OA
ATOM      4  H   UNL     1       1.549   6.856  21.936  0.00  0.00    +0.000 HD
ENDROOT
BRANCH   2   5
ATOM      5  C   UNL     1       2.352   5.299  19.926  0.00  0.00    +0.000 A 
ATOM      6  C   UNL     1       1.231   4.484  20.194  0.00  0.00    +0.000 A 
ATOM      7  C   UNL     1       1.324   3.088  20.218  0.00  0.00    +0.000 A 
ATOM      8  C   UNL     1       2.511   2.465  19.868  0.00  0.00    +0.000 A 
ATOM      9  C   UNL     1       3.614   3.243  19.538  0.00  0.00    +0.000 A 
ATOM     10  C   UNL     1       3.582   4.653  19.660  0.00  0.00    +0.000 A 
BRANCH  10  11
ATOM     11  O   UNL     1       4.757   5.378  19.604  0.00  0.00    +0.000 OA
BRANCH  11  12
ATOM     12  C   UNL     1       5.838   4.636  18.996  0.00  0.00    +0.000 C 
BRANCH  12  13
ATOM     13  C   UNL     1       6.337   5.164  17.708  0.00  0.00    +0.000 A 
ATOM     14  C   UNL     1       7.315   6.183  17.552  0.00  0.00    +0.000 A 
ATOM     15  C   UNL     1       8.023   6.965  18.596  0.00  0.00    +0.000 C 
ATOM     16  N   UNL     1       7.528   6.455  16.262  0.00  0.00    +0.000 NA
ATOM     17  O   UNL     1       6.651   5.652  15.554  0.00  0.00    +0.000 OA
ATOM     18  C   UNL     1       5.919   4.909  16.426  0.00  0.00    +0.000 A 
ATOM     19  C   UNL     1       4.847   4.071  15.859  0.00  0.00    +0.000 C 
ENDBRANCH  12  13
ENDBRANCH  11  12
ENDBRANCH  10  11
ENDBRANCH   2   5
BRANCH   1  22
ATOM     20  C   UNL     1       0.087   9.030  21.678  0.00  0.00    +0.000 C 
ATOM     21  O   UNL     1      -0.709   8.141  21.981  0.00  0.00    +0.000 OA
ATOM     22  N   UNL     1       1.334   8.740  21.129  0.00  0.00    +0.000 N 
ATOM     23  H   UNL     1       2.072   9.426  21.006  0.00  0.00    +0.000 HD
BRANCH  20  28
ATOM     24  C   UNL     1      -1.241  14.644  22.539  0.00  0.00    +0.000 C 
ATOM     25  C   UNL     1      -0.856  13.202  22.359  0.00  0.00    +0.000 A 
ATOM     26  C   UNL     1       0.064  12.815  21.377  0.00  0.00    +0.000 A 
ATOM     27  C   UNL     1       0.372  11.461  21.188  0.00  0.00    +0.000 A 
ATOM     28  C   UNL     1      -0.241  10.468  21.968  0.00  0.00    +0.000 A 
ATOM     29  C   UNL     1      -1.133  10.857  22.976  0.00  0.00    +0.000 A 
ATOM     30  C   UNL     1      -1.435  12.214  23.166  0.00  0.00    +0.000 A 
ENDBRANCH  20  28
ENDBRANCH   1  22
TORSDOF 6
ENDMDL
MODEL 2
REMARK VINA RESULT:      -8.9      0.832      1.687
REMARK  Name = 
REMARK  9 active torsions:
REMARK  status: ('A' for Active; 'I' for Inactive)
REMARK    1  A    between atoms: C_1  and  C_2
REMARK    2  A    between atoms: C_5  and  C_6
REMARK    3  A    between atoms: N_8  and  N_9
REMARK    4  A    between atoms: C_10  and  C_12
REMARK    5  A    between atoms: C_17  and  O_18
REMARK    6  A    between atoms: O_18  and  C_19
REMARK    7  A    between atoms: C_19  and  C_20
REMARK    8  A    between atoms: C_21  and  C_22
REMARK    9  A    between atoms: C_25  and  C_26
REMARK                            x       y       z     vdW  Elec       q    Type
REMARK                         _______ _______ _______ _____ _____    ______ ____
ROOT
ATOM      1  N   UNL     1       1.712   7.112  20.887  0.00  0.00    +0.000 N 
ATOM      2  C   UNL     1       2.130   6.532  19.691  0.00  0.00    +0.000 C 
ATOM      3  O   UNL     1       2.375   7.197  18.689  0.00  0.00    +0.000 OA
ATOM      4  H   UNL     1       1.498   6.582  21.728  0.00  0.00    +0.000 HD
ENDROOT
BRANCH   2   5
ATOM      5  C   UNL     1       2.230   5.026  19.690  0.00  0.00    +0.000 A 
ATOM      6  C   UNL     1       1.281   4.284  20.427  0.00  0.00    +0.000 A 
ATOM      7  C   UNL     1       1.301   2.885  20.455  0.00  0.00    +0.000 A 
ATOM      8  C   UNL     1       2.198   2.187  19.663  0.00  0.00    +0.000 A 
ATOM      9  C   UNL     1       3.102   2.892  18.878  0.00  0.00    +0.000 A 
ATOM     10  C   UNL     1       3.200   4.302  18.957  0.00  0.00    +0.000 A 
BRANCH  10  11
ATOM     11  O   UNL     1       4.282   4.952  18.393  0.00  0.00    +0.000 OA
BRANCH  11  12
ATOM     12  C   UNL     1       4.610   4.447  17.081  0.00  0.00    +0.000 C 
BRANCH  12  13
ATOM     13  C   UNL     1       5.794   5.052  16.435  0.00  0.00    +0.000 A 
ATOM     14  C   UNL     1       6.170   4.891  15.073  0.00  0.00    +0.000 A 
ATOM     15  C   UNL     1       5.517   4.080  14.014  0.00  0.00    +0.000 C 
ATOM     16  N   UNL     1       7.304   5.541  14.804  0.00  0.00    +0.000 NA
ATOM     17  O   UNL     1       7.718   6.097  16.003  0.00  0.00    +0.000 OA
ATOM     18  C   UNL     1       6.829   5.771  16.979  0.00  0.00    +0.000 A 
ATOM     19  C   UNL     1       7.162   6.180  18.355  0.00  0.00    +0.000 C 
ENDBRANCH  12  13
ENDBRANCH  11  12
ENDBRANCH  10  11
ENDBRANCH   2   5
BRANCH   1  22
ATOM     20  C   UNL     1       0.154   8.839  21.487  0.00  0.00    +0.000 C 
ATOM     21  O   UNL     1      -0.699   7.990  21.746  0.00  0.00    +0.000 OA
ATOM     22  N   UNL     1       1.396   8.492  20.961  0.00  0.00    +0.000 N 
ATOM     23  H   UNL     1       2.175   9.137  20.875  0.00  0.00    +0.000 HD
BRANCH  20  28
ATOM     24  C   UNL     1      -0.879  14.496  22.466  0.00  0.00    +0.000 C 
ATOM     25  C   UNL     1      -0.570  13.039  22.255  0.00  0.00    +0.000 A 
ATOM     26  C   UNL     1       0.345  12.626  21.280  0.00  0.00    +0.000 A 
ATOM     27  C   UNL     1       0.582  11.262  21.063  0.00  0.00    +0.000 A 
ATOM     28  C   UNL     1      -0.100  10.285  21.807  0.00  0.00    +0.000 A 
ATOM     29  C   UNL     1      -0.987  10.699  22.809  0.00  0.00    +0.000 A 
ATOM     30  C   UNL     1      -1.218  12.066  23.028  0.00  0.00    +0.000 A 
ENDBRANCH  20  28
ENDBRANCH   1  22
TORSDOF 6
ENDMDL
MODEL 3
REMARK VINA RESULT:      -8.8      1.116      1.319
REMARK  Name = 
REMARK  9 active torsions:
REMARK  status: ('A' for Active; 'I' for Inactive)
REMARK    1  A    between atoms: C_1  and  C_2
REMARK    2  A    between atoms: C_5  and  C_6
REMARK    3  A    between atoms: N_8  and  N_9
REMARK    4  A    between atoms: C_10  and  C_12
REMARK    5  A    between atoms: C_17  and  O_18
REMARK    6  A    between atoms: O_18  and  C_19
REMARK    7  A    between atoms: C_19  and  C_20
REMARK    8  A    between atoms: C_21  and  C_22
REMARK    9  A    between atoms: C_25  and  C_26
REMARK                            x       y       z     vdW  Elec       q    Type
REMARK                         _______ _______ _______ _____ _____    ______ ____
ROOT
ATOM      1  N   UNL     1       1.444   7.053  20.802  0.00  0.00    +0.000 N 
ATOM      2  C   UNL     1       2.163   6.461  19.764  0.00  0.00    +0.000 C 
ATOM      3  O   UNL     1       2.763   7.121  18.921  0.00  0.00    +0.000 OA
ATOM      4  H   UNL     1       0.934   6.528  21.508  0.00  0.00    +0.000 HD
ENDROOT
BRANCH   2   5
ATOM      5  C   UNL     1       2.127   4.953  19.718  0.00  0.00    +0.000 A 
ATOM      6  C   UNL     1       1.600   4.253  20.825  0.00  0.00    +0.000 A 
ATOM      7  C   UNL     1       1.518   2.857  20.842  0.00  0.00    +0.000 A 
ATOM      8  C   UNL     1       1.856   2.127  19.715  0.00  0.00    +0.000 A 
ATOM      9  C   UNL     1       2.319   2.795  18.587  0.00  0.00    +0.000 A 
ATOM     10  C   UNL     1       2.556   4.190  18.606  0.00  0.00    +0.000 A 
BRANCH  10  11
ATOM     11  O   UNL     1       3.276   4.782  17.585  0.00  0.00    +0.000 OA
BRANCH  11  12
ATOM     12  C   UNL     1       4.117   3.842  16.882  0.00  0.00    +0.000 C 
BRANCH  12  13
ATOM     13  C   UNL     1       5.536   4.230  16.737  0.00  0.00    +0.000 A 
ATOM     14  C   UNL     1       6.359   4.768  17.765  0.00  0.00    +0.000 A 
ATOM     15  C   UNL     1       6.004   5.095  19.169  0.00  0.00    +0.000 C 
ATOM     16  N   UNL     1       7.584   5.042  17.310  0.00  0.00    +0.000 NA
ATOM     17  O   UNL     1       7.566   4.735  15.960  0.00  0.00    +0.000 OA
ATOM     18  C   UNL     1       6.330   4.283  15.619  0.00  0.00    +0.000 A 
ATOM     19  C   UNL     1       6.084   4.013  14.191  0.00  0.00    +0.000 C 
ENDBRANCH  12  13
ENDBRANCH  11  12
ENDBRANCH  10  11
ENDBRANCH   2   5
BRANCH   1  22
ATOM     20  C   UNL     1       0.062   8.916  21.425  0.00  0.00    +0.000 C 
ATOM     21  O   UNL     1      -0.839   8.145  21.758  0.00  0.00    +0.000 OA
ATOM     22  N   UNL     1       1.241   8.455  20.845  0.00  0.00    +0.000 N 
ATOM     23  H   UNL     1       2.062   9.034  20.695  0.00  0.00    +0.000 HD
BRANCH  20  28
ATOM     24  C   UNL     1      -0.446  14.667  22.258  0.00  0.00    +0.000 C 
ATOM     25  C   UNL     1      -0.274  13.183  22.087  0.00  0.00    +0.000 A 
ATOM     26  C   UNL     1       0.633  12.660  21.158  0.00  0.00    +0.000 A 
ATOM     27  C   UNL     1       0.743  11.275  20.976  0.00  0.00    +0.000 A 
ATOM     28  C   UNL     1      -0.061  10.386  21.708  0.00  0.00    +0.000 A 
ATOM     29  C   UNL     1      -0.943  10.907  22.664  0.00  0.00    +0.000 A 
ATOM     30  C   UNL     1      -1.045  12.294  22.849  0.00  0.00    +0.000 A 
ENDBRANCH  20  28
ENDBRANCH   1  22
TORSDOF 6
ENDMDL
MODEL 4
REMARK VINA RESULT:      -8.7      0.862      1.251
REMARK  Name = 
REMARK  9 active torsions:
REMARK  status: ('A' for Active; 'I' for Inactive)
REMARK    1  A    between atoms: C_1  and  C_2
REMARK    2  A    between atoms: C_5  and  C_6
REMARK    3  A    between atoms: N_8  and  N_9
REMARK    4  A    between atoms: C_10  and  C_12
REMARK    5  A    between atoms: C_17  and  O_18
REMARK    6  A    between atoms: O_18  and  C_19
REMARK    7  A    between atoms: C_19  and  C_20
REMARK    8  A    between atoms: C_21  and  C_22
REMARK    9  A    between atoms: C_25  and  C_26
REMARK                            x       y       z     vdW  Elec       q    Type
REMARK                         _______ _______ _______ _____ _____    ______ ____
ROOT
ATOM      1  N   UNL     1       1.762   7.465  21.190  0.00  0.00    +0.000 N 
ATOM      2  C   UNL     1       2.033   6.848  19.971  0.00  0.00    +0.000 C 
ATOM      3  O   UNL     1       2.034   7.463  18.909  0.00  0.00    +0.000 OA
ATOM      4  H   UNL     1       1.749   6.976  22.082  0.00  0.00    +0.000 HD
ENDROOT
BRANCH   2   5
ATOM      5  C   UNL     1       2.290   5.362  20.030  0.00  0.00    +0.000 A 
ATOM      6  C   UNL     1       1.243   4.509  20.442  0.00  0.00    +0.000 A 
ATOM      7  C   UNL     1       1.404   3.120  20.501  0.00  0.00    +0.000 A 
ATOM      8  C   UNL     1       2.575   2.537  20.047  0.00  0.00    +0.000 A 
ATOM      9  C   UNL     1       3.600   3.349  19.576  0.00  0.00    +0.000 A 
ATOM     10  C   UNL     1       3.514   4.760  19.655  0.00  0.00    +0.000 A 
BRANCH  10  11
ATOM     11  O   UNL     1       4.642   5.532  19.451  0.00  0.00    +0.000 OA
BRANCH  11  12
ATOM     12  C   UNL     1       4.921   5.748  18.051  0.00  0.00    +0.000 C 
BRANCH  12  13
ATOM     13  C   UNL     1       6.133   5.084  17.525  0.00  0.00    +0.000 A 
ATOM     14  C   UNL     1       7.396   5.027  18.176  0.00  0.00    +0.000 A 
ATOM     15  C   UNL     1       7.807   5.625  19.471  0.00  0.00    +0.000 C 
ATOM     16  N   UNL     1       8.295   4.381  17.429  0.00  0.00    +0.000 NA
ATOM     17  O   UNL     1       7.645   4.050  16.252  0.00  0.00    +0.000 OA
ATOM     18  C   UNL     1       6.365   4.504  16.303  0.00  0.00    +0.000 A 
ATOM     19  C   UNL     1       5.547   4.344  15.088  0.00  0.00    +0.000 C 
ENDBRANCH  12  13
ENDBRANCH  11  12
ENDBRANCH  10  11
ENDBRANCH   2   5
BRANCH   1  22
ATOM     20  C   UNL     1      -0.015   9.034  21.580  0.00  0.00    +0.000 C 
ATOM     21  O   UNL     1      -0.821   8.107  21.680  0.00  0.00    +0.000 OA
ATOM     22  N   UNL     1       1.319   8.811  21.247  0.00  0.00    +0.000 N 
ATOM     23  H   UNL     1       2.042   9.521  21.302  0.00  0.00    +0.000 HD
BRANCH  20  28
ATOM     24  C   UNL     1      -1.556  14.468  23.035  0.00  0.00    +0.000 C 
ATOM     25  C   UNL     1      -1.210  13.062  22.630  0.00  0.00    +0.000 A 
ATOM     26  C   UNL     1      -1.523  11.973  23.452  0.00  0.00    +0.000 A 
ATOM     27  C   UNL     1      -1.148  10.674  23.082  0.00  0.00    +0.000 A 
ATOM     28  C   UNL     1      -0.441  10.440  21.891  0.00  0.00    +0.000 A 
ATOM     29  C   UNL     1      -0.160  11.525  21.050  0.00  0.00    +0.000 A 
ATOM     30  C   UNL     1      -0.543  12.824  21.421  0.00  0.00    +0.000 A 
ENDBRANCH  20  28
ENDBRANCH   1  22
TORSDOF 6
ENDMDL
MODEL 5
REMARK VINA RESULT:      -8.7      1.453      1.939
REMARK  Name = 
REMARK  9 active torsions:
REMARK  status: ('A' for Active; 'I' for Inactive)
REMARK    1  A    between atoms: C_1  and  C_2
REMARK    2  A    between atoms: C_5  and  C_6
REMARK    3  A    between atoms: N_8  and  N_9
REMARK    4  A    between atoms: C_10  and  C_12
REMARK    5  A    between atoms: C_17  and  O_18
REMARK    6  A    between atoms: O_18  and  C_19
REMARK    7  A    between atoms: C_19  and  C_20
REMARK    8  A    between atoms: C_21  and  C_22
REMARK    9  A    between atoms: C_25  and  C_26
REMARK                            x       y       z     vdW  Elec       q    Type
REMARK                         _______ _______ _______ _____ _____    ______ ____
ROOT
ATOM      1  N   UNL     1       2.293   6.185  20.374  0.00  0.00    +0.000 N 
ATOM      2  C   UNL     1       1.568   5.016  20.149  0.00  0.00    +0.000 C 
ATOM      3  O   UNL     1       0.397   4.893  20.497  0.00  0.00    +0.000 OA
ATOM      4  H   UNL     1       3.265   6.309  20.101  0.00  0.00    +0.000 HD
ENDROOT
BRANCH   2   5
ATOM      5  C   UNL     1       2.323   3.893  19.481  0.00  0.00    +0.000 A 
ATOM      6  C   UNL     1       1.879   2.567  19.677  0.00  0.00    +0.000 A 
ATOM      7  C   UNL     1       2.519   1.480  19.073  0.00  0.00    +0.000 A 
ATOM      8  C   UNL     1       3.548   1.692  18.171  0.00  0.00    +0.000 A 
ATOM      9  C   UNL     1       3.964   2.992  17.910  0.00  0.00    +0.000 A 
ATOM     10  C   UNL     1       3.435   4.091  18.628  0.00  0.00    +0.000 A 
BRANCH  10  11
ATOM     11  O   UNL     1       4.055   5.324  18.560  0.00  0.00    +0.000 OA
BRANCH  11  12
ATOM     12  C   UNL     1       4.538   5.630  17.234  0.00  0.00    +0.000 C 
BRANCH  12  13
ATOM     13  C   UNL     1       5.872   5.091  16.893  0.00  0.00    +0.000 A 
ATOM     14  C   UNL     1       7.013   5.103  17.740  0.00  0.00    +0.000 A 
ATOM     15  C   UNL     1       7.156   5.669  19.105  0.00  0.00    +0.000 C 
ATOM     16  N   UNL     1       8.073   4.567  17.131  0.00  0.00    +0.000 NA
ATOM     17  O   UNL     1       7.653   4.242  15.852  0.00  0.00    +0.000 OA
ATOM     18  C   UNL     1       6.347   4.590  15.706  0.00  0.00    +0.000 A 
ATOM     19  C   UNL     1       5.753   4.424  14.368  0.00  0.00    +0.000 C 
ENDBRANCH  12  13
ENDBRANCH  11  12
ENDBRANCH  10  11
ENDBRANCH   2   5
BRANCH   1  22
ATOM     20  C   UNL     1       1.401   8.411  20.502  0.00  0.00    +0.000 C 
ATOM     21  O   UNL     1       1.664   8.593  19.313  0.00  0.00    +0.000 OA
ATOM     22  N   UNL     1       1.760   7.237  21.160  0.00  0.00    +0.000 N 
ATOM     23  H   UNL     1       1.434   6.985  22.088  0.00  0.00    +0.000 HD
BRANCH  20  28
ATOM     24  C   UNL     1      -1.835  12.419  23.239  0.00  0.00    +0.000 C 
ATOM     25  C   UNL     1      -0.953  11.407  22.562  0.00  0.00    +0.000 A 
ATOM     26  C   UNL     1      -0.390  11.662  21.306  0.00  0.00    +0.000 A 
ATOM     27  C   UNL     1       0.388  10.687  20.666  0.00  0.00    +0.000 A 
ATOM     28  C   UNL     1       0.608   9.435  21.264  0.00  0.00    +0.000 A 
ATOM     29  C   UNL     1       0.076   9.193  22.537  0.00  0.00    +0.000 A 
ATOM     30  C   UNL     1      -0.698  10.174  23.177  0.00  0.00    +0.000 A 
ENDBRANCH  20  28
ENDBRANCH   1  22
TORSDOF 6
ENDMDL
MODEL 6
REMARK VINA RESULT:      -8.7      1.555      2.224
REMARK  Name = 
REMARK  9 active torsions:
REMARK  status: ('A' for Active; 'I' for Inactive)
REMARK    1  A    between atoms: C_1  and  C_2
REMARK    2  A    between atoms: C_5  and  C_6
REMARK    3  A    between atoms: N_8  and  N_9
REMARK    4  A    between atoms: C_10  and  C_12
REMARK    5  A    between atoms: C_17  and  O_18
REMARK    6  A    between atoms: O_18  and  C_19
REMARK    7  A    between atoms: C_19  and  C_20
REMARK    8  A    between atoms: C_21  and  C_22
REMARK    9  A    between atoms: C_25  and  C_26
REMARK                            x       y       z     vdW  Elec       q    Type
REMARK                         _______ _______ _______ _____ _____    ______ ____
ROOT
ATOM      1  N   UNL     1       2.560   6.310  20.338  0.00  0.00    +0.000 N 
ATOM      2  C   UNL     1       1.929   5.081  20.152  0.00  0.00    +0.000 C 
ATOM      3  O   UNL     1       0.759   4.890  20.470  0.00  0.00    +0.000 OA
ATOM      4  H   UNL     1       3.529   6.491  20.088  0.00  0.00    +0.000 HD
ENDROOT
BRANCH   2   5
ATOM      5  C   UNL     1       2.785   3.984  19.569  0.00  0.00    +0.000 A 
ATOM      6  C   UNL     1       3.086   2.860  20.370  0.00  0.00    +0.000 A 
ATOM      7  C   UNL     1       3.857   1.797  19.887  0.00  0.00    +0.000 A 
ATOM      8  C   UNL     1       4.257   1.775  18.562  0.00  0.00    +0.000 A 
ATOM      9  C   UNL     1       3.921   2.839  17.733  0.00  0.00    +0.000 A 
ATOM     10  C   UNL     1       3.278   3.992  18.242  0.00  0.00    +0.000 A 
BRANCH  10  11
ATOM     11  O   UNL     1       3.211   5.141  17.477  0.00  0.00    +0.000 OA
BRANCH  11  12
ATOM     12  C   UNL     1       4.384   5.972  17.621  0.00  0.00    +0.000 C 
BRANCH  12  13
ATOM     13  C   UNL     1       5.665   5.353  17.219  0.00  0.00    +0.000 A 
ATOM     14  C   UNL     1       6.786   5.140  18.068  0.00  0.00    +0.000 A 
ATOM     15  C   UNL     1       6.957   5.503  19.497  0.00  0.00    +0.000 C 
ATOM     16  N   UNL     1       7.801   4.587  17.399  0.00  0.00    +0.000 NA
ATOM     17  O   UNL     1       7.376   4.478  16.085  0.00  0.00    +0.000 OA
ATOM     18  C   UNL     1       6.113   4.969  15.979  0.00  0.00    +0.000 A 
ATOM     19  C   UNL     1       5.531   5.041  14.628  0.00  0.00    +0.000 C 
ENDBRANCH  12  13
ENDBRANCH  11  12
ENDBRANCH  10  11
ENDBRANCH   2   5
BRANCH   1  22
ATOM     20  C   UNL     1       1.467   8.449  20.313  0.00  0.00    +0.000 C 
ATOM     21  O   UNL     1       1.724   8.574  19.115  0.00  0.00    +0.000 OA
ATOM     22  N   UNL     1       1.925   7.359  21.049  0.00  0.00    +0.000 N 
ATOM     23  H   UNL     1       1.614   7.140  21.991  0.00  0.00    +0.000 HD
BRANCH  20  28
ATOM     24  C   UNL     1      -1.822  12.306  23.198  0.00  0.00    +0.000 C 
ATOM     25  C   UNL     1      -1.025  11.287  22.432  0.00  0.00    +0.000 A 
ATOM     26  C   UNL     1      -0.647  10.073  23.017  0.00  0.00    +0.000 A 
ATOM     27  C   UNL     1       0.141   9.158  22.305  0.00  0.00    +0.000 A 
ATOM     28  C   UNL     1       0.576   9.444  21.001  0.00  0.00    +0.000 A 
ATOM     29  C   UNL     1       0.167  10.642  20.402  0.00  0.00    +0.000 A 
ATOM     30  C   UNL     1      -0.626  11.554  21.115  0.00  0.00    +0.000 A 
ENDBRANCH  20  28
ENDBRANCH   1  22
TORSDOF 6
ENDMDL
MODEL 7
REMARK VINA RESULT:      -8.5      2.267      3.131
REMARK  Name = 
REMARK  9 active torsions:
REMARK  status: ('A' for Active; 'I' for Inactive)
REMARK    1  A    between atoms: C_1  and  C_2
REMARK    2  A    between atoms: C_5  and  C_6
REMARK    3  A    between atoms: N_8  and  N_9
REMARK    4  A    between atoms: C_10  and  C_12
REMARK    5  A    between atoms: C_17  and  O_18
REMARK    6  A    between atoms: O_18  and  C_19
REMARK    7  A    between atoms: C_19  and  C_20
REMARK    8  A    between atoms: C_21  and  C_22
REMARK    9  A    between atoms: C_25  and  C_26
REMARK                            x       y       z     vdW  Elec       q    Type
REMARK                         _______ _______ _______ _____ _____    ______ ____
ROOT
ATOM      1  N   UNL     1       1.897   7.793  18.484  0.00  0.00    +0.000 N 
ATOM      2  C   UNL     1       2.962   7.014  18.039  0.00  0.00    +0.000 C 
ATOM      3  O   UNL     1       3.933   7.496  17.464  0.00  0.00    +0.000 OA
ATOM      4  H   UNL     1       1.079   7.417  18.958  0.00  0.00    +0.000 HD
ENDROOT
BRANCH   2   5
ATOM      5  C   UNL     1       2.832   5.529  18.274  0.00  0.00    +0.000 A 
ATOM      6  C   UNL     1       1.652   4.876  17.855  0.00  0.00    +0.000 A 
ATOM      7  C   UNL     1       1.473   3.499  18.023  0.00  0.00    +0.000 A 
ATOM      8  C   UNL     1       2.507   2.718  18.511  0.00  0.00    +0.000 A 
ATOM      9  C   UNL     1       3.703   3.325  18.873  0.00  0.00    +0.000 A 
ATOM     10  C   UNL     1       3.847   4.733  18.857  0.00  0.00    +0.000 A 
BRANCH  10  11
ATOM     11  O   UNL     1       4.929   5.324  19.483  0.00  0.00    +0.000 OA
BRANCH  11  12
ATOM     12  C   UNL     1       6.193   4.825  18.994  0.00  0.00    +0.000 C 
BRANCH  12  13
ATOM     13  C   UNL     1       6.726   5.492  17.787  0.00  0.00    +0.000 A 
ATOM     14  C   UNL     1       6.571   5.033  16.449  0.00  0.00    +0.000 A 
ATOM     15  C   UNL     1       5.897   3.806  15.955  0.00  0.00    +0.000 C 
ATOM     16  N   UNL     1       7.193   5.841  15.587  0.00  0.00    +0.000 NA
ATOM     17  O   UNL     1       7.810   6.814  16.354  0.00  0.00    +0.000 OA
ATOM     18  C   UNL     1       7.555   6.579  17.669  0.00  0.00    +0.000 A 
ATOM     19  C   UNL     1       8.226   7.450  18.650  0.00  0.00    +0.000 C 
ENDBRANCH  12  13
ENDBRANCH  11  12
ENDBRANCH  10  11
ENDBRANCH   2   5
BRANCH   1  22
ATOM     20  C   UNL     1       1.237  10.020  19.099  0.00  0.00    +0.000 C 
ATOM     21  O   UNL     1       0.696   9.587  20.117  0.00  0.00    +0.000 OA
ATOM     22  N   UNL     1       1.809   9.170  18.155  0.00  0.00    +0.000 N 
ATOM     23  H   UNL     1       2.391   9.487  17.386  0.00  0.00    +0.000 HD
BRANCH  20  28
ATOM     24  C   UNL     1       1.665  15.809  18.526  0.00  0.00    +0.000 C 
ATOM     25  C   UNL     1       1.530  14.314  18.619  0.00  0.00    +0.000 A 
ATOM     26  C   UNL     1       0.407  13.724  19.210  0.00  0.00    +0.000 A 
ATOM     27  C   UNL     1       0.321  12.331  19.335  0.00  0.00    +0.000 A 
ATOM     28  C   UNL     1       1.361  11.502  18.883  0.00  0.00    +0.000 A 
ATOM     29  C   UNL     1       2.468  12.090  18.258  0.00  0.00    +0.000 A 
ATOM     30  C   UNL     1       2.548  13.485  18.129  0.00  0.00    +0.000 A 
ENDBRANCH  20  28
ENDBRANCH   1  22
TORSDOF 6
ENDMDL
MODEL 8
REMARK VINA RESULT:      -8.5      2.253      4.759
REMARK  Name = 
REMARK  9 active torsions:
REMARK  status: ('A' for Active; 'I' for Inactive)
REMARK    1  A    between atoms: C_1  and  C_2
REMARK    2  A    between atoms: C_5  and  C_6
REMARK    3  A    between atoms: N_8  and  N_9
REMARK    4  A    between atoms: C_10  and  C_12
REMARK    5  A    between atoms: C_17  and  O_18
REMARK    6  A    between atoms: O_18  and  C_19
REMARK    7  A    between atoms: C_19  and  C_20
REMARK    8  A    between atoms: C_21  and  C_22
REMARK    9  A    between atoms: C_25  and  C_26
REMARK                            x       y       z     vdW  Elec       q    Type
REMARK                         _______ _______ _______ _____ _____    ______ ____
ROOT
ATOM      1  N   UNL     1       3.137   6.466  18.309  0.00  0.00    +0.000 N 
ATOM      2  C   UNL     1       4.298   5.733  18.552  0.00  0.00    +0.000 C 
ATOM      3  O   UNL     1       4.756   5.585  19.681  0.00  0.00    +0.000 OA
ATOM      4  H   UNL     1       2.741   6.608  17.383  0.00  0.00    +0.000 HD
ENDROOT
BRANCH   2   5
ATOM      5  C   UNL     1       4.981   5.163  17.334  0.00  0.00    +0.000 A 
ATOM      6  C   UNL     1       6.123   5.820  16.826  0.00  0.00    +0.000 A 
ATOM      7  C   UNL     1       6.817   5.335  15.712  0.00  0.00    +0.000 A 
ATOM      8  C   UNL     1       6.459   4.125  15.143  0.00  0.00    +0.000 A 
ATOM      9  C   UNL     1       5.377   3.424  15.662  0.00  0.00    +0.000 A 
ATOM     10  C   UNL     1       4.569   3.974  16.685  0.00  0.00    +0.000 A 
BRANCH  10  11
ATOM     11  O   UNL     1       3.348   3.399  16.985  0.00  0.00    +0.000 OA
BRANCH  11  12
ATOM     12  C   UNL     1       3.470   2.274  17.881  0.00  0.00    +0.000 C 
BRANCH  12  13
ATOM     13  C   UNL     1       2.928   2.472  19.243  0.00  0.00    +0.000 A 
ATOM     14  C   UNL     1       3.656   2.324  20.456  0.00  0.00    +0.000 A 
ATOM     15  C   UNL     1       5.069   1.915  20.652  0.00  0.00    +0.000 C 
ATOM     16  N   UNL     1       2.876   2.543  21.517  0.00  0.00    +0.000 NA
ATOM     17  O   UNL     1       1.609   2.788  21.014  0.00  0.00    +0.000 OA
ATOM     18  C   UNL     1       1.641   2.709  19.658  0.00  0.00    +0.000 A 
ATOM     19  C   UNL     1       0.356   2.829  18.947  0.00  0.00    +0.000 C 
ENDBRANCH  12  13
ENDBRANCH  11  12
ENDBRANCH  10  11
ENDBRANCH   2   5
BRANCH   1  22
ATOM     20  C   UNL     1       1.912   8.417  18.990  0.00  0.00    +0.000 C 
ATOM     21  O   UNL     1       2.038   8.898  17.863  0.00  0.00    +0.000 OA
ATOM     22  N   UNL     1       2.512   7.210  19.341  0.00  0.00    +0.000 N 
ATOM     23  H   UNL     1       2.312   6.707  20.201  0.00  0.00    +0.000 HD
BRANCH  20  28
ATOM     24  C   UNL     1      -1.286  11.048  23.098  0.00  0.00    +0.000 C 
ATOM     25  C   UNL     1      -0.510  10.337  22.024  0.00  0.00    +0.000 A 
ATOM     26  C   UNL     1       0.230   9.183  22.306  0.00  0.00    +0.000 A 
ATOM     27  C   UNL     1       0.989   8.564  21.305  0.00  0.00    +0.000 A 
ATOM     28  C   UNL     1       1.033   9.092  20.004  0.00  0.00    +0.000 A 
ATOM     29  C   UNL     1       0.264  10.226  19.711  0.00  0.00    +0.000 A 
ATOM     30  C   UNL     1      -0.500  10.840  20.715  0.00  0.00    +0.000 A 
ENDBRANCH  20  28
ENDBRANCH   1  22
TORSDOF 6
ENDMDL
MODEL 9
REMARK VINA RESULT:      -8.5      2.275      3.236
REMARK  Name = 
REMARK  9 active torsions:
REMARK  status: ('A' for Active; 'I' for Inactive)
REMARK    1  A    between atoms: C_1  and  C_2
REMARK    2  A    between atoms: C_5  and  C_6
REMARK    3  A    between atoms: N_8  and  N_9
REMARK    4  A    between atoms: C_10  and  C_12
REMARK    5  A    between atoms: C_17  and  O_18
REMARK    6  A    between atoms: O_18  and  C_19
REMARK    7  A    between atoms: C_19  and  C_20
REMARK    8  A    between atoms: C_21  and  C_22
REMARK    9  A    between atoms: C_25  and  C_26
REMARK                            x       y       z     vdW  Elec       q    Type
REMARK                         _______ _______ _______ _____ _____    ______ ____
ROOT
ATOM      1  N   UNL     1       2.199   7.293  18.330  0.00  0.00    +0.000 N 
ATOM      2  C   UNL     1       2.176   6.393  19.393  0.00  0.00    +0.000 C 
ATOM      3  O   UNL     1       2.272   6.755  20.562  0.00  0.00    +0.000 OA
ATOM      4  H   UNL     1       2.127   7.017  17.353  0.00  0.00    +0.000 HD
ENDROOT
BRANCH   2   5
ATOM      5  C   UNL     1       2.063   4.935  19.018  0.00  0.00    +0.000 A 
ATOM      6  C   UNL     1       1.241   4.095  19.800  0.00  0.00    +0.000 A 
ATOM      7  C   UNL     1       1.074   2.740  19.498  0.00  0.00    +0.000 A 
ATOM      8  C   UNL     1       1.634   2.210  18.347  0.00  0.00    +0.000 A 
ATOM      9  C   UNL     1       2.396   3.030  17.524  0.00  0.00    +0.000 A 
ATOM     10  C   UNL     1       2.704   4.361  17.895  0.00  0.00    +0.000 A 
BRANCH  10  11
ATOM     11  O   UNL     1       3.686   5.057  17.215  0.00  0.00    +0.000 OA
BRANCH  11  12
ATOM     12  C   UNL     1       4.807   4.223  16.852  0.00  0.00    +0.000 C 
BRANCH  12  13
ATOM     13  C   UNL     1       5.936   4.913  16.190  0.00  0.00    +0.000 A 
ATOM     14  C   UNL     1       6.344   4.729  14.841  0.00  0.00    +0.000 A 
ATOM     15  C   UNL     1       5.787   3.812  13.814  0.00  0.00    +0.000 C 
ATOM     16  N   UNL     1       7.413   5.474  14.553  0.00  0.00    +0.000 NA
ATOM     17  O   UNL     1       7.754   6.120  15.730  0.00  0.00    +0.000 OA
ATOM     18  C   UNL     1       6.888   5.753  16.711  0.00  0.00    +0.000 A 
ATOM     19  C   UNL     1       7.161   6.253  18.070  0.00  0.00    +0.000 C 
ENDBRANCH  12  13
ENDBRANCH  11  12
ENDBRANCH  10  11
ENDBRANCH   2   5
BRANCH   1  22
ATOM     20  C   UNL     1       1.520   9.591  18.168  0.00  0.00    +0.000 C 
ATOM     21  O   UNL     1       0.506   9.256  17.555  0.00  0.00    +0.000 OA
ATOM     22  N   UNL     1       2.492   8.664  18.537  0.00  0.00    +0.000 N 
ATOM     23  H   UNL     1       3.260   8.870  19.169  0.00  0.00    +0.000 HD
BRANCH  20  28
ATOM     24  C   UNL     1       2.311  15.035  20.108  0.00  0.00    +0.000 C 
ATOM     25  C   UNL     1       2.058  13.650  19.580  0.00  0.00    +0.000 A 
ATOM     26  C   UNL     1       1.331  12.713  20.323  0.00  0.00    +0.000 A 
ATOM     27  C   UNL     1       1.149  11.411  19.837  0.00  0.00    +0.000 A 
ATOM     28  C   UNL     1       1.700  11.017  18.607  0.00  0.00    +0.000 A 
ATOM     29  C   UNL     1       2.395  11.966  17.845  0.00  0.00    +0.000 A 
ATOM     30  C   UNL     1       2.570  13.271  18.332  0.00  0.00    +0.000 A 
ENDBRANCH  20  28
ENDBRANCH   1  22
TORSDOF 6
ENDMDL
