MODEL 1
REMARK VINA RESULT:      -8.6      0.000      0.000
REMARK  Name = 
REMARK  5 active torsions:
REMARK  status: ('A' for Active; 'I' for Inactive)
REMARK    1  A    between atoms: C_1  and  C_2
REMARK    2  A    between atoms: C_4  and  C_5
REMARK    3  A    between atoms: C_10  and  N_11
REMARK    4  A    between atoms: N_14  and  C_15
REMARK    5  A    between atoms: C_15  and  C_16
REMARK                            x       y       z     vdW  Elec       q    Type
REMARK                         _______ _______ _______ _____ _____    ______ ____
ROOT
ATOM      1  C   UNL     1       6.734   5.181  15.743  0.00  0.00    +0.000 A 
ATOM      2  N   UNL     1       7.525   6.091  16.334  0.00  0.00    +0.000 NA
ATOM      3  N   UNL     1       7.064   6.168  17.596  0.00  0.00    +0.000 N 
ATOM      4  C   UNL     1       6.018   5.327  17.865  0.00  0.00    +0.000 A 
ATOM      5  C   UNL     1       5.257   5.096  19.017  0.00  0.00    +0.000 A 
ATOM      6  C   UNL     1       4.260   4.131  18.878  0.00  0.00    +0.000 A 
ATOM      7  N   UNL     1       4.053   3.438  17.738  0.00  0.00    +0.000 NA
ATOM      8  C   UNL     1       4.803   3.676  16.644  0.00  0.00    +0.000 A 
ATOM      9  C   UNL     1       5.797   4.650  16.675  0.00  0.00    +0.000 A 
ATOM     10  H   UNL     1       7.516   6.820  18.230  0.00  0.00    +0.000 HD
ENDROOT
BRANCH   1  14
ATOM     11  C   UNL     1       5.405   2.477  11.752  0.00  0.00    +0.000 C 
ATOM     12  C   UNL     1       6.229   3.544  12.408  0.00  0.00    +0.000 A 
ATOM     13  C   UNL     1       6.086   3.829  13.762  0.00  0.00    +0.000 A 
ATOM     14  C   UNL     1       6.884   4.823  14.330  0.00  0.00    +0.000 A 
ATOM     15  C   UNL     1       7.817   5.477  13.521  0.00  0.00    +0.000 A 
ATOM     16  C   UNL     1       7.884   5.138  12.182  0.00  0.00    +0.000 A 
ATOM     17  N   UNL     1       7.110   4.194  11.613  0.00  0.00    +0.000 NA
ENDBRANCH   1  14
BRANCH   6  18
ATOM     18  N   UNL     1       3.436   3.855  19.973  0.00  0.00    +0.000 N 
ATOM     19  C   UNL     1       2.592   4.713  20.628  0.00  0.00    +0.000 C 
ATOM     20  O   UNL     1       1.907   4.296  21.559  0.00  0.00    +0.000 OA
ATOM     21  N   UNL     1       2.595   6.008  20.227  0.00  0.00    +0.000 N 
ATOM     22  H   UNL     1       3.431   2.922  20.355  0.00  0.00    +0.000 HD
ATOM     23  H   UNL     1       3.018   6.176  19.316  0.00  0.00    +0.000 HD
BRANCH  21  24
ATOM     24  C   UNL     1       1.671   6.995  20.722  0.00  0.00    +0.000 C 
BRANCH  24  25
ATOM     25  C   UNL     1       1.591   8.138  19.754  0.00  0.00    +0.000 A 
ATOM     26  C   UNL     1       2.178   8.152  18.444  0.00  0.00    +0.000 A 
ATOM     27  C   UNL     1       1.999   9.378  17.838  0.00  0.00    +0.000 A 
ATOM     28  S   UNL     1       1.093  10.374  18.890  0.00  0.00    +0.000 S 
ATOM     29  N   UNL     1       0.950   9.258  20.107  0.00  0.00    +0.000 NA
ENDBRANCH  24  25
ENDBRANCH  21  24
ENDBRANCH   6  18
TORSDOF 4
ENDMDL
MODEL 2
REMARK VINA RESULT:      -8.5      2.262      4.138
REMARK  Name = 
REMARK  5 active torsions:
REMARK  status: ('A' for Active; 'I' for Inactive)
REMARK    1  A    between atoms: C_1  and  C_2
REMARK    2  A    between atoms: C_4  and  C_5
REMARK    3  A    between atoms: C_10  and  N_11
REMARK    4  A    between atoms: N_14  and  C_15
REMARK    5  A    between atoms: C_15  and  C_16
REMARK                            x       y       z     vdW  Elec       q    Type
REMARK                         _______ _______ _______ _____ _____    ______ ____
ROOT
ATOM      1  C   UNL     1       4.030   4.118  18.278  0.00  0.00    +0.000 A 
ATOM      2  N   UNL     1       3.493   2.926  18.587  0.00  0.00    +0.000 NA
ATOM      3  N   UNL     1       2.504   3.217  19.452  0.00  0.00    +0.000 N 
ATOM      4  C   UNL     1       2.354   4.554  19.706  0.00  0.00    +0.000 A 
ATOM      5  C   UNL     1       1.475   5.271  20.524  0.00  0.00    +0.000 A 
ATOM      6  C   UNL     1       1.647   6.655  20.500  0.00  0.00    +0.000 A 
ATOM      7  N   UNL     1       2.564   7.274  19.725  0.00  0.00    +0.000 NA
ATOM      8  C   UNL     1       3.395   6.559  18.941  0.00  0.00    +0.000 A 
ATOM      9  C   UNL     1       3.324   5.169  18.929  0.00  0.00    +0.000 A 
ATOM     10  H   UNL     1       1.963   2.447  19.834  0.00  0.00    +0.000 HD
ENDROOT
BRANCH   1  14
ATOM     11  C   UNL     1       6.026   3.937  13.696  0.00  0.00    +0.000 C 
ATOM     12  C   UNL     1       6.129   4.180  15.171  0.00  0.00    +0.000 A 
ATOM     13  C   UNL     1       5.027   4.014  16.005  0.00  0.00    +0.000 A 
ATOM     14  C   UNL     1       5.176   4.242  17.374  0.00  0.00    +0.000 A 
ATOM     15  C   UNL     1       6.435   4.603  17.859  0.00  0.00    +0.000 A 
ATOM     16  C   UNL     1       7.473   4.757  16.959  0.00  0.00    +0.000 A 
ATOM     17  N   UNL     1       7.344   4.558  15.633  0.00  0.00    +0.000 NA
ENDBRANCH   1  14
BRANCH   6  18
ATOM     18  N   UNL     1       0.827   7.449  21.307  0.00  0.00    +0.000 N 
ATOM     19  C   UNL     1       0.467   8.755  21.111  0.00  0.00    +0.000 C 
ATOM     20  O   UNL     1      -0.295   9.300  21.908  0.00  0.00    +0.000 OA
ATOM     21  N   UNL     1       1.017   9.396  20.051  0.00  0.00    +0.000 N 
ATOM     22  H   UNL     1       0.431   7.046  22.143  0.00  0.00    +0.000 HD
ATOM     23  H   UNL     1       1.436   8.788  19.351  0.00  0.00    +0.000 HD
BRANCH  21  24
ATOM     24  C   UNL     1       0.634  10.721  19.636  0.00  0.00    +0.000 C 
BRANCH  24  25
ATOM     25  C   UNL     1      -0.628  10.649  18.829  0.00  0.00    +0.000 A 
ATOM     26  C   UNL     1      -0.826   9.812  17.680  0.00  0.00    +0.000 A 
ATOM     27  C   UNL     1      -2.062  10.039  17.113  0.00  0.00    +0.000 A 
ATOM     28  S   UNL     1      -2.883  11.203  18.057  0.00  0.00    +0.000 S 
ATOM     29  N   UNL     1      -1.667  11.423  19.161  0.00  0.00    +0.000 NA
ENDBRANCH  24  25
ENDBRANCH  21  24
ENDBRANCH   6  18
TORSDOF 4
ENDMDL
MODEL 3
REMARK VINA RESULT:      -8.5      1.705      2.020
REMARK  Name = 
REMARK  5 active torsions:
REMARK  status: ('A' for Active; 'I' for Inactive)
REMARK    1  A    between atoms: C_1  and  C_2
REMARK    2  A    between atoms: C_4  and  C_5
REMARK    3  A    between atoms: C_10  and  N_11
REMARK    4  A    between atoms: N_14  and  C_15
REMARK    5  A    between atoms: C_15  and  C_16
REMARK                            x       y       z     vdW  Elec       q    Type
REMARK                         _______ _______ _______ _____ _____    ______ ____
ROOT
ATOM      1  C   UNL     1       6.899   4.602  16.146  0.00  0.00    +0.000 A 
ATOM      2  N   UNL     1       7.911   4.243  16.954  0.00  0.00    +0.000 NA
ATOM      3  N   UNL     1       7.459   4.504  18.195  0.00  0.00    +0.000 N 
ATOM      4  C   UNL     1       6.183   4.996  18.237  0.00  0.00    +0.000 A 
ATOM      5  C   UNL     1       5.353   5.394  19.291  0.00  0.00    +0.000 A 
ATOM      6  C   UNL     1       4.091   5.844  18.907  0.00  0.00    +0.000 A 
ATOM      7  N   UNL     1       3.671   5.869  17.623  0.00  0.00    +0.000 NA
ATOM      8  C   UNL     1       4.489   5.476  16.627  0.00  0.00    +0.000 A 
ATOM      9  C   UNL     1       5.783   5.047  16.910  0.00  0.00    +0.000 A 
ATOM     10  H   UNL     1       8.079   4.316  18.977  0.00  0.00    +0.000 HD
ENDROOT
BRANCH   1  14
ATOM     11  C   UNL     1       5.450   2.637  11.783  0.00  0.00    +0.000 C 
ATOM     12  C   UNL     1       6.286   3.583  12.591  0.00  0.00    +0.000 A 
ATOM     13  C   UNL     1       6.191   3.617  13.979  0.00  0.00    +0.000 A 
ATOM     14  C   UNL     1       6.999   4.507  14.688  0.00  0.00    +0.000 A 
ATOM     15  C   UNL     1       7.893   5.313  13.978  0.00  0.00    +0.000 A 
ATOM     16  C   UNL     1       7.913   5.222  12.598  0.00  0.00    +0.000 A 
ATOM     17  N   UNL     1       7.129   4.381  11.896  0.00  0.00    +0.000 NA
ENDBRANCH   1  14
BRANCH   6  18
ATOM     18  N   UNL     1       3.205   6.285  19.895  0.00  0.00    +0.000 N 
ATOM     19  C   UNL     1       2.211   7.220  19.776  0.00  0.00    +0.000 C 
ATOM     20  O   UNL     1       1.494   7.468  20.743  0.00  0.00    +0.000 OA
ATOM     21  N   UNL     1       2.102   7.858  18.585  0.00  0.00    +0.000 N 
ATOM     22  H   UNL     1       3.272   5.888  20.820  0.00  0.00    +0.000 HD
ATOM     23  H   UNL     1       2.587   7.409  17.811  0.00  0.00    +0.000 HD
BRANCH  21  24
ATOM     24  C   UNL     1       1.028   8.762  18.263  0.00  0.00    +0.000 C 
BRANCH  24  25
ATOM     25  C   UNL     1       1.467  10.173  18.520  0.00  0.00    +0.000 A 
ATOM     26  C   UNL     1       1.020  10.991  19.613  0.00  0.00    +0.000 A 
ATOM     27  C   UNL     1       1.543  12.263  19.521  0.00  0.00    +0.000 A 
ATOM     28  S   UNL     1       2.564  12.330  18.152  0.00  0.00    +0.000 S 
ATOM     29  N   UNL     1       2.325  10.760  17.678  0.00  0.00    +0.000 NA
ENDBRANCH  24  25
ENDBRANCH  21  24
ENDBRANCH   6  18
TORSDOF 4
ENDMDL
MODEL 4
REMARK VINA RESULT:      -8.1      3.352      5.494
REMARK  Name = 
REMARK  5 active torsions:
REMARK  status: ('A' for Active; 'I' for Inactive)
REMARK    1  A    between atoms: C_1  and  C_2
REMARK    2  A    between atoms: C_4  and  C_5
REMARK    3  A    between atoms: C_10  and  N_11
REMARK    4  A    between atoms: N_14  and  C_15
REMARK    5  A    between atoms: C_15  and  C_16
REMARK                            x       y       z     vdW  Elec       q    Type
REMARK                         _______ _______ _______ _____ _____    ______ ____
ROOT
ATOM      1  C   UNL     1       4.052   5.928  18.695  0.00  0.00    +0.000 A 
ATOM      2  N   UNL     1       3.713   5.290  19.827  0.00  0.00    +0.000 NA
ATOM      3  N   UNL     1       2.720   6.035  20.349  0.00  0.00    +0.000 N 
ATOM      4  C   UNL     1       2.378   7.123  19.593  0.00  0.00    +0.000 A 
ATOM      5  C   UNL     1       1.428   8.136  19.764  0.00  0.00    +0.000 A 
ATOM      6  C   UNL     1       1.387   9.082  18.741  0.00  0.00    +0.000 A 
ATOM      7  N   UNL     1       2.174   9.022  17.644  0.00  0.00    +0.000 NA
ATOM      8  C   UNL     1       3.078   8.032  17.501  0.00  0.00    +0.000 A 
ATOM      9  C   UNL     1       3.217   7.063  18.491  0.00  0.00    +0.000 A 
ATOM     10  H   UNL     1       2.315   5.738  21.232  0.00  0.00    +0.000 HD
ENDROOT
BRANCH   1  14
ATOM     11  C   UNL     1       5.725   4.306  14.271  0.00  0.00    +0.000 C 
ATOM     12  C   UNL     1       5.944   4.699  15.701  0.00  0.00    +0.000 A 
ATOM     13  C   UNL     1       4.883   5.108  16.503  0.00  0.00    +0.000 A 
ATOM     14  C   UNL     1       5.135   5.453  17.831  0.00  0.00    +0.000 A 
ATOM     15  C   UNL     1       6.442   5.347  18.314  0.00  0.00    +0.000 A 
ATOM     16  C   UNL     1       7.438   4.943  17.444  0.00  0.00    +0.000 A 
ATOM     17  N   UNL     1       7.217   4.623  16.155  0.00  0.00    +0.000 NA
ENDBRANCH   1  14
BRANCH   6  18
ATOM     18  N   UNL     1       0.484  10.145  18.842  0.00  0.00    +0.000 N 
ATOM     19  C   UNL     1       0.724  11.475  18.625  0.00  0.00    +0.000 C 
ATOM     20  O   UNL     1      -0.198  12.282  18.726  0.00  0.00    +0.000 OA
ATOM     21  N   UNL     1       2.001  11.835  18.345  0.00  0.00    +0.000 N 
ATOM     22  H   UNL     1      -0.470   9.948  19.102  0.00  0.00    +0.000 HD
ATOM     23  H   UNL     1       2.612  11.072  18.064  0.00  0.00    +0.000 HD
BRANCH  21  24
ATOM     24  C   UNL     1       2.385  13.169  17.960  0.00  0.00    +0.000 C 
BRANCH  24  25
ATOM     25  C   UNL     1       3.115  13.828  19.092  0.00  0.00    +0.000 A 
ATOM     26  C   UNL     1       4.234  14.716  18.948  0.00  0.00    +0.000 A 
ATOM     27  C   UNL     1       4.732  15.084  20.179  0.00  0.00    +0.000 A 
ATOM     28  S   UNL     1       3.766  14.363  21.390  0.00  0.00    +0.000 S 
ATOM     29  N   UNL     1       2.740  13.578  20.352  0.00  0.00    +0.000 NA
ENDBRANCH  24  25
ENDBRANCH  21  24
ENDBRANCH   6  18
TORSDOF 4
ENDMDL
MODEL 5
REMARK VINA RESULT:      -8.1      2.215      4.151
REMARK  Name = 
REMARK  5 active torsions:
REMARK  status: ('A' for Active; 'I' for Inactive)
REMARK    1  A    between atoms: C_1  and  C_2
REMARK    2  A    between atoms: C_4  and  C_5
REMARK    3  A    between atoms: C_10  and  N_11
REMARK    4  A    between atoms: N_14  and  C_15
REMARK    5  A    between atoms: C_15  and  C_16
REMARK                            x       y       z     vdW  Elec       q    Type
REMARK                         _______ _______ _______ _____ _____    ______ ____
ROOT
ATOM      1  C   UNL     1       4.004   4.189  18.261  0.00  0.00    +0.000 A 
ATOM      2  N   UNL     1       3.438   3.013  18.577  0.00  0.00    +0.000 NA
ATOM      3  N   UNL     1       2.462   3.332  19.448  0.00  0.00    +0.000 N 
ATOM      4  C   UNL     1       2.349   4.672  19.698  0.00  0.00    +0.000 A 
ATOM      5  C   UNL     1       1.494   5.415  20.520  0.00  0.00    +0.000 A 
ATOM      6  C   UNL     1       1.702   6.793  20.491  0.00  0.00    +0.000 A 
ATOM      7  N   UNL     1       2.630   7.387  19.709  0.00  0.00    +0.000 NA
ATOM      8  C   UNL     1       3.438   6.648  18.922  0.00  0.00    +0.000 A 
ATOM      9  C   UNL     1       3.330   5.260  18.914  0.00  0.00    +0.000 A 
ATOM     10  H   UNL     1       1.903   2.577  19.835  0.00  0.00    +0.000 HD
ENDROOT
BRANCH   1  14
ATOM     11  C   UNL     1       5.981   3.870  13.680  0.00  0.00    +0.000 C 
ATOM     12  C   UNL     1       6.092   4.153  15.147  0.00  0.00    +0.000 A 
ATOM     13  C   UNL     1       4.992   4.017  15.989  0.00  0.00    +0.000 A 
ATOM     14  C   UNL     1       5.148   4.281  17.350  0.00  0.00    +0.000 A 
ATOM     15  C   UNL     1       6.411   4.646  17.822  0.00  0.00    +0.000 A 
ATOM     16  C   UNL     1       7.446   4.768  16.913  0.00  0.00    +0.000 A 
ATOM     17  N   UNL     1       7.311   4.534  15.594  0.00  0.00    +0.000 NA
ENDBRANCH   1  14
BRANCH   6  18
ATOM     18  N   UNL     1       0.908   7.610  21.301  0.00  0.00    +0.000 N 
ATOM     19  C   UNL     1       0.352   8.822  20.985  0.00  0.00    +0.000 C 
ATOM     20  O   UNL     1      -0.353   9.399  21.810  0.00  0.00    +0.000 OA
ATOM     21  N   UNL     1       0.655   9.342  19.770  0.00  0.00    +0.000 N 
ATOM     22  H   UNL     1       0.694   7.305  22.238  0.00  0.00    +0.000 HD
ATOM     23  H   UNL     1       1.046   8.680  19.103  0.00  0.00    +0.000 HD
BRANCH  21  24
ATOM     24  C   UNL     1       0.043  10.534  19.241  0.00  0.00    +0.000 C 
BRANCH  24  25
ATOM     25  C   UNL     1       0.955  11.704  19.457  0.00  0.00    +0.000 A 
ATOM     26  C   UNL     1       1.913  12.191  18.504  0.00  0.00    +0.000 A 
ATOM     27  C   UNL     1       2.654  13.225  19.036  0.00  0.00    +0.000 A 
ATOM     28  S   UNL     1       2.085  13.540  20.616  0.00  0.00    +0.000 S 
ATOM     29  N   UNL     1       0.922  12.360  20.622  0.00  0.00    +0.000 NA
ENDBRANCH  24  25
ENDBRANCH  21  24
ENDBRANCH   6  18
TORSDOF 4
ENDMDL
MODEL 6
REMARK VINA RESULT:      -7.9      2.273      3.583
REMARK  Name = 
REMARK  5 active torsions:
REMARK  status: ('A' for Active; 'I' for Inactive)
REMARK    1  A    between atoms: C_1  and  C_2
REMARK    2  A    between atoms: C_4  and  C_5
REMARK    3  A    between atoms: C_10  and  N_11
REMARK    4  A    between atoms: N_14  and  C_15
REMARK    5  A    between atoms: C_15  and  C_16
REMARK                            x       y       z     vdW  Elec       q    Type
REMARK                         _______ _______ _______ _____ _____    ______ ____
ROOT
ATOM      1  C   UNL     1       4.388   4.249  17.138  0.00  0.00    +0.000 A 
ATOM      2  N   UNL     1       3.959   3.063  17.599  0.00  0.00    +0.000 NA
ATOM      3  N   UNL     1       3.160   3.375  18.637  0.00  0.00    +0.000 N 
ATOM      4  C   UNL     1       3.028   4.719  18.860  0.00  0.00    +0.000 A 
ATOM      5  C   UNL     1       2.315   5.457  19.812  0.00  0.00    +0.000 A 
ATOM      6  C   UNL     1       2.441   6.841  19.696  0.00  0.00    +0.000 A 
ATOM      7  N   UNL     1       3.162   7.441  18.725  0.00  0.00    +0.000 NA
ATOM      8  C   UNL     1       3.836   6.706  17.817  0.00  0.00    +0.000 A 
ATOM      9  C   UNL     1       3.802   5.316  17.877  0.00  0.00    +0.000 A 
ATOM     10  H   UNL     1       2.729   2.613  19.152  0.00  0.00    +0.000 HD
ENDROOT
BRANCH   1  14
ATOM     11  C   UNL     1       5.585   3.409  12.356  0.00  0.00    +0.000 C 
ATOM     12  C   UNL     1       5.885   3.973  13.711  0.00  0.00    +0.000 A 
ATOM     13  C   UNL     1       4.991   3.820  14.767  0.00  0.00    +0.000 A 
ATOM     14  C   UNL     1       5.321   4.353  16.013  0.00  0.00    +0.000 A 
ATOM     15  C   UNL     1       6.552   4.997  16.162  0.00  0.00    +0.000 A 
ATOM     16  C   UNL     1       7.376   5.114  15.057  0.00  0.00    +0.000 A 
ATOM     17  N   UNL     1       7.066   4.621  13.842  0.00  0.00    +0.000 NA
ENDBRANCH   1  14
BRANCH   6  18
ATOM     18  N   UNL     1       1.782   7.656  20.622  0.00  0.00    +0.000 N 
ATOM     19  C   UNL     1       1.036   8.777  20.372  0.00  0.00    +0.000 C 
ATOM     20  O   UNL     1       0.492   9.363  21.306  0.00  0.00    +0.000 OA
ATOM     21  N   UNL     1       0.975   9.206  19.088  0.00  0.00    +0.000 N 
ATOM     22  H   UNL     1       1.836   7.421  21.601  0.00  0.00    +0.000 HD
ATOM     23  H   UNL     1       1.264   8.522  18.391  0.00  0.00    +0.000 HD
BRANCH  21  24
ATOM     24  C   UNL     1       0.126  10.283  18.649  0.00  0.00    +0.000 C 
BRANCH  24  25
ATOM     25  C   UNL     1       0.881  11.577  18.716  0.00  0.00    +0.000 A 
ATOM     26  C   UNL     1       0.362  12.811  19.233  0.00  0.00    +0.000 A 
ATOM     27  C   UNL     1       1.274  13.833  19.077  0.00  0.00    +0.000 A 
ATOM     28  S   UNL     1       2.689  13.190  18.368  0.00  0.00    +0.000 S 
ATOM     29  N   UNL     1       2.134  11.633  18.248  0.00  0.00    +0.000 NA
ENDBRANCH  24  25
ENDBRANCH  21  24
ENDBRANCH   6  18
TORSDOF 4
ENDMDL
MODEL 7
REMARK VINA RESULT:      -7.9      3.650      6.389
REMARK  Name = 
REMARK  5 active torsions:
REMARK  status: ('A' for Active; 'I' for Inactive)
REMARK    1  A    between atoms: C_1  and  C_2
REMARK    2  A    between atoms: C_4  and  C_5
REMARK    3  A    between atoms: C_10  and  N_11
REMARK    4  A    between atoms: N_14  and  C_15
REMARK    5  A    between atoms: C_15  and  C_16
REMARK                            x       y       z     vdW  Elec       q    Type
REMARK                         _______ _______ _______ _____ _____    ______ ____
ROOT
ATOM      1  C   UNL     1       2.601   6.326  19.336  0.00  0.00    +0.000 A 
ATOM      2  N   UNL     1       2.299   5.780  20.526  0.00  0.00    +0.000 NA
ATOM      3  N   UNL     1       1.684   6.768  21.203  0.00  0.00    +0.000 N 
ATOM      4  C   UNL     1       1.548   7.933  20.498  0.00  0.00    +0.000 A 
ATOM      5  C   UNL     1       0.989   9.176  20.817  0.00  0.00    +0.000 A 
ATOM      6  C   UNL     1       1.045  10.124  19.796  0.00  0.00    +0.000 A 
ATOM      7  N   UNL     1       1.565   9.870  18.576  0.00  0.00    +0.000 NA
ATOM      8  C   UNL     1       2.093   8.662  18.293  0.00  0.00    +0.000 A 
ATOM      9  C   UNL     1       2.117   7.664  19.262  0.00  0.00    +0.000 A 
ATOM     10  H   UNL     1       1.377   6.576  22.152  0.00  0.00    +0.000 HD
ENDROOT
BRANCH   1  14
ATOM     11  C   UNL     1       6.499   5.772  16.255  0.00  0.00    +0.000 C 
ATOM     12  C   UNL     1       5.202   5.301  16.839  0.00  0.00    +0.000 A 
ATOM     13  C   UNL     1       4.529   6.056  17.794  0.00  0.00    +0.000 A 
ATOM     14  C   UNL     1       3.318   5.580  18.300  0.00  0.00    +0.000 A 
ATOM     15  C   UNL     1       2.814   4.374  17.807  0.00  0.00    +0.000 A 
ATOM     16  C   UNL     1       3.554   3.683  16.866  0.00  0.00    +0.000 A 
ATOM     17  N   UNL     1       4.732   4.118  16.379  0.00  0.00    +0.000 NA
ENDBRANCH   1  14
BRANCH   6  18
ATOM     18  N   UNL     1       0.532  11.402  20.037  0.00  0.00    +0.000 N 
ATOM     19  C   UNL     1      -0.670  11.915  19.628  0.00  0.00    +0.000 C 
ATOM     20  O   UNL     1      -0.985  13.057  19.957  0.00  0.00    +0.000 OA
ATOM     21  N   UNL     1      -1.439  11.130  18.833  0.00  0.00    +0.000 N 
ATOM     22  H   UNL     1       1.082  12.053  20.576  0.00  0.00    +0.000 HD
ATOM     23  H   UNL     1      -1.184  10.145  18.825  0.00  0.00    +0.000 HD
BRANCH  21  24
ATOM     24  C   UNL     1      -2.780  11.473  18.436  0.00  0.00    +0.000 C 
BRANCH  24  25
ATOM     25  C   UNL     1      -3.050  10.933  17.063  0.00  0.00    +0.000 A 
ATOM     26  C   UNL     1      -2.279   9.913  16.411  0.00  0.00    +0.000 A 
ATOM     27  C   UNL     1      -2.731   9.700  15.126  0.00  0.00    +0.000 A 
ATOM     28  S   UNL     1      -4.078  10.715  14.852  0.00  0.00    +0.000 S 
ATOM     29  N   UNL     1      -4.068  11.428  16.349  0.00  0.00    +0.000 NA
ENDBRANCH  24  25
ENDBRANCH  21  24
ENDBRANCH   6  18
TORSDOF 4
ENDMDL
MODEL 8
REMARK VINA RESULT:      -7.8      4.737      7.173
REMARK  Name = 
REMARK  5 active torsions:
REMARK  status: ('A' for Active; 'I' for Inactive)
REMARK    1  A    between atoms: C_1  and  C_2
REMARK    2  A    between atoms: C_4  and  C_5
REMARK    3  A    between atoms: C_10  and  N_11
REMARK    4  A    between atoms: N_14  and  C_15
REMARK    5  A    between atoms: C_15  and  C_16
REMARK                            x       y       z     vdW  Elec       q    Type
REMARK                         _______ _______ _______ _____ _____    ______ ____
ROOT
ATOM      1  C   UNL     1       2.554   6.924  19.141  0.00  0.00    +0.000 A 
ATOM      2  N   UNL     1       2.860   7.424  17.932  0.00  0.00    +0.000 NA
ATOM      3  N   UNL     1       2.335   8.664  17.938  0.00  0.00    +0.000 N 
ATOM      4  C   UNL     1       1.719   9.008  19.110  0.00  0.00    +0.000 A 
ATOM      5  C   UNL     1       1.057  10.167  19.530  0.00  0.00    +0.000 A 
ATOM      6  C   UNL     1       0.560  10.121  20.832  0.00  0.00    +0.000 A 
ATOM      7  N   UNL     1       0.726   9.060  21.652  0.00  0.00    +0.000 NA
ATOM      8  C   UNL     1       1.373   7.957  21.224  0.00  0.00    +0.000 A 
ATOM      9  C   UNL     1       1.869   7.895  19.925  0.00  0.00    +0.000 A 
ATOM     10  H   UNL     1       2.439   9.229  17.100  0.00  0.00    +0.000 HD
ENDROOT
BRANCH   1  14
ATOM     11  C   UNL     1       1.596   2.671  21.589  0.00  0.00    +0.000 C 
ATOM     12  C   UNL     1       2.449   3.510  20.687  0.00  0.00    +0.000 A 
ATOM     13  C   UNL     1       2.087   4.816  20.368  0.00  0.00    +0.000 A 
ATOM     14  C   UNL     1       2.921   5.561  19.533  0.00  0.00    +0.000 A 
ATOM     15  C   UNL     1       4.102   4.976  19.070  0.00  0.00    +0.000 A 
ATOM     16  C   UNL     1       4.378   3.669  19.427  0.00  0.00    +0.000 A 
ATOM     17  N   UNL     1       3.577   2.929  20.218  0.00  0.00    +0.000 NA
ENDBRANCH   1  14
BRANCH   6  18
ATOM     18  N   UNL     1      -0.137  11.228  21.325  0.00  0.00    +0.000 N 
ATOM     19  C   UNL     1      -1.227  11.848  20.773  0.00  0.00    +0.000 C 
ATOM     20  O   UNL     1      -1.745  12.797  21.358  0.00  0.00    +0.000 OA
ATOM     21  N   UNL     1      -1.653  11.393  19.569  0.00  0.00    +0.000 N 
ATOM     22  H   UNL     1       0.166  11.647  22.190  0.00  0.00    +0.000 HD
ATOM     23  H   UNL     1      -1.299  10.476  19.305  0.00  0.00    +0.000 HD
BRANCH  21  24
ATOM     24  C   UNL     1      -2.861  11.849  18.929  0.00  0.00    +0.000 C 
BRANCH  24  25
ATOM     25  C   UNL     1      -3.000  11.186  17.591  0.00  0.00    +0.000 A 
ATOM     26  C   UNL     1      -2.122  10.173  17.076  0.00  0.00    +0.000 A 
ATOM     27  C   UNL     1      -2.470   9.830  15.787  0.00  0.00    +0.000 A 
ATOM     28  S   UNL     1      -3.855  10.727  15.344  0.00  0.00    +0.000 S 
ATOM     29  N   UNL     1      -3.994  11.553  16.774  0.00  0.00    +0.000 NA
ENDBRANCH  24  25
ENDBRANCH  21  24
ENDBRANCH   6  18
TORSDOF 4
ENDMDL
MODEL 9
REMARK VINA RESULT:      -7.8      4.293      6.904
REMARK  Name = 
REMARK  5 active torsions:
REMARK  status: ('A' for Active; 'I' for Inactive)
REMARK    1  A    between atoms: C_1  and  C_2
REMARK    2  A    between atoms: C_4  and  C_5
REMARK    3  A    between atoms: C_10  and  N_11
REMARK    4  A    between atoms: N_14  and  C_15
REMARK    5  A    between atoms: C_15  and  C_16
REMARK                            x       y       z     vdW  Elec       q    Type
REMARK                         _______ _______ _______ _____ _____    ______ ____
ROOT
ATOM      1  C   UNL     1       2.380   6.645  19.762  0.00  0.00    +0.000 A 
ATOM      2  N   UNL     1       1.890   6.602  21.012  0.00  0.00    +0.000 NA
ATOM      3  N   UNL     1       1.336   7.815  21.197  0.00  0.00    +0.000 N 
ATOM      4  C   UNL     1       1.421   8.644  20.111  0.00  0.00    +0.000 A 
ATOM      5  C   UNL     1       0.991   9.955  19.882  0.00  0.00    +0.000 A 
ATOM      6  C   UNL     1       1.271  10.452  18.610  0.00  0.00    +0.000 A 
ATOM      7  N   UNL     1       1.880   9.725  17.647  0.00  0.00    +0.000 NA
ATOM      8  C   UNL     1       2.280   8.461  17.893  0.00  0.00    +0.000 A 
ATOM      9  C   UNL     1       2.078   7.893  19.147  0.00  0.00    +0.000 A 
ATOM     10  H   UNL     1       0.909   8.012  22.097  0.00  0.00    +0.000 HD
ENDROOT
BRANCH   1  14
ATOM     11  C   UNL     1       2.437   2.135  17.602  0.00  0.00    +0.000 C 
ATOM     12  C   UNL     1       3.130   3.362  18.113  0.00  0.00    +0.000 A 
ATOM     13  C   UNL     1       2.412   4.399  18.702  0.00  0.00    +0.000 A 
ATOM     14  C   UNL     1       3.104   5.515  19.173  0.00  0.00    +0.000 A 
ATOM     15  C   UNL     1       4.496   5.538  19.060  0.00  0.00    +0.000 A 
ATOM     16  C   UNL     1       5.128   4.469  18.450  0.00  0.00    +0.000 A 
ATOM     17  N   UNL     1       4.476   3.392  17.974  0.00  0.00    +0.000 NA
ENDBRANCH   1  14
BRANCH   6  18
ATOM     18  N   UNL     1       0.898  11.764  18.303  0.00  0.00    +0.000 N 
ATOM     19  C   UNL     1      -0.290  12.386  18.579  0.00  0.00    +0.000 C 
ATOM     20  O   UNL     1      -0.444  13.565  18.267  0.00  0.00    +0.000 OA
ATOM     21  N   UNL     1      -1.260  11.636  19.157  0.00  0.00    +0.000 N 
ATOM     22  H   UNL     1       1.557  12.357  17.822  0.00  0.00    +0.000 HD
ATOM     23  H   UNL     1      -0.941  10.763  19.571  0.00  0.00    +0.000 HD
BRANCH  21  24
ATOM     24  C   UNL     1      -2.508  12.179  19.631  0.00  0.00    +0.000 C 
BRANCH  24  25
ATOM     25  C   UNL     1      -3.592  11.885  18.637  0.00  0.00    +0.000 A 
ATOM     26  C   UNL     1      -3.384  11.340  17.325  0.00  0.00    +0.000 A 
ATOM     27  C   UNL     1      -4.571  11.268  16.627  0.00  0.00    +0.000 A 
ATOM     28  S   UNL     1      -5.829  11.818  17.645  0.00  0.00    +0.000 S 
ATOM     29  N   UNL     1      -4.864  12.158  18.949  0.00  0.00    +0.000 NA
ENDBRANCH  24  25
ENDBRANCH  21  24
ENDBRANCH   6  18
TORSDOF 4
ENDMDL
