MODEL 1
REMARK VINA RESULT:      -7.8      0.000      0.000
REMARK  Name = 
REMARK  8 active torsions:
REMARK  status: ('A' for Active; 'I' for Inactive)
REMARK    1  A    between atoms: C_1  and  O_2
REMARK    2  A    between atoms: O_2  and  C_3
REMARK    3  A    between atoms: C_7  and  C_8
REMARK    4  A    between atoms: C_11  and  C_12
REMARK    5  A    between atoms: C_17  and  N_18
REMARK    6  A    between atoms: N_18  and  C_19
REMARK    7  A    between atoms: C_25  and  O_26
REMARK    8  A    between atoms: O_26  and  C_27
REMARK                            x       y       z     vdW  Elec       q    Type
REMARK                         _______ _______ _______ _____ _____    ______ ____
ROOT
ATOM      1  C   UNL     1       3.483   6.348  18.337  0.00  0.00    +0.000 A 
ATOM      2  N   UNL     1       3.016   7.607  17.904  0.00  0.00    +0.000 N 
ATOM      3  C   UNL     1       2.257   8.151  18.874  0.00  0.00    +0.000 A 
ATOM      4  C   UNL     1       1.588   9.270  19.263  0.00  0.00    +0.000 A 
ATOM      5  C   UNL     1       1.030   8.889  20.509  0.00  0.00    +0.000 A 
ATOM      6  N   UNL     1       1.375   7.649  20.899  0.00  0.00    +0.000 NA
ATOM      7  N   UNL     1       2.174   7.223  19.891  0.00  0.00    +0.000 N 
ATOM      8  C   UNL     1       2.978   6.095  19.581  0.00  0.00    +0.000 A 
ATOM      9  H   UNL     1       3.500   8.053  17.126  0.00  0.00    +0.000 HD
ENDROOT
BRANCH   1  14
ATOM     10  C   UNL     1       6.200   5.162  15.936  0.00  0.00    +0.000 A 
ATOM     11  C   UNL     1       5.783   3.835  15.751  0.00  0.00    +0.000 A 
ATOM     12  C   UNL     1       4.609   3.373  16.319  0.00  0.00    +0.000 A 
ATOM     13  C   UNL     1       3.857   4.228  17.116  0.00  0.00    +0.000 A 
ATOM     14  C   UNL     1       4.321   5.514  17.449  0.00  0.00    +0.000 A 
ATOM     15  C   UNL     1       5.513   5.994  16.846  0.00  0.00    +0.000 A 
BRANCH  10  17
ATOM     16  C   UNL     1       7.371   5.079  13.902  0.00  0.00    +0.000 C 
ATOM     17  O   UNL     1       7.255   5.647  15.213  0.00  0.00    +0.000 OA
ENDBRANCH  10  17
BRANCH  15  18
ATOM     18  O   UNL     1       5.832   7.290  17.169  0.00  0.00    +0.000 OA
ATOM     19  C   UNL     1       7.133   7.645  17.604  0.00  0.00    +0.000 C 
ENDBRANCH  15  18
ENDBRANCH   1  14
BRANCH   4  20
ATOM     20  C   UNL     1       1.484  10.514  18.587  0.00  0.00    +0.000 C 
ATOM     21  N   UNL     1       1.421  11.537  18.046  0.00  0.00    +0.000 NA
ENDBRANCH   4  20
BRANCH   8  22
ATOM     22  N   UNL     1       3.118   5.057  20.485  0.00  0.00    +0.000 N 
ATOM     23  H   UNL     1       3.878   5.262  21.132  0.00  0.00    +0.000 HD
BRANCH  22  24
ATOM     24  C   UNL     1       2.048   4.264  21.097  0.00  0.00    +0.000 C 
ATOM     25  C   UNL     1       0.826   4.109  20.184  0.00  0.00    +0.000 C 
ATOM     26  C   UNL     1       1.131   3.320  18.911  0.00  0.00    +0.000 C 
ATOM     27  C   UNL     1       1.842   1.994  19.183  0.00  0.00    +0.000 C 
ATOM     28  C   UNL     1       3.005   2.114  20.164  0.00  0.00    +0.000 C 
ATOM     29  C   UNL     1       2.609   2.873  21.428  0.00  0.00    +0.000 C 
ENDBRANCH  22  24
ENDBRANCH   8  22
TORSDOF 6
ENDMDL
MODEL 2
REMARK VINA RESULT:      -7.8      0.876      1.538
REMARK  Name = 
REMARK  8 active torsions:
REMARK  status: ('A' for Active; 'I' for Inactive)
REMARK    1  A    between atoms: C_1  and  O_2
REMARK    2  A    between atoms: O_2  and  C_3
REMARK    3  A    between atoms: C_7  and  C_8
REMARK    4  A    between atoms: C_11  and  C_12
REMARK    5  A    between atoms: C_17  and  N_18
REMARK    6  A    between atoms: N_18  and  C_19
REMARK    7  A    between atoms: C_25  and  O_26
REMARK    8  A    between atoms: O_26  and  C_27
REMARK                            x       y       z     vdW  Elec       q    Type
REMARK                         _______ _______ _______ _____ _____    ______ ____
ROOT
ATOM      1  C   UNL     1       4.085   6.072  17.654  0.00  0.00    +0.000 A 
ATOM      2  N   UNL     1       3.590   7.347  17.306  0.00  0.00    +0.000 N 
ATOM      3  C   UNL     1       2.812   7.803  18.307  0.00  0.00    +0.000 A 
ATOM      4  C   UNL     1       2.113   8.875  18.768  0.00  0.00    +0.000 A 
ATOM      5  C   UNL     1       1.558   8.394  19.980  0.00  0.00    +0.000 A 
ATOM      6  N   UNL     1       1.931   7.138  20.285  0.00  0.00    +0.000 NA
ATOM      7  N   UNL     1       2.746   6.804  19.255  0.00  0.00    +0.000 N 
ATOM      8  C   UNL     1       3.580   5.720  18.873  0.00  0.00    +0.000 A 
ATOM      9  H   UNL     1       4.067   7.858  16.566  0.00  0.00    +0.000 HD
ENDROOT
BRANCH   1  14
ATOM     10  C   UNL     1       6.865   5.114  15.222  0.00  0.00    +0.000 A 
ATOM     11  C   UNL     1       6.460   3.807  14.911  0.00  0.00    +0.000 A 
ATOM     12  C   UNL     1       5.277   3.292  15.408  0.00  0.00    +0.000 A 
ATOM     13  C   UNL     1       4.501   4.070  16.259  0.00  0.00    +0.000 A 
ATOM     14  C   UNL     1       4.949   5.323  16.715  0.00  0.00    +0.000 A 
ATOM     15  C   UNL     1       6.151   5.860  16.186  0.00  0.00    +0.000 A 
BRANCH  10  17
ATOM     16  C   UNL     1       7.980   5.359  13.170  0.00  0.00    +0.000 C 
ATOM     17  O   UNL     1       7.933   5.666  14.569  0.00  0.00    +0.000 OA
ENDBRANCH  10  17
BRANCH  15  18
ATOM     18  O   UNL     1       6.455   7.124  16.629  0.00  0.00    +0.000 OA
ATOM     19  C   UNL     1       7.516   7.353  17.540  0.00  0.00    +0.000 C 
ENDBRANCH  15  18
ENDBRANCH   1  14
BRANCH   4  20
ATOM     20  C   UNL     1       1.982  10.161  18.180  0.00  0.00    +0.000 C 
ATOM     21  N   UNL     1       1.901  11.214  17.704  0.00  0.00    +0.000 NA
ENDBRANCH   4  20
BRANCH   8  22
ATOM     22  N   UNL     1       3.740   4.625  19.702  0.00  0.00    +0.000 N 
ATOM     23  H   UNL     1       3.546   4.891  20.668  0.00  0.00    +0.000 HD
BRANCH  22  24
ATOM     24  C   UNL     1       3.381   3.233  19.414  0.00  0.00    +0.000 C 
ATOM     25  C   UNL     1       3.490   2.324  20.644  0.00  0.00    +0.000 C 
ATOM     26  C   UNL     1       2.500   2.695  21.747  0.00  0.00    +0.000 C 
ATOM     27  C   UNL     1       1.065   2.842  21.242  0.00  0.00    +0.000 C 
ATOM     28  C   UNL     1       0.948   3.668  19.963  0.00  0.00    +0.000 C 
ATOM     29  C   UNL     1       1.936   3.206  18.894  0.00  0.00    +0.000 C 
ENDBRANCH  22  24
ENDBRANCH   8  22
TORSDOF 6
ENDMDL
MODEL 3
REMARK VINA RESULT:      -6.6      2.783      6.633
REMARK  Name = 
REMARK  8 active torsions:
REMARK  status: ('A' for Active; 'I' for Inactive)
REMARK    1  A    between atoms: C_1  and  O_2
REMARK    2  A    between atoms: O_2  and  C_3
REMARK    3  A    between atoms: C_7  and  C_8
REMARK    4  A    between atoms: C_11  and  C_12
REMARK    5  A    between atoms: C_17  and  N_18
REMARK    6  A    between atoms: N_18  and  C_19
REMARK    7  A    between atoms: C_25  and  O_26
REMARK    8  A    between atoms: O_26  and  C_27
REMARK                            x       y       z     vdW  Elec       q    Type
REMARK                         _______ _______ _______ _____ _____    ______ ____
ROOT
ATOM      1  C   UNL     1       2.608   6.428  19.573  0.00  0.00    +0.000 A 
ATOM      2  N   UNL     1       1.824   5.517  20.312  0.00  0.00    +0.000 N 
ATOM      3  C   UNL     1       2.502   4.360  20.442  0.00  0.00    +0.000 A 
ATOM      4  C   UNL     1       2.506   3.137  21.037  0.00  0.00    +0.000 A 
ATOM      5  C   UNL     1       3.695   2.547  20.544  0.00  0.00    +0.000 A 
ATOM      6  N   UNL     1       4.413   3.360  19.749  0.00  0.00    +0.000 NA
ATOM      7  N   UNL     1       3.677   4.498  19.734  0.00  0.00    +0.000 N 
ATOM      8  C   UNL     1       3.774   5.816  19.213  0.00  0.00    +0.000 A 
ATOM      9  H   UNL     1       1.056   5.889  20.868  0.00  0.00    +0.000 HD
ENDROOT
BRANCH   1  14
ATOM     10  C   UNL     1       0.889   9.826  19.803  0.00  0.00    +0.000 A 
ATOM     11  C   UNL     1       1.114  10.288  18.496  0.00  0.00    +0.000 A 
ATOM     12  C   UNL     1       1.724   9.483  17.553  0.00  0.00    +0.000 A 
ATOM     13  C   UNL     1       2.156   8.214  17.920  0.00  0.00    +0.000 A 
ATOM     14  C   UNL     1       2.088   7.776  19.255  0.00  0.00    +0.000 A 
ATOM     15  C   UNL     1       1.439   8.594  20.216  0.00  0.00    +0.000 A 
BRANCH  10  17
ATOM     16  C   UNL     1      -0.625  11.609  20.017  0.00  0.00    +0.000 C 
ATOM     17  O   UNL     1       0.116  10.563  20.658  0.00  0.00    +0.000 OA
ENDBRANCH  10  17
BRANCH  15  18
ATOM     18  O   UNL     1       1.349   8.038  21.469  0.00  0.00    +0.000 OA
ATOM     19  C   UNL     1       1.396   8.838  22.637  0.00  0.00    +0.000 C 
ENDBRANCH  15  18
ENDBRANCH   1  14
BRANCH   4  20
ATOM     20  C   UNL     1       1.553   2.593  21.939  0.00  0.00    +0.000 C 
ATOM     21  N   UNL     1       0.794   2.135  22.686  0.00  0.00    +0.000 NA
ENDBRANCH   4  20
BRANCH   8  22
ATOM     22  N   UNL     1       4.904   6.222  18.525  0.00  0.00    +0.000 N 
ATOM     23  H   UNL     1       5.722   5.728  18.881  0.00  0.00    +0.000 HD
BRANCH  22  24
ATOM     24  C   UNL     1       5.007   6.538  17.098  0.00  0.00    +0.000 C 
ATOM     25  C   UNL     1       6.401   7.036  16.699  0.00  0.00    +0.000 C 
ATOM     26  C   UNL     1       7.486   5.973  16.878  0.00  0.00    +0.000 C 
ATOM     27  C   UNL     1       7.126   4.634  16.235  0.00  0.00    +0.000 C 
ATOM     28  C   UNL     1       5.705   4.168  16.546  0.00  0.00    +0.000 C 
ATOM     29  C   UNL     1       4.677   5.269  16.298  0.00  0.00    +0.000 C 
ENDBRANCH  22  24
ENDBRANCH   8  22
TORSDOF 6
ENDMDL
MODEL 4
REMARK VINA RESULT:      -6.5      4.153      7.402
REMARK  Name = 
REMARK  8 active torsions:
REMARK  status: ('A' for Active; 'I' for Inactive)
REMARK    1  A    between atoms: C_1  and  O_2
REMARK    2  A    between atoms: O_2  and  C_3
REMARK    3  A    between atoms: C_7  and  C_8
REMARK    4  A    between atoms: C_11  and  C_12
REMARK    5  A    between atoms: C_17  and  N_18
REMARK    6  A    between atoms: N_18  and  C_19
REMARK    7  A    between atoms: C_25  and  O_26
REMARK    8  A    between atoms: O_26  and  C_27
REMARK                            x       y       z     vdW  Elec       q    Type
REMARK                         _______ _______ _______ _____ _____    ______ ____
ROOT
ATOM      1  C   UNL     1       0.840  11.255  19.322  0.00  0.00    +0.000 A 
ATOM      2  N   UNL     1       1.528  12.138  20.181  0.00  0.00    +0.000 N 
ATOM      3  C   UNL     1       0.905  13.332  20.176  0.00  0.00    +0.000 A 
ATOM      4  C   UNL     1       0.864  14.565  20.749  0.00  0.00    +0.000 A 
ATOM      5  C   UNL     1      -0.182  15.209  20.042  0.00  0.00    +0.000 A 
ATOM      6  N   UNL     1      -0.790  14.420  19.138  0.00  0.00    +0.000 NA
ATOM      7  N   UNL     1      -0.130  13.243  19.268  0.00  0.00    +0.000 N 
ATOM      8  C   UNL     1      -0.206  11.923  18.751  0.00  0.00    +0.000 A 
ATOM      9  H   UNL     1       2.162  11.736  20.871  0.00  0.00    +0.000 HD
ENDROOT
BRANCH   1  14
ATOM     10  C   UNL     1       1.888   7.631  19.887  0.00  0.00    +0.000 A 
ATOM     11  C   UNL     1       2.336   7.315  18.595  0.00  0.00    +0.000 A 
ATOM     12  C   UNL     1       2.377   8.277  17.602  0.00  0.00    +0.000 A 
ATOM     13  C   UNL     1       1.928   9.562  17.882  0.00  0.00    +0.000 A 
ATOM     14  C   UNL     1       1.331   9.876  19.116  0.00  0.00    +0.000 A 
ATOM     15  C   UNL     1       1.312   8.894  20.142  0.00  0.00    +0.000 A 
BRANCH  10  17
ATOM     16  C   UNL     1       1.809   5.364  20.495  0.00  0.00    +0.000 C 
ATOM     17  O   UNL     1       2.038   6.720  20.897  0.00  0.00    +0.000 OA
ENDBRANCH  10  17
BRANCH  15  18
ATOM     18  O   UNL     1       0.786   9.327  21.334  0.00  0.00    +0.000 OA
ATOM     19  C   UNL     1      -0.455   8.840  21.814  0.00  0.00    +0.000 C 
ENDBRANCH  15  18
ENDBRANCH   1  14
BRANCH   4  20
ATOM     20  C   UNL     1       1.668  15.074  21.803  0.00  0.00    +0.000 C 
ATOM     21  N   UNL     1       2.314  15.513  22.659  0.00  0.00    +0.000 NA
ENDBRANCH   4  20
BRANCH   8  22
ATOM     22  N   UNL     1      -1.215  11.565  17.875  0.00  0.00    +0.000 N 
ATOM     23  H   UNL     1      -0.913  11.730  16.915  0.00  0.00    +0.000 HD
BRANCH  22  24
ATOM     24  C   UNL     1      -2.133  10.429  17.994  0.00  0.00    +0.000 C 
ATOM     25  C   UNL     1      -3.573  10.857  18.301  0.00  0.00    +0.000 C 
ATOM     26  C   UNL     1      -4.204  11.671  17.171  0.00  0.00    +0.000 C 
ATOM     27  C   UNL     1      -4.060  11.008  15.802  0.00  0.00    +0.000 C 
ATOM     28  C   UNL     1      -2.652  10.490  15.517  0.00  0.00    +0.000 C 
ATOM     29  C   UNL     1      -2.110   9.649  16.671  0.00  0.00    +0.000 C 
ENDBRANCH  22  24
ENDBRANCH   8  22
TORSDOF 6
ENDMDL
MODEL 5
REMARK VINA RESULT:      -6.4      4.897      8.259
REMARK  Name = 
REMARK  8 active torsions:
REMARK  status: ('A' for Active; 'I' for Inactive)
REMARK    1  A    between atoms: C_1  and  O_2
REMARK    2  A    between atoms: O_2  and  C_3
REMARK    3  A    between atoms: C_7  and  C_8
REMARK    4  A    between atoms: C_11  and  C_12
REMARK    5  A    between atoms: C_17  and  N_18
REMARK    6  A    between atoms: N_18  and  C_19
REMARK    7  A    between atoms: C_25  and  O_26
REMARK    8  A    between atoms: O_26  and  C_27
REMARK                            x       y       z     vdW  Elec       q    Type
REMARK                         _______ _______ _______ _____ _____    ______ ____
ROOT
ATOM      1  C   UNL     1      -0.777  11.856  20.310  0.00  0.00    +0.000 A 
ATOM      2  N   UNL     1      -0.438  12.570  21.479  0.00  0.00    +0.000 N 
ATOM      3  C   UNL     1      -1.367  13.521  21.697  0.00  0.00    +0.000 A 
ATOM      4  C   UNL     1      -1.800  14.470  22.570  0.00  0.00    +0.000 A 
ATOM      5  C   UNL     1      -2.919  15.028  21.904  0.00  0.00    +0.000 A 
ATOM      6  N   UNL     1      -3.203  14.432  20.732  0.00  0.00    +0.000 NA
ATOM      7  N   UNL     1      -2.255  13.468  20.642  0.00  0.00    +0.000 N 
ATOM      8  C   UNL     1      -1.915  12.393  19.779  0.00  0.00    +0.000 A 
ATOM      9  H   UNL     1       0.220  12.141  22.126  0.00  0.00    +0.000 HD
ENDROOT
BRANCH   1  14
ATOM     10  C   UNL     1       1.209   8.610  20.039  0.00  0.00    +0.000 A 
ATOM     11  C   UNL     1       1.813   8.812  18.788  0.00  0.00    +0.000 A 
ATOM     12  C   UNL     1       1.648  10.002  18.102  0.00  0.00    +0.000 A 
ATOM     13  C   UNL     1       0.838  10.992  18.646  0.00  0.00    +0.000 A 
ATOM     14  C   UNL     1       0.095  10.767  19.819  0.00  0.00    +0.000 A 
ATOM     15  C   UNL     1       0.285   9.555  20.533  0.00  0.00    +0.000 A 
BRANCH  10  17
ATOM     16  C   UNL     1       2.209   6.485  20.036  0.00  0.00    +0.000 C 
ATOM     17  O   UNL     1       1.541   7.510  20.782  0.00  0.00    +0.000 OA
ENDBRANCH  10  17
BRANCH  15  18
ATOM     18  O   UNL     1      -0.421   9.471  21.708  0.00  0.00    +0.000 OA
ATOM     19  C   UNL     1       0.233   9.478  22.965  0.00  0.00    +0.000 C 
ENDBRANCH  15  18
ENDBRANCH   1  14
BRANCH   4  20
ATOM     20  C   UNL     1      -1.263  14.808  23.840  0.00  0.00    +0.000 C 
ATOM     21  N   UNL     1      -0.803  15.072  24.871  0.00  0.00    +0.000 NA
ENDBRANCH   4  20
BRANCH   8  22
ATOM     22  N   UNL     1      -2.704  12.090  18.684  0.00  0.00    +0.000 N 
ATOM     23  H   UNL     1      -2.238  12.389  17.828  0.00  0.00    +0.000 HD
BRANCH  22  24
ATOM     24  C   UNL     1      -3.535  10.898  18.492  0.00  0.00    +0.000 C 
ATOM     25  C   UNL     1      -4.795  11.178  17.664  0.00  0.00    +0.000 C 
ATOM     26  C   UNL     1      -4.482  11.594  16.227  0.00  0.00    +0.000 C 
ATOM     27  C   UNL     1      -3.509  10.646  15.527  0.00  0.00    +0.000 C 
ATOM     28  C   UNL     1      -2.292  10.281  16.374  0.00  0.00    +0.000 C 
ATOM     29  C   UNL     1      -2.690   9.832  17.778  0.00  0.00    +0.000 C 
ENDBRANCH  22  24
ENDBRANCH   8  22
TORSDOF 6
ENDMDL
MODEL 6
REMARK VINA RESULT:      -6.3      2.749      6.686
REMARK  Name = 
REMARK  8 active torsions:
REMARK  status: ('A' for Active; 'I' for Inactive)
REMARK    1  A    between atoms: C_1  and  O_2
REMARK    2  A    between atoms: O_2  and  C_3
REMARK    3  A    between atoms: C_7  and  C_8
REMARK    4  A    between atoms: C_11  and  C_12
REMARK    5  A    between atoms: C_17  and  N_18
REMARK    6  A    between atoms: N_18  and  C_19
REMARK    7  A    between atoms: C_25  and  O_26
REMARK    8  A    between atoms: O_26  and  C_27
REMARK                            x       y       z     vdW  Elec       q    Type
REMARK                         _______ _______ _______ _____ _____    ______ ____
ROOT
ATOM      1  C   UNL     1       2.379   6.523  19.043  0.00  0.00    +0.000 A 
ATOM      2  N   UNL     1       1.768   5.690  20.005  0.00  0.00    +0.000 N 
ATOM      3  C   UNL     1       2.210   4.429  19.837  0.00  0.00    +0.000 A 
ATOM      4  C   UNL     1       2.201   3.172  20.356  0.00  0.00    +0.000 A 
ATOM      5  C   UNL     1       2.984   2.440  19.430  0.00  0.00    +0.000 A 
ATOM      6  N   UNL     1       3.495   3.193  18.440  0.00  0.00    +0.000 NA
ATOM      7  N   UNL     1       3.040   4.435  18.736  0.00  0.00    +0.000 N 
ATOM      8  C   UNL     1       3.186   5.761  18.249  0.00  0.00    +0.000 A 
ATOM      9  H   UNL     1       1.349   6.131  20.821  0.00  0.00    +0.000 HD
ENDROOT
BRANCH   1  14
ATOM     10  C   UNL     1       1.042  10.000  19.867  0.00  0.00    +0.000 A 
ATOM     11  C   UNL     1       1.436  10.681  18.705  0.00  0.00    +0.000 A 
ATOM     12  C   UNL     1       2.036  10.009  17.655  0.00  0.00    +0.000 A 
ATOM     13  C   UNL     1       2.286   8.647  17.776  0.00  0.00    +0.000 A 
ATOM     14  C   UNL     1       2.046   7.963  18.981  0.00  0.00    +0.000 A 
ATOM     15  C   UNL     1       1.409   8.649  20.048  0.00  0.00    +0.000 A 
BRANCH  10  17
ATOM     16  C   UNL     1      -0.867  11.310  20.264  0.00  0.00    +0.000 C 
ATOM     17  O   UNL     1       0.282  10.644  20.804  0.00  0.00    +0.000 OA
ENDBRANCH  10  17
BRANCH  15  18
ATOM     18  O   UNL     1       1.142   7.870  21.147  0.00  0.00    +0.000 OA
ATOM     19  C   UNL     1      -0.069   8.002  21.870  0.00  0.00    +0.000 C 
ENDBRANCH  15  18
ENDBRANCH   1  14
BRANCH   4  20
ATOM     20  C   UNL     1       1.568   2.713  21.542  0.00  0.00    +0.000 C 
ATOM     21  N   UNL     1       1.062   2.358  22.522  0.00  0.00    +0.000 NA
ENDBRANCH   4  20
BRANCH   8  22
ATOM     22  N   UNL     1       4.033   6.035  17.190  0.00  0.00    +0.000 N 
ATOM     23  H   UNL     1       3.488   6.317  16.376  0.00  0.00    +0.000 HD
BRANCH  22  24
ATOM     24  C   UNL     1       5.346   6.685  17.249  0.00  0.00    +0.000 C 
ATOM     25  C   UNL     1       6.302   6.006  18.236  0.00  0.00    +0.000 C 
ATOM     26  C   UNL     1       6.662   4.577  17.828  0.00  0.00    +0.000 C 
ATOM     27  C   UNL     1       7.129   4.467  16.377  0.00  0.00    +0.000 C 
ATOM     28  C   UNL     1       6.239   5.217  15.389  0.00  0.00    +0.000 C 
ATOM     29  C   UNL     1       5.964   6.649  15.843  0.00  0.00    +0.000 C 
ENDBRANCH  22  24
ENDBRANCH   8  22
TORSDOF 6
ENDMDL
MODEL 7
REMARK VINA RESULT:      -6.2      2.429      5.695
REMARK  Name = 
REMARK  8 active torsions:
REMARK  status: ('A' for Active; 'I' for Inactive)
REMARK    1  A    between atoms: C_1  and  O_2
REMARK    2  A    between atoms: O_2  and  C_3
REMARK    3  A    between atoms: C_7  and  C_8
REMARK    4  A    between atoms: C_11  and  C_12
REMARK    5  A    between atoms: C_17  and  N_18
REMARK    6  A    between atoms: N_18  and  C_19
REMARK    7  A    between atoms: C_25  and  O_26
REMARK    8  A    between atoms: O_26  and  C_27
REMARK                            x       y       z     vdW  Elec       q    Type
REMARK                         _______ _______ _______ _____ _____    ______ ____
ROOT
ATOM      1  C   UNL     1       2.997   6.581  18.634  0.00  0.00    +0.000 A 
ATOM      2  N   UNL     1       4.304   7.075  18.436  0.00  0.00    +0.000 N 
ATOM      3  C   UNL     1       4.993   6.201  17.678  0.00  0.00    +0.000 A 
ATOM      4  C   UNL     1       6.158   5.990  17.009  0.00  0.00    +0.000 A 
ATOM      5  C   UNL     1       5.989   4.687  16.478  0.00  0.00    +0.000 A 
ATOM      6  N   UNL     1       4.786   4.148  16.742  0.00  0.00    +0.000 NA
ATOM      7  N   UNL     1       4.164   5.122  17.451  0.00  0.00    +0.000 N 
ATOM      8  C   UNL     1       2.885   5.368  18.017  0.00  0.00    +0.000 A 
ATOM      9  H   UNL     1       4.470   8.066  18.604  0.00  0.00    +0.000 HD
ENDROOT
BRANCH   1  14
ATOM     10  C   UNL     1       0.663   9.287  19.970  0.00  0.00    +0.000 A 
ATOM     11  C   UNL     1       0.240   8.665  21.155  0.00  0.00    +0.000 A 
ATOM     12  C   UNL     1       0.768   7.448  21.546  0.00  0.00    +0.000 A 
ATOM     13  C   UNL     1       1.699   6.817  20.728  0.00  0.00    +0.000 A 
ATOM     14  C   UNL     1       2.030   7.334  19.463  0.00  0.00    +0.000 A 
ATOM     15  C   UNL     1       1.506   8.595  19.075  0.00  0.00    +0.000 A 
BRANCH  10  17
ATOM     16  C   UNL     1      -0.975  10.668  19.006  0.00  0.00    +0.000 C 
ATOM     17  O   UNL     1       0.274  10.572  19.703  0.00  0.00    +0.000 OA
ENDBRANCH  10  17
BRANCH  15  18
ATOM     18  O   UNL     1       1.958   9.049  17.860  0.00  0.00    +0.000 OA
ATOM     19  C   UNL     1       2.576  10.317  17.729  0.00  0.00    +0.000 C 
ENDBRANCH  15  18
ENDBRANCH   1  14
BRANCH   4  20
ATOM     20  C   UNL     1       7.266   6.868  16.872  0.00  0.00    +0.000 C 
ATOM     21  N   UNL     1       8.157   7.603  16.773  0.00  0.00    +0.000 NA
ENDBRANCH   4  20
BRANCH   8  22
ATOM     22  N   UNL     1       1.855   4.460  17.856  0.00  0.00    +0.000 N 
ATOM     23  H   UNL     1       1.331   4.678  17.008  0.00  0.00    +0.000 HD
BRANCH  22  24
ATOM     24  C   UNL     1       1.882   3.025  18.154  0.00  0.00    +0.000 C 
ATOM     25  C   UNL     1       3.042   2.631  19.075  0.00  0.00    +0.000 C 
ATOM     26  C   UNL     1       2.934   3.253  20.467  0.00  0.00    +0.000 C 
ATOM     27  C   UNL     1       1.564   3.042  21.113  0.00  0.00    +0.000 C 
ATOM     28  C   UNL     1       0.395   3.341  20.178  0.00  0.00    +0.000 C 
ATOM     29  C   UNL     1       0.554   2.647  18.827  0.00  0.00    +0.000 C 
ENDBRANCH  22  24
ENDBRANCH   8  22
TORSDOF 6
ENDMDL
MODEL 8
REMARK VINA RESULT:      -6.2      6.665      9.994
REMARK  Name = 
REMARK  8 active torsions:
REMARK  status: ('A' for Active; 'I' for Inactive)
REMARK    1  A    between atoms: C_1  and  O_2
REMARK    2  A    between atoms: O_2  and  C_3
REMARK    3  A    between atoms: C_7  and  C_8
REMARK    4  A    between atoms: C_11  and  C_12
REMARK    5  A    between atoms: C_17  and  N_18
REMARK    6  A    between atoms: N_18  and  C_19
REMARK    7  A    between atoms: C_25  and  O_26
REMARK    8  A    between atoms: O_26  and  C_27
REMARK                            x       y       z     vdW  Elec       q    Type
REMARK                         _______ _______ _______ _____ _____    ______ ____
ROOT
ATOM      1  C   UNL     1      -2.390  12.634  21.584  0.00  0.00    +0.000 A 
ATOM      2  N   UNL     1      -1.570  13.441  22.401  0.00  0.00    +0.000 N 
ATOM      3  C   UNL     1      -2.342  14.089  23.295  0.00  0.00    +0.000 A 
ATOM      4  C   UNL     1      -2.333  14.892  24.392  0.00  0.00    +0.000 A 
ATOM      5  C   UNL     1      -3.712  15.090  24.652  0.00  0.00    +0.000 A 
ATOM      6  N   UNL     1      -4.522  14.413  23.819  0.00  0.00    +0.000 NA
ATOM      7  N   UNL     1      -3.651  13.761  23.011  0.00  0.00    +0.000 N 
ATOM      8  C   UNL     1      -3.692  12.810  21.957  0.00  0.00    +0.000 A 
ATOM      9  H   UNL     1      -0.573  13.233  22.429  0.00  0.00    +0.000 HD
ENDROOT
BRANCH   1  14
ATOM     10  C   UNL     1      -0.151  10.287  19.577  0.00  0.00    +0.000 A 
ATOM     11  C   UNL     1      -0.756  10.411  18.316  0.00  0.00    +0.000 A 
ATOM     12  C   UNL     1      -1.798  11.296  18.112  0.00  0.00    +0.000 A 
ATOM     13  C   UNL     1      -2.277  12.041  19.184  0.00  0.00    +0.000 A 
ATOM     14  C   UNL     1      -1.800  11.832  20.491  0.00  0.00    +0.000 A 
ATOM     15  C   UNL     1      -0.714  10.941  20.694  0.00  0.00    +0.000 A 
BRANCH  10  17
ATOM     16  C   UNL     1       1.625   9.230  18.462  0.00  0.00    +0.000 C 
ATOM     17  O   UNL     1       0.996   9.553  19.708  0.00  0.00    +0.000 OA
ENDBRANCH  10  17
BRANCH  15  18
ATOM     18  O   UNL     1      -0.269  10.873  21.991  0.00  0.00    +0.000 OA
ATOM     19  C   UNL     1      -0.561   9.758  22.816  0.00  0.00    +0.000 C 
ENDBRANCH  15  18
ENDBRANCH   1  14
BRANCH   4  20
ATOM     20  C   UNL     1      -1.214  15.398  25.104  0.00  0.00    +0.000 C 
ATOM     21  N   UNL     1      -0.313  15.808  25.708  0.00  0.00    +0.000 NA
ENDBRANCH   4  20
BRANCH   8  22
ATOM     22  N   UNL     1      -4.896  12.269  21.541  0.00  0.00    +0.000 N 
ATOM     23  H   UNL     1      -5.196  11.548  22.196  0.00  0.00    +0.000 HD
BRANCH  22  24
ATOM     24  C   UNL     1      -6.019  12.976  20.920  0.00  0.00    +0.000 C 
ATOM     25  C   UNL     1      -5.806  13.237  19.425  0.00  0.00    +0.000 C 
ATOM     26  C   UNL     1      -5.734  11.951  18.602  0.00  0.00    +0.000 C 
ATOM     27  C   UNL     1      -6.895  10.996  18.878  0.00  0.00    +0.000 C 
ATOM     28  C   UNL     1      -7.182  10.797  20.365  0.00  0.00    +0.000 C 
ATOM     29  C   UNL     1      -7.286  12.127  21.108  0.00  0.00    +0.000 C 
ENDBRANCH  22  24
ENDBRANCH   8  22
TORSDOF 6
ENDMDL
MODEL 9
REMARK VINA RESULT:      -6.1      0.962      1.122
REMARK  Name = 
REMARK  8 active torsions:
REMARK  status: ('A' for Active; 'I' for Inactive)
REMARK    1  A    between atoms: C_1  and  O_2
REMARK    2  A    between atoms: O_2  and  C_3
REMARK    3  A    between atoms: C_7  and  C_8
REMARK    4  A    between atoms: C_11  and  C_12
REMARK    5  A    between atoms: C_17  and  N_18
REMARK    6  A    between atoms: N_18  and  C_19
REMARK    7  A    between atoms: C_25  and  O_26
REMARK    8  A    between atoms: O_26  and  C_27
REMARK                            x       y       z     vdW  Elec       q    Type
REMARK                         _______ _______ _______ _____ _____    ______ ____
ROOT
ATOM      1  C   UNL     1       3.577   6.638  17.671  0.00  0.00    +0.000 A 
ATOM      2  N   UNL     1       3.518   8.011  17.348  0.00  0.00    +0.000 N 
ATOM      3  C   UNL     1       2.615   8.611  18.147  0.00  0.00    +0.000 A 
ATOM      4  C   UNL     1       2.086   9.807  18.521  0.00  0.00    +0.000 A 
ATOM      5  C   UNL     1       1.109   9.437  19.477  0.00  0.00    +0.000 A 
ATOM      6  N   UNL     1       1.070   8.117  19.728  0.00  0.00    +0.000 NA
ATOM      7  N   UNL     1       2.045   7.625  18.925  0.00  0.00    +0.000 N 
ATOM      8  C   UNL     1       2.673   6.379  18.661  0.00  0.00    +0.000 A 
ATOM      9  H   UNL     1       4.295   8.411  16.825  0.00  0.00    +0.000 HD
ENDROOT
BRANCH   1  14
ATOM     10  C   UNL     1       6.494   5.233  15.653  0.00  0.00    +0.000 A 
ATOM     11  C   UNL     1       6.040   3.917  15.476  0.00  0.00    +0.000 A 
ATOM     12  C   UNL     1       4.790   3.530  15.922  0.00  0.00    +0.000 A 
ATOM     13  C   UNL     1       3.991   4.451  16.590  0.00  0.00    +0.000 A 
ATOM     14  C   UNL     1       4.472   5.731  16.921  0.00  0.00    +0.000 A 
ATOM     15  C   UNL     1       5.746   6.134  16.442  0.00  0.00    +0.000 A 
BRANCH  10  17
ATOM     16  C   UNL     1       7.733   5.262  13.659  0.00  0.00    +0.000 C 
ATOM     17  O   UNL     1       7.645   5.642  15.038  0.00  0.00    +0.000 OA
ENDBRANCH  10  17
BRANCH  15  18
ATOM     18  O   UNL     1       6.084   7.430  16.746  0.00  0.00    +0.000 OA
ATOM     19  C   UNL     1       7.235   7.732  17.515  0.00  0.00    +0.000 C 
ENDBRANCH  15  18
ENDBRANCH   1  14
BRANCH   4  20
ATOM     20  C   UNL     1       2.438  11.106  18.068  0.00  0.00    +0.000 C 
ATOM     21  N   UNL     1       2.702  12.175  17.706  0.00  0.00    +0.000 NA
ENDBRANCH   4  20
BRANCH   8  22
ATOM     22  N   UNL     1       2.323   5.247  19.375  0.00  0.00    +0.000 N 
ATOM     23  H   UNL     1       1.813   4.602  18.773  0.00  0.00    +0.000 HD
BRANCH  22  24
ATOM     24  C   UNL     1       3.119   4.561  20.397  0.00  0.00    +0.000 C 
ATOM     25  C   UNL     1       2.273   4.053  21.569  0.00  0.00    +0.000 C 
ATOM     26  C   UNL     1       1.271   2.975  21.156  0.00  0.00    +0.000 C 
ATOM     27  C   UNL     1       1.906   1.844  20.349  0.00  0.00    +0.000 C 
ATOM     28  C   UNL     1       2.828   2.331  19.234  0.00  0.00    +0.000 C 
ATOM     29  C   UNL     1       3.829   3.370  19.735  0.00  0.00    +0.000 C 
ENDBRANCH  22  24
ENDBRANCH   8  22
TORSDOF 6
ENDMDL
