MODEL 1
REMARK VINA RESULT:      -7.3      0.000      0.000
REMARK  Name = 
REMARK  4 active torsions:
REMARK  status: ('A' for Active; 'I' for Inactive)
REMARK    1  A    between atoms: C_1  and  N_2
REMARK    2  A    between atoms: N_2  and  C_3
REMARK    3  A    between atoms: CA_11  and  C_12
REMARK    4  A    between atoms: C_12  and  OXT_14
REMARK                            x       y       z     vdW  Elec       q    Type
REMARK                         _______ _______ _______ _____ _____    ______ ____
ROOT
ATOM      1  C   UNL     1       2.857   2.823  16.857  0.00  0.00    +0.000 C 
ATOM      2  N   UNL     1       3.621   3.648  17.798  0.00  0.00    +0.000 N 
ATOM      3  C   UNL     1       4.936   4.014  17.411  0.00  0.00    +0.000 A 
ATOM      4  C   UNL     1       5.309   4.116  16.087  0.00  0.00    +0.000 A 
ATOM      5  CA  UNL     1       6.612   4.491  15.828  0.00  0.00    +0.000 A 
ATOM      6  N   UNL     1       7.550   4.747  16.768  0.00  0.00    +0.000 NA
ATOM      7  C   UNL     1       7.098   4.616  18.016  0.00  0.00    +0.000 A 
ATOM      8  N   UNL     1       5.850   4.277  18.372  0.00  0.00    +0.000 NA
ENDROOT
BRANCH   2   9
ATOM      9  C   UNL     1       3.138   3.683  19.131  0.00  0.00    +0.000 A 
ATOM     10  C   UNL     1       3.227   2.581  20.001  0.00  0.00    +0.000 A 
ATOM     11  C   UNL     1       2.735   2.639  21.309  0.00  0.00    +0.000 A 
ATOM     12  C   UNL     1       2.141   3.805  21.781  0.00  0.00    +0.000 A 
ATOM     13  C   UNL     1       2.040   4.910  20.945  0.00  0.00    +0.000 A 
ATOM     14  C   UNL     1       2.533   4.848  19.637  0.00  0.00    +0.000 A 
ENDBRANCH   2   9
BRANCH   5  15
ATOM     15  C   UNL     1       7.058   4.648  14.414  0.00  0.00    +0.000 C 
ATOM     16  O   UNL     1       7.789   5.537  14.016  0.00  0.00    +0.000 OA
BRANCH  15  17
ATOM     17  OXT UNL     1       6.546   3.671  13.627  0.00  0.00    +0.000 OA
ATOM     18  HXT UNL     1       6.126   2.982  14.192  0.00  0.00    +0.000 HD
ENDBRANCH  15  17
ENDBRANCH   5  15
TORSDOF 3
ENDMDL
MODEL 2
REMARK VINA RESULT:      -7.3      0.039      1.165
REMARK  Name = 
REMARK  4 active torsions:
REMARK  status: ('A' for Active; 'I' for Inactive)
REMARK    1  A    between atoms: C_1  and  N_2
REMARK    2  A    between atoms: N_2  and  C_3
REMARK    3  A    between atoms: CA_11  and  C_12
REMARK    4  A    between atoms: C_12  and  OXT_14
REMARK                            x       y       z     vdW  Elec       q    Type
REMARK                         _______ _______ _______ _____ _____    ______ ____
ROOT
ATOM      1  C   UNL     1       2.850   2.843  16.848  0.00  0.00    +0.000 C 
ATOM      2  N   UNL     1       3.610   3.668  17.792  0.00  0.00    +0.000 N 
ATOM      3  C   UNL     1       4.929   4.028  17.412  0.00  0.00    +0.000 A 
ATOM      4  C   UNL     1       5.311   4.125  16.090  0.00  0.00    +0.000 A 
ATOM      5  CA  UNL     1       6.618   4.494  15.840  0.00  0.00    +0.000 A 
ATOM      6  N   UNL     1       7.550   4.749  16.784  0.00  0.00    +0.000 NA
ATOM      7  C   UNL     1       7.090   4.624  18.031  0.00  0.00    +0.000 A 
ATOM      8  N   UNL     1       5.838   4.290  18.379  0.00  0.00    +0.000 NA
ENDROOT
BRANCH   2   9
ATOM      9  C   UNL     1       3.118   3.708  19.122  0.00  0.00    +0.000 A 
ATOM     10  C   UNL     1       2.529   4.857  19.679  0.00  0.00    +0.000 A 
ATOM     11  C   UNL     1       2.059   4.873  20.997  0.00  0.00    +0.000 A 
ATOM     12  C   UNL     1       2.166   3.736  21.790  0.00  0.00    +0.000 A 
ATOM     13  C   UNL     1       2.743   2.585  21.266  0.00  0.00    +0.000 A 
ATOM     14  C   UNL     1       3.212   2.573  19.948  0.00  0.00    +0.000 A 
ENDBRANCH   2   9
BRANCH   5  15
ATOM     15  C   UNL     1       7.073   4.645  14.427  0.00  0.00    +0.000 C 
ATOM     16  O   UNL     1       7.826   5.519  14.036  0.00  0.00    +0.000 OA
BRANCH  15  17
ATOM     17  OXT UNL     1       6.545   3.681  13.636  0.00  0.00    +0.000 OA
ATOM     18  HXT UNL     1       5.578   3.606  13.812  0.00  0.00    +0.000 HD
ENDBRANCH  15  17
ENDBRANCH   5  15
TORSDOF 3
ENDMDL
MODEL 3
REMARK VINA RESULT:      -6.9      1.018      1.018
REMARK  Name = 
REMARK  4 active torsions:
REMARK  status: ('A' for Active; 'I' for Inactive)
REMARK    1  A    between atoms: C_1  and  N_2
REMARK    2  A    between atoms: N_2  and  C_3
REMARK    3  A    between atoms: CA_11  and  C_12
REMARK    4  A    between atoms: C_12  and  OXT_14
REMARK                            x       y       z     vdW  Elec       q    Type
REMARK                         _______ _______ _______ _____ _____    ______ ____
ROOT
ATOM      1  C   UNL     1       3.880   1.581  17.532  0.00  0.00    +0.000 C 
ATOM      2  N   UNL     1       3.737   2.951  18.033  0.00  0.00    +0.000 N 
ATOM      3  C   UNL     1       4.678   3.907  17.567  0.00  0.00    +0.000 A 
ATOM      4  C   UNL     1       5.311   3.778  16.348  0.00  0.00    +0.000 A 
ATOM      5  CA  UNL     1       6.199   4.774  15.994  0.00  0.00    +0.000 A 
ATOM      6  N   UNL     1       6.505   5.850  16.752  0.00  0.00    +0.000 NA
ATOM      7  C   UNL     1       5.848   5.885  17.913  0.00  0.00    +0.000 A 
ATOM      8  N   UNL     1       4.955   4.980  18.341  0.00  0.00    +0.000 NA
ENDROOT
BRANCH   2   9
ATOM      9  C   UNL     1       2.940   3.111  19.195  0.00  0.00    +0.000 A 
ATOM     10  C   UNL     1       3.316   2.602  20.451  0.00  0.00    +0.000 A 
ATOM     11  C   UNL     1       2.507   2.766  21.580  0.00  0.00    +0.000 A 
ATOM     12  C   UNL     1       1.299   3.447  21.480  0.00  0.00    +0.000 A 
ATOM     13  C   UNL     1       0.901   3.963  20.252  0.00  0.00    +0.000 A 
ATOM     14  C   UNL     1       1.713   3.796  19.125  0.00  0.00    +0.000 A 
ENDBRANCH   2   9
BRANCH   5  15
ATOM     15  C   UNL     1       6.886   4.700  14.672  0.00  0.00    +0.000 C 
ATOM     16  O   UNL     1       7.717   5.501  14.282  0.00  0.00    +0.000 OA
BRANCH  15  17
ATOM     17  OXT UNL     1       6.469   3.624  13.963  0.00  0.00    +0.000 OA
ATOM     18  HXT UNL     1       7.184   3.339  13.349  0.00  0.00    +0.000 HD
ENDBRANCH  15  17
ENDBRANCH   5  15
TORSDOF 3
ENDMDL
MODEL 4
REMARK VINA RESULT:      -6.9      1.146      1.516
REMARK  Name = 
REMARK  4 active torsions:
REMARK  status: ('A' for Active; 'I' for Inactive)
REMARK    1  A    between atoms: C_1  and  N_2
REMARK    2  A    between atoms: N_2  and  C_3
REMARK    3  A    between atoms: CA_11  and  C_12
REMARK    4  A    between atoms: C_12  and  OXT_14
REMARK                            x       y       z     vdW  Elec       q    Type
REMARK                         _______ _______ _______ _____ _____    ______ ____
ROOT
ATOM      1  C   UNL     1       4.083   1.504  17.702  0.00  0.00    +0.000 C 
ATOM      2  N   UNL     1       3.771   2.889  18.067  0.00  0.00    +0.000 N 
ATOM      3  C   UNL     1       4.617   3.899  17.538  0.00  0.00    +0.000 A 
ATOM      4  C   UNL     1       5.306   3.732  16.355  0.00  0.00    +0.000 A 
ATOM      5  CA  UNL     1       6.091   4.786  15.931  0.00  0.00    +0.000 A 
ATOM      6  N   UNL     1       6.247   5.955  16.592  0.00  0.00    +0.000 NA
ATOM      7  C   UNL     1       5.548   6.021  17.726  0.00  0.00    +0.000 A 
ATOM      8  N   UNL     1       4.745   5.063  18.214  0.00  0.00    +0.000 NA
ENDROOT
BRANCH   2   9
ATOM      9  C   UNL     1       2.918   3.062  19.187  0.00  0.00    +0.000 A 
ATOM     10  C   UNL     1       1.672   3.710  19.100  0.00  0.00    +0.000 A 
ATOM     11  C   UNL     1       0.853   3.875  20.222  0.00  0.00    +0.000 A 
ATOM     12  C   UNL     1       1.261   3.393  21.461  0.00  0.00    +0.000 A 
ATOM     13  C   UNL     1       2.486   2.748  21.578  0.00  0.00    +0.000 A 
ATOM     14  C   UNL     1       3.303   2.586  20.453  0.00  0.00    +0.000 A 
ENDBRANCH   2   9
BRANCH   5  15
ATOM     15  C   UNL     1       6.831   4.670  14.642  0.00  0.00    +0.000 C 
ATOM     16  O   UNL     1       7.691   5.448  14.269  0.00  0.00    +0.000 OA
BRANCH  15  17
ATOM     17  OXT UNL     1       6.427   3.584  13.940  0.00  0.00    +0.000 OA
ATOM     18  HXT UNL     1       6.338   3.823  12.989  0.00  0.00    +0.000 HD
ENDBRANCH  15  17
ENDBRANCH   5  15
TORSDOF 3
ENDMDL
MODEL 5
REMARK VINA RESULT:      -6.8      1.507      1.925
REMARK  Name = 
REMARK  4 active torsions:
REMARK  status: ('A' for Active; 'I' for Inactive)
REMARK    1  A    between atoms: C_1  and  N_2
REMARK    2  A    between atoms: N_2  and  C_3
REMARK    3  A    between atoms: CA_11  and  C_12
REMARK    4  A    between atoms: C_12  and  OXT_14
REMARK                            x       y       z     vdW  Elec       q    Type
REMARK                         _______ _______ _______ _____ _____    ______ ____
ROOT
ATOM      1  C   UNL     1       2.950   3.686  17.132  0.00  0.00    +0.000 C 
ATOM      2  N   UNL     1       3.461   5.002  17.527  0.00  0.00    +0.000 N 
ATOM      3  C   UNL     1       4.744   5.365  17.042  0.00  0.00    +0.000 A 
ATOM      4  C   UNL     1       5.256   4.852  15.868  0.00  0.00    +0.000 A 
ATOM      5  CA  UNL     1       6.511   5.285  15.488  0.00  0.00    +0.000 A 
ATOM      6  N   UNL     1       7.277   6.156  16.182  0.00  0.00    +0.000 NA
ATOM      7  C   UNL     1       6.701   6.592  17.304  0.00  0.00    +0.000 A 
ATOM      8  N   UNL     1       5.484   6.248  17.750  0.00  0.00    +0.000 NA
ENDROOT
BRANCH   2   9
ATOM      9  C   UNL     1       2.818   5.614  18.633  0.00  0.00    +0.000 A 
ATOM     10  C   UNL     1       2.354   4.884  19.742  0.00  0.00    +0.000 A 
ATOM     11  C   UNL     1       1.716   5.512  20.817  0.00  0.00    +0.000 A 
ATOM     12  C   UNL     1       1.528   6.890  20.810  0.00  0.00    +0.000 A 
ATOM     13  C   UNL     1       1.978   7.638  19.729  0.00  0.00    +0.000 A 
ATOM     14  C   UNL     1       2.615   7.006  18.655  0.00  0.00    +0.000 A 
ENDBRANCH   2   9
BRANCH   5  15
ATOM     15  C   UNL     1       7.098   4.786  14.211  0.00  0.00    +0.000 C 
ATOM     16  O   UNL     1       7.961   5.366  13.577  0.00  0.00    +0.000 OA
BRANCH  15  17
ATOM     17  OXT UNL     1       6.549   3.601  13.851  0.00  0.00    +0.000 OA
ATOM     18  HXT UNL     1       5.929   3.300  14.554  0.00  0.00    +0.000 HD
ENDBRANCH  15  17
ENDBRANCH   5  15
TORSDOF 3
ENDMDL
MODEL 6
REMARK VINA RESULT:      -6.7      3.395      4.995
REMARK  Name = 
REMARK  4 active torsions:
REMARK  status: ('A' for Active; 'I' for Inactive)
REMARK    1  A    between atoms: C_1  and  N_2
REMARK    2  A    between atoms: N_2  and  C_3
REMARK    3  A    between atoms: CA_11  and  C_12
REMARK    4  A    between atoms: C_12  and  OXT_14
REMARK                            x       y       z     vdW  Elec       q    Type
REMARK                         _______ _______ _______ _____ _____    ______ ____
ROOT
ATOM      1  C   UNL     1       5.267   3.902  16.830  0.00  0.00    +0.000 C 
ATOM      2  N   UNL     1       6.100   4.900  16.153  0.00  0.00    +0.000 N 
ATOM      3  C   UNL     1       6.424   4.651  14.794  0.00  0.00    +0.000 A 
ATOM      4  C   UNL     1       5.616   3.891  13.975  0.00  0.00    +0.000 A 
ATOM      5  CA  UNL     1       6.026   3.724  12.667  0.00  0.00    +0.000 A 
ATOM      6  N   UNL     1       7.160   4.231  12.136  0.00  0.00    +0.000 NA
ATOM      7  C   UNL     1       7.879   4.945  13.004  0.00  0.00    +0.000 A 
ATOM      8  N   UNL     1       7.560   5.182  14.285  0.00  0.00    +0.000 NA
ENDROOT
BRANCH   2   9
ATOM      9  C   UNL     1       6.804   5.800  16.993  0.00  0.00    +0.000 A 
ATOM     10  C   UNL     1       6.919   7.173  16.710  0.00  0.00    +0.000 A 
ATOM     11  C   UNL     1       7.626   8.037  17.552  0.00  0.00    +0.000 A 
ATOM     12  C   UNL     1       8.235   7.549  18.702  0.00  0.00    +0.000 A 
ATOM     13  C   UNL     1       8.138   6.197  19.010  0.00  0.00    +0.000 A 
ATOM     14  C   UNL     1       7.430   5.335  18.164  0.00  0.00    +0.000 A 
ENDBRANCH   2   9
BRANCH   5  15
ATOM     15  C   UNL     1       5.171   2.938  11.730  0.00  0.00    +0.000 C 
ATOM     16  O   UNL     1       4.130   3.342  11.244  0.00  0.00    +0.000 OA
BRANCH  15  17
ATOM     17  OXT UNL     1       5.705   1.717  11.488  0.00  0.00    +0.000 OA
ATOM     18  HXT UNL     1       6.441   1.804  10.839  0.00  0.00    +0.000 HD
ENDBRANCH  15  17
ENDBRANCH   5  15
TORSDOF 3
ENDMDL
MODEL 7
REMARK VINA RESULT:      -6.7      1.491      2.321
REMARK  Name = 
REMARK  4 active torsions:
REMARK  status: ('A' for Active; 'I' for Inactive)
REMARK    1  A    between atoms: C_1  and  N_2
REMARK    2  A    between atoms: N_2  and  C_3
REMARK    3  A    between atoms: CA_11  and  C_12
REMARK    4  A    between atoms: C_12  and  OXT_14
REMARK                            x       y       z     vdW  Elec       q    Type
REMARK                         _______ _______ _______ _____ _____    ______ ____
ROOT
ATOM      1  C   UNL     1       2.958   3.682  17.076  0.00  0.00    +0.000 C 
ATOM      2  N   UNL     1       3.472   4.997  17.471  0.00  0.00    +0.000 N 
ATOM      3  C   UNL     1       4.749   5.364  16.972  0.00  0.00    +0.000 A 
ATOM      4  C   UNL     1       5.248   4.857  15.790  0.00  0.00    +0.000 A 
ATOM      5  CA  UNL     1       6.498   5.293  15.397  0.00  0.00    +0.000 A 
ATOM      6  N   UNL     1       7.271   6.161  16.085  0.00  0.00    +0.000 NA
ATOM      7  C   UNL     1       6.708   6.592  17.216  0.00  0.00    +0.000 A 
ATOM      8  N   UNL     1       5.497   6.245  17.675  0.00  0.00    +0.000 NA
ENDROOT
BRANCH   2   9
ATOM      9  C   UNL     1       2.843   5.604  18.588  0.00  0.00    +0.000 A 
ATOM     10  C   UNL     1       2.631   6.991  18.680  0.00  0.00    +0.000 A 
ATOM     11  C   UNL     1       2.014   7.565  19.797  0.00  0.00    +0.000 A 
ATOM     12  C   UNL     1       1.592   6.762  20.851  0.00  0.00    +0.000 A 
ATOM     13  C   UNL     1       1.787   5.388  20.788  0.00  0.00    +0.000 A 
ATOM     14  C   UNL     1       2.405   4.817  19.669  0.00  0.00    +0.000 A 
ENDBRANCH   2   9
BRANCH   5  15
ATOM     15  C   UNL     1       7.070   4.800  14.111  0.00  0.00    +0.000 C 
ATOM     16  O   UNL     1       6.613   3.875  13.463  0.00  0.00    +0.000 OA
BRANCH  15  17
ATOM     17  OXT UNL     1       8.162   5.517  13.754  0.00  0.00    +0.000 OA
ATOM     18  HXT UNL     1       8.291   5.454  12.779  0.00  0.00    +0.000 HD
ENDBRANCH  15  17
ENDBRANCH   5  15
TORSDOF 3
ENDMDL
MODEL 8
REMARK VINA RESULT:      -6.7      3.404      4.878
REMARK  Name = 
REMARK  4 active torsions:
REMARK  status: ('A' for Active; 'I' for Inactive)
REMARK    1  A    between atoms: C_1  and  N_2
REMARK    2  A    between atoms: N_2  and  C_3
REMARK    3  A    between atoms: CA_11  and  C_12
REMARK    4  A    between atoms: C_12  and  OXT_14
REMARK                            x       y       z     vdW  Elec       q    Type
REMARK                         _______ _______ _______ _____ _____    ______ ____
ROOT
ATOM      1  C   UNL     1       5.336   3.819  16.853  0.00  0.00    +0.000 C 
ATOM      2  N   UNL     1       6.147   4.836  16.176  0.00  0.00    +0.000 N 
ATOM      3  C   UNL     1       6.457   4.607  14.811  0.00  0.00    +0.000 A 
ATOM      4  C   UNL     1       5.648   3.846  13.993  0.00  0.00    +0.000 A 
ATOM      5  CA  UNL     1       6.043   3.699  12.678  0.00  0.00    +0.000 A 
ATOM      6  N   UNL     1       7.164   4.228  12.139  0.00  0.00    +0.000 NA
ATOM      7  C   UNL     1       7.884   4.941  13.006  0.00  0.00    +0.000 A 
ATOM      8  N   UNL     1       7.579   5.158  14.294  0.00  0.00    +0.000 NA
ENDROOT
BRANCH   2   9
ATOM      9  C   UNL     1       6.849   5.736  17.019  0.00  0.00    +0.000 A 
ATOM     10  C   UNL     1       7.492   5.326  18.200  0.00  0.00    +0.000 A 
ATOM     11  C   UNL     1       8.171   6.235  19.018  0.00  0.00    +0.000 A 
ATOM     12  C   UNL     1       8.226   7.580  18.671  0.00  0.00    +0.000 A 
ATOM     13  C   UNL     1       7.601   8.015  17.508  0.00  0.00    +0.000 A 
ATOM     14  C   UNL     1       6.922   7.103  16.693  0.00  0.00    +0.000 A 
ENDBRANCH   2   9
BRANCH   5  15
ATOM     15  C   UNL     1       5.187   2.913  11.744  0.00  0.00    +0.000 C 
ATOM     16  O   UNL     1       4.156   3.324  11.243  0.00  0.00    +0.000 OA
BRANCH  15  17
ATOM     17  OXT UNL     1       5.707   1.682  11.521  0.00  0.00    +0.000 OA
ATOM     18  HXT UNL     1       4.978   1.047  11.335  0.00  0.00    +0.000 HD
ENDBRANCH  15  17
ENDBRANCH   5  15
TORSDOF 3
ENDMDL
MODEL 9
REMARK VINA RESULT:      -6.5      3.632      6.436
REMARK  Name = 
REMARK  4 active torsions:
REMARK  status: ('A' for Active; 'I' for Inactive)
REMARK    1  A    between atoms: C_1  and  N_2
REMARK    2  A    between atoms: N_2  and  C_3
REMARK    3  A    between atoms: CA_11  and  C_12
REMARK    4  A    between atoms: C_12  and  OXT_14
REMARK                            x       y       z     vdW  Elec       q    Type
REMARK                         _______ _______ _______ _____ _____    ______ ____
ROOT
ATOM      1  C   UNL     1       5.982   5.208  19.131  0.00  0.00    +0.000 C 
ATOM      2  N   UNL     1       5.189   4.577  18.071  0.00  0.00    +0.000 N 
ATOM      3  C   UNL     1       4.176   3.672  18.480  0.00  0.00    +0.000 A 
ATOM      4  C   UNL     1       3.562   3.765  19.711  0.00  0.00    +0.000 A 
ATOM      5  CA  UNL     1       2.581   2.836  19.996  0.00  0.00    +0.000 A 
ATOM      6  N   UNL     1       2.191   1.838  19.172  0.00  0.00    +0.000 NA
ATOM      7  C   UNL     1       2.845   1.824  18.009  0.00  0.00    +0.000 A 
ATOM      8  N   UNL     1       3.797   2.690  17.630  0.00  0.00    +0.000 NA
ENDROOT
BRANCH   2   9
ATOM      9  C   UNL     1       5.740   4.630  16.765  0.00  0.00    +0.000 A 
ATOM     10  C   UNL     1       4.981   4.375  15.610  0.00  0.00    +0.000 A 
ATOM     11  C   UNL     1       5.550   4.426  14.333  0.00  0.00    +0.000 A 
ATOM     12  C   UNL     1       6.898   4.736  14.181  0.00  0.00    +0.000 A 
ATOM     13  C   UNL     1       7.673   4.994  15.305  0.00  0.00    +0.000 A 
ATOM     14  C   UNL     1       7.100   4.942  16.581  0.00  0.00    +0.000 A 
ENDBRANCH   2   9
BRANCH   5  15
ATOM     15  C   UNL     1       1.863   2.912  21.301  0.00  0.00    +0.000 C 
ATOM     16  O   UNL     1       2.411   2.990  22.386  0.00  0.00    +0.000 OA
BRANCH  15  17
ATOM     17  OXT UNL     1       0.520   2.887  21.123  0.00  0.00    +0.000 OA
ATOM     18  HXT UNL     1       0.106   2.340  21.829  0.00  0.00    +0.000 HD
ENDBRANCH  15  17
ENDBRANCH   5  15
TORSDOF 3
ENDMDL
