MODEL 1
REMARK VINA RESULT:      -7.2      0.000      0.000
REMARK  Name = 
REMARK  10 active torsions:
REMARK  status: ('A' for Active; 'I' for Inactive)
REMARK    1  A    between atoms: C_1  and  O_2
REMARK    2  A    between atoms: O_2  and  C_3
REMARK    3  A    between atoms: C_6  and  O_7
REMARK    4  A    between atoms: O_7  and  C_8
REMARK    5  A    between atoms: C_8  and  C_9
REMARK    6  A    between atoms: C_9  and  O_10
REMARK    7  A    between atoms: C_9  and  C_11
REMARK    8  A    between atoms: C_11  and  N_12
REMARK    9  A    between atoms: C_13  and  S_14
REMARK   10  A    between atoms: N_23  and  C_24
REMARK                            x       y       z     vdW  Elec       q    Type
REMARK                         _______ _______ _______ _____ _____    ______ ____
ROOT
ATOM      1  N   UNL     1       4.142   3.626  18.768  0.00  0.00    +0.000 N 
ATOM      2  C   UNL     1       3.394   3.030  17.778  0.00  0.00    +0.000 A 
ATOM      3  N   UNL     1       3.892   3.261  16.579  0.00  0.00    +0.000 NA
ATOM      4  C   UNL     1       4.980   4.042  16.802  0.00  0.00    +0.000 A 
ATOM      5  C   UNL     1       5.169   4.281  18.132  0.00  0.00    +0.000 A 
ATOM      6  C   UNL     1       6.235   5.085  18.620  0.00  0.00    +0.000 A 
ATOM      7  O   UNL     1       6.433   5.348  19.802  0.00  0.00    +0.000 OA
ATOM      8  N   UNL     1       7.044   5.555  17.611  0.00  0.00    +0.000 N 
ATOM      9  C   UNL     1       6.892   5.354  16.252  0.00  0.00    +0.000 A 
ATOM     10  O   UNL     1       7.699   5.877  15.481  0.00  0.00    +0.000 OA
ATOM     11  N   UNL     1       5.822   4.566  15.843  0.00  0.00    +0.000 N 
ATOM     12  C   UNL     1       5.583   4.316  14.434  0.00  0.00    +0.000 C 
ATOM     13  H   UNL     1       7.819   6.141  17.883  0.00  0.00    +0.000 HD
ENDROOT
BRANCH   2  14
ATOM     14  S   UNL     1       1.970   2.077  18.035  0.00  0.00    +0.000 S 
ATOM     15  H   UNL     1       1.281   2.855  18.874  0.00  0.00    +0.000 HD
ENDBRANCH   2  14
BRANCH   1  16
ATOM     16  C   UNL     1       3.951   3.591  20.208  0.00  0.00    +0.000 C 
BRANCH  16  17
ATOM     17  C   UNL     1       2.858   4.555  20.690  0.00  0.00    +0.000 C 
BRANCH  17  18
ATOM     18  O   UNL     1       1.773   3.835  21.287  0.00  0.00    +0.000 OA
ATOM     19  H   UNL     1       1.068   3.710  20.622  0.00  0.00    +0.000 HD
ENDBRANCH  17  18
BRANCH  17  20
ATOM     20  C   UNL     1       2.348   5.402  19.512  0.00  0.00    +0.000 C 
BRANCH  20  21
ATOM     21  O   UNL     1       2.982   6.684  19.548  0.00  0.00    +0.000 OA
BRANCH  21  25
ATOM     22  C   UNL     1       0.499  10.025  19.258  0.00  0.00    +0.000 A 
ATOM     23  C   UNL     1       0.666   9.333  20.460  0.00  0.00    +0.000 A 
ATOM     24  C   UNL     1       1.503   8.217  20.520  0.00  0.00    +0.000 A 
ATOM     25  C   UNL     1       2.155   7.759  19.374  0.00  0.00    +0.000 A 
ATOM     26  C   UNL     1       1.976   8.439  18.171  0.00  0.00    +0.000 A 
ATOM     27  C   UNL     1       1.148   9.567  18.114  0.00  0.00    +0.000 A 
BRANCH  22  29
ATOM     28  C   UNL     1      -1.289  11.192  18.251  0.00  0.00    +0.000 C 
ATOM     29  O   UNL     1      -0.337  11.107  19.306  0.00  0.00    +0.000 OA
ENDBRANCH  22  29
ENDBRANCH  21  25
ENDBRANCH  20  21
ENDBRANCH  17  20
ENDBRANCH  16  17
ENDBRANCH   1  16
TORSDOF 8
ENDMDL
MODEL 2
REMARK VINA RESULT:      -6.9      4.809      6.802
REMARK  Name = 
REMARK  10 active torsions:
REMARK  status: ('A' for Active; 'I' for Inactive)
REMARK    1  A    between atoms: C_1  and  O_2
REMARK    2  A    between atoms: O_2  and  C_3
REMARK    3  A    between atoms: C_6  and  O_7
REMARK    4  A    between atoms: O_7  and  C_8
REMARK    5  A    between atoms: C_8  and  C_9
REMARK    6  A    between atoms: C_9  and  O_10
REMARK    7  A    between atoms: C_9  and  C_11
REMARK    8  A    between atoms: C_11  and  N_12
REMARK    9  A    between atoms: C_13  and  S_14
REMARK   10  A    between atoms: N_23  and  C_24
REMARK                            x       y       z     vdW  Elec       q    Type
REMARK                         _______ _______ _______ _____ _____    ______ ____
ROOT
ATOM      1  N   UNL     1       5.145   5.722  17.035  0.00  0.00    +0.000 N 
ATOM      2  C   UNL     1       5.545   4.564  16.407  0.00  0.00    +0.000 A 
ATOM      3  N   UNL     1       4.747   3.553  16.684  0.00  0.00    +0.000 NA
ATOM      4  C   UNL     1       3.817   4.068  17.528  0.00  0.00    +0.000 A 
ATOM      5  C   UNL     1       4.024   5.397  17.761  0.00  0.00    +0.000 A 
ATOM      6  C   UNL     1       3.191   6.161  18.623  0.00  0.00    +0.000 A 
ATOM      7  O   UNL     1       3.350   7.351  18.881  0.00  0.00    +0.000 OA
ATOM      8  N   UNL     1       2.163   5.418  19.156  0.00  0.00    +0.000 N 
ATOM      9  C   UNL     1       1.915   4.072  18.964  0.00  0.00    +0.000 A 
ATOM     10  O   UNL     1       0.958   3.557  19.547  0.00  0.00    +0.000 OA
ATOM     11  N   UNL     1       2.775   3.382  18.116  0.00  0.00    +0.000 N 
ATOM     12  C   UNL     1       2.592   1.965  17.871  0.00  0.00    +0.000 C 
ATOM     13  H   UNL     1       1.534   5.894  19.786  0.00  0.00    +0.000 HD
ENDROOT
BRANCH   2  14
ATOM     14  S   UNL     1       6.921   4.416  15.364  0.00  0.00    +0.000 S 
ATOM     15  H   UNL     1       7.915   4.746  16.191  0.00  0.00    +0.000 HD
ENDBRANCH   2  14
BRANCH   1  16
ATOM     16  C   UNL     1       5.729   7.050  16.969  0.00  0.00    +0.000 C 
BRANCH  16  17
ATOM     17  C   UNL     1       7.183   7.090  17.461  0.00  0.00    +0.000 C 
BRANCH  17  18
ATOM     18  O   UNL     1       7.302   6.464  18.744  0.00  0.00    +0.000 OA
ATOM     19  H   UNL     1       8.235   6.497  19.031  0.00  0.00    +0.000 HD
ENDBRANCH  17  18
BRANCH  17  20
ATOM     20  C   UNL     1       7.672   8.546  17.535  0.00  0.00    +0.000 C 
BRANCH  20  21
ATOM     21  O   UNL     1       8.569   8.683  18.641  0.00  0.00    +0.000 OA
BRANCH  21  25
ATOM     22  C   UNL     1      10.174  12.437  19.502  0.00  0.00    +0.000 A 
ATOM     23  C   UNL     1       9.826  11.535  20.510  0.00  0.00    +0.000 A 
ATOM     24  C   UNL     1       9.289  10.287  20.186  0.00  0.00    +0.000 A 
ATOM     25  C   UNL     1       9.061   9.940  18.854  0.00  0.00    +0.000 A 
ATOM     26  C   UNL     1       9.391  10.847  17.848  0.00  0.00    +0.000 A 
ATOM     27  C   UNL     1       9.944  12.092  18.172  0.00  0.00    +0.000 A 
BRANCH  22  29
ATOM     28  C   UNL     1      12.044  13.878  19.534  0.00  0.00    +0.000 C 
ATOM     29  O   UNL     1      10.697  13.629  19.925  0.00  0.00    +0.000 OA
ENDBRANCH  22  29
ENDBRANCH  21  25
ENDBRANCH  20  21
ENDBRANCH  17  20
ENDBRANCH  16  17
ENDBRANCH   1  16
TORSDOF 8
ENDMDL
MODEL 3
REMARK VINA RESULT:      -6.7      7.774     10.072
REMARK  Name = 
REMARK  10 active torsions:
REMARK  status: ('A' for Active; 'I' for Inactive)
REMARK    1  A    between atoms: C_1  and  O_2
REMARK    2  A    between atoms: O_2  and  C_3
REMARK    3  A    between atoms: C_6  and  O_7
REMARK    4  A    between atoms: O_7  and  C_8
REMARK    5  A    between atoms: C_8  and  C_9
REMARK    6  A    between atoms: C_9  and  O_10
REMARK    7  A    between atoms: C_9  and  C_11
REMARK    8  A    between atoms: C_11  and  N_12
REMARK    9  A    between atoms: C_13  and  S_14
REMARK   10  A    between atoms: N_23  and  C_24
REMARK                            x       y       z     vdW  Elec       q    Type
REMARK                         _______ _______ _______ _____ _____    ______ ____
ROOT
ATOM      1  N   UNL     1       9.949  12.683  19.296  0.00  0.00    +0.000 N 
ATOM      2  C   UNL     1       9.337  13.126  20.447  0.00  0.00    +0.000 A 
ATOM      3  N   UNL     1       9.186  14.435  20.452  0.00  0.00    +0.000 NA
ATOM      4  C   UNL     1       9.731  14.850  19.279  0.00  0.00    +0.000 A 
ATOM      5  C   UNL     1      10.203  13.803  18.542  0.00  0.00    +0.000 A 
ATOM      6  C   UNL     1      10.832  13.981  17.278  0.00  0.00    +0.000 A 
ATOM      7  O   UNL     1      11.292  13.076  16.589  0.00  0.00    +0.000 OA
ATOM      8  N   UNL     1      10.879  15.301  16.895  0.00  0.00    +0.000 N 
ATOM      9  C   UNL     1      10.429  16.398  17.607  0.00  0.00    +0.000 A 
ATOM     10  O   UNL     1      10.578  17.521  17.122  0.00  0.00    +0.000 OA
ATOM     11  N   UNL     1       9.833  16.153  18.839  0.00  0.00    +0.000 N 
ATOM     12  C   UNL     1       9.346  17.249  19.655  0.00  0.00    +0.000 C 
ATOM     13  H   UNL     1      11.320  15.505  16.011  0.00  0.00    +0.000 HD
ENDROOT
BRANCH   2  14
ATOM     14  S   UNL     1       8.807  12.115  21.751  0.00  0.00    +0.000 S 
ATOM     15  H   UNL     1       9.864  11.314  21.909  0.00  0.00    +0.000 HD
ENDBRANCH   2  14
BRANCH   1  16
ATOM     16  C   UNL     1      10.268  11.325  18.891  0.00  0.00    +0.000 C 
BRANCH  16  17
ATOM     17  C   UNL     1       9.253  10.742  17.899  0.00  0.00    +0.000 C 
BRANCH  17  18
ATOM     18  O   UNL     1       8.161  11.646  17.699  0.00  0.00    +0.000 OA
ATOM     19  H   UNL     1       7.368  11.137  17.440  0.00  0.00    +0.000 HD
ENDBRANCH  17  18
BRANCH  17  20
ATOM     20  C   UNL     1       8.734   9.389  18.414  0.00  0.00    +0.000 C 
BRANCH  20  21
ATOM     21  O   UNL     1       8.042   8.720  17.356  0.00  0.00    +0.000 OA
BRANCH  21  25
ATOM     22  C   UNL     1       6.270   5.161  18.624  0.00  0.00    +0.000 A 
ATOM     23  C   UNL     1       7.499   5.593  19.127  0.00  0.00    +0.000 A 
ATOM     24  C   UNL     1       8.065   6.788  18.678  0.00  0.00    +0.000 A 
ATOM     25  C   UNL     1       7.426   7.548  17.698  0.00  0.00    +0.000 A 
ATOM     26  C   UNL     1       6.208   7.109  17.182  0.00  0.00    +0.000 A 
ATOM     27  C   UNL     1       5.633   5.919  17.643  0.00  0.00    +0.000 A 
BRANCH  22  29
ATOM     28  C   UNL     1       4.528   3.567  18.645  0.00  0.00    +0.000 C 
ATOM     29  O   UNL     1       5.800   3.981  19.133  0.00  0.00    +0.000 OA
ENDBRANCH  22  29
ENDBRANCH  21  25
ENDBRANCH  20  21
ENDBRANCH  17  20
ENDBRANCH  16  17
ENDBRANCH   1  16
TORSDOF 8
ENDMDL
MODEL 4
REMARK VINA RESULT:      -6.7      1.357      1.416
REMARK  Name = 
REMARK  10 active torsions:
REMARK  status: ('A' for Active; 'I' for Inactive)
REMARK    1  A    between atoms: C_1  and  O_2
REMARK    2  A    between atoms: O_2  and  C_3
REMARK    3  A    between atoms: C_6  and  O_7
REMARK    4  A    between atoms: O_7  and  C_8
REMARK    5  A    between atoms: C_8  and  C_9
REMARK    6  A    between atoms: C_9  and  O_10
REMARK    7  A    between atoms: C_9  and  C_11
REMARK    8  A    between atoms: C_11  and  N_12
REMARK    9  A    between atoms: C_13  and  S_14
REMARK   10  A    between atoms: N_23  and  C_24
REMARK                            x       y       z     vdW  Elec       q    Type
REMARK                         _______ _______ _______ _____ _____    ______ ____
ROOT
ATOM      1  N   UNL     1       5.068   4.129  17.936  0.00  0.00    +0.000 N 
ATOM      2  C   UNL     1       4.251   3.249  17.264  0.00  0.00    +0.000 A 
ATOM      3  N   UNL     1       4.557   3.174  15.984  0.00  0.00    +0.000 NA
ATOM      4  C   UNL     1       5.587   4.043  15.823  0.00  0.00    +0.000 A 
ATOM      5  C   UNL     1       5.933   4.642  16.999  0.00  0.00    +0.000 A 
ATOM      6  C   UNL     1       6.976   5.604  17.089  0.00  0.00    +0.000 A 
ATOM      7  O   UNL     1       7.308   6.187  18.117  0.00  0.00    +0.000 OA
ATOM      8  N   UNL     1       7.592   5.827  15.879  0.00  0.00    +0.000 N 
ATOM      9  C   UNL     1       7.275   5.259  14.660  0.00  0.00    +0.000 A 
ATOM     10  O   UNL     1       7.917   5.597  13.663  0.00  0.00    +0.000 OA
ATOM     11  N   UNL     1       6.237   4.333  14.642  0.00  0.00    +0.000 N 
ATOM     12  C   UNL     1       5.833   3.700  13.401  0.00  0.00    +0.000 C 
ATOM     13  H   UNL     1       8.338   6.506  15.865  0.00  0.00    +0.000 HD
ENDROOT
BRANCH   2  14
ATOM     14  S   UNL     1       2.971   2.326  17.979  0.00  0.00    +0.000 S 
ATOM     15  H   UNL     1       3.188   2.537  19.279  0.00  0.00    +0.000 HD
ENDBRANCH   2  14
BRANCH   1  16
ATOM     16  C   UNL     1       5.080   4.474  19.347  0.00  0.00    +0.000 C 
BRANCH  16  17
ATOM     17  C   UNL     1       4.028   5.530  19.714  0.00  0.00    +0.000 C 
BRANCH  17  18
ATOM     18  O   UNL     1       2.841   4.908  20.222  0.00  0.00    +0.000 OA
ATOM     19  H   UNL     1       2.857   3.958  19.999  0.00  0.00    +0.000 HD
ENDBRANCH  17  18
BRANCH  17  20
ATOM     20  C   UNL     1       3.691   6.385  18.482  0.00  0.00    +0.000 C 
BRANCH  20  21
ATOM     21  O   UNL     1       2.282   6.635  18.456  0.00  0.00    +0.000 OA
BRANCH  21  25
ATOM     22  C   UNL     1       1.181  10.549  19.398  0.00  0.00    +0.000 A 
ATOM     23  C   UNL     1       1.050   9.504  20.316  0.00  0.00    +0.000 A 
ATOM     24  C   UNL     1       1.426   8.205  19.967  0.00  0.00    +0.000 A 
ATOM     25  C   UNL     1       1.905   7.929  18.685  0.00  0.00    +0.000 A 
ATOM     26  C   UNL     1       2.020   8.967  17.763  0.00  0.00    +0.000 A 
ATOM     27  C   UNL     1       1.656  10.271  18.118  0.00  0.00    +0.000 A 
BRANCH  22  29
ATOM     28  C   UNL     1      -0.003  12.536  18.929  0.00  0.00    +0.000 C 
ATOM     29  O   UNL     1       0.790  11.783  19.841  0.00  0.00    +0.000 OA
ENDBRANCH  22  29
ENDBRANCH  21  25
ENDBRANCH  20  21
ENDBRANCH  17  20
ENDBRANCH  16  17
ENDBRANCH   1  16
TORSDOF 8
ENDMDL
MODEL 5
REMARK VINA RESULT:      -6.7      7.440     10.000
REMARK  Name = 
REMARK  10 active torsions:
REMARK  status: ('A' for Active; 'I' for Inactive)
REMARK    1  A    between atoms: C_1  and  O_2
REMARK    2  A    between atoms: O_2  and  C_3
REMARK    3  A    between atoms: C_6  and  O_7
REMARK    4  A    between atoms: O_7  and  C_8
REMARK    5  A    between atoms: C_8  and  C_9
REMARK    6  A    between atoms: C_9  and  O_10
REMARK    7  A    between atoms: C_9  and  C_11
REMARK    8  A    between atoms: C_11  and  N_12
REMARK    9  A    between atoms: C_13  and  S_14
REMARK   10  A    between atoms: N_23  and  C_24
REMARK                            x       y       z     vdW  Elec       q    Type
REMARK                         _______ _______ _______ _____ _____    ______ ____
ROOT
ATOM      1  N   UNL     1       9.844  12.803  18.471  0.00  0.00    +0.000 N 
ATOM      2  C   UNL     1      10.867  13.330  19.226  0.00  0.00    +0.000 A 
ATOM      3  N   UNL     1      10.615  14.568  19.600  0.00  0.00    +0.000 NA
ATOM      4  C   UNL     1       9.404  14.853  19.057  0.00  0.00    +0.000 A 
ATOM      5  C   UNL     1       8.897  13.793  18.363  0.00  0.00    +0.000 A 
ATOM      6  C   UNL     1       7.645  13.847  17.690  0.00  0.00    +0.000 A 
ATOM      7  O   UNL     1       7.159  12.930  17.036  0.00  0.00    +0.000 OA
ATOM      8  N   UNL     1       7.017  15.061  17.846  0.00  0.00    +0.000 N 
ATOM      9  C   UNL     1       7.489  16.169  18.525  0.00  0.00    +0.000 A 
ATOM     10  O   UNL     1       6.802  17.192  18.539  0.00  0.00    +0.000 OA
ATOM     11  N   UNL     1       8.724  16.050  19.152  0.00  0.00    +0.000 N 
ATOM     12  C   UNL     1       9.297  17.169  19.875  0.00  0.00    +0.000 C 
ATOM     13  H   UNL     1       6.126  15.175  17.387  0.00  0.00    +0.000 HD
ENDROOT
BRANCH   2  14
ATOM     14  S   UNL     1      12.323  12.497  19.660  0.00  0.00    +0.000 S 
ATOM     15  H   UNL     1      12.140  12.311  20.970  0.00  0.00    +0.000 HD
ENDBRANCH   2  14
BRANCH   1  16
ATOM     16  C   UNL     1       9.720  11.475  17.895  0.00  0.00    +0.000 C 
BRANCH  16  17
ATOM     17  C   UNL     1       8.876  10.525  18.757  0.00  0.00    +0.000 C 
BRANCH  17  18
ATOM     18  O   UNL     1       9.650  10.002  19.842  0.00  0.00    +0.000 OA
ATOM     19  H   UNL     1      10.366   9.442  19.484  0.00  0.00    +0.000 HD
ENDBRANCH  17  18
BRANCH  17  20
ATOM     20  C   UNL     1       8.332   9.376  17.892  0.00  0.00    +0.000 C 
BRANCH  20  21
ATOM     21  O   UNL     1       8.470   8.145  18.609  0.00  0.00    +0.000 OA
BRANCH  21  25
ATOM     22  C   UNL     1       5.994   5.135  17.118  0.00  0.00    +0.000 A 
ATOM     23  C   UNL     1       5.953   6.439  16.618  0.00  0.00    +0.000 A 
ATOM     24  C   UNL     1       6.794   7.422  17.142  0.00  0.00    +0.000 A 
ATOM     25  C   UNL     1       7.662   7.124  18.194  0.00  0.00    +0.000 A 
ATOM     26  C   UNL     1       7.691   5.828  18.705  0.00  0.00    +0.000 A 
ATOM     27  C   UNL     1       6.858   4.838  18.170  0.00  0.00    +0.000 A 
BRANCH  22  29
ATOM     28  C   UNL     1       4.245   3.578  17.423  0.00  0.00    +0.000 C 
ATOM     29  O   UNL     1       5.134   4.246  16.533  0.00  0.00    +0.000 OA
ENDBRANCH  22  29
ENDBRANCH  21  25
ENDBRANCH  20  21
ENDBRANCH  17  20
ENDBRANCH  16  17
ENDBRANCH   1  16
TORSDOF 8
ENDMDL
MODEL 6
REMARK VINA RESULT:      -6.7      1.768      2.357
REMARK  Name = 
REMARK  10 active torsions:
REMARK  status: ('A' for Active; 'I' for Inactive)
REMARK    1  A    between atoms: C_1  and  O_2
REMARK    2  A    between atoms: O_2  and  C_3
REMARK    3  A    between atoms: C_6  and  O_7
REMARK    4  A    between atoms: O_7  and  C_8
REMARK    5  A    between atoms: C_8  and  C_9
REMARK    6  A    between atoms: C_9  and  O_10
REMARK    7  A    between atoms: C_9  and  C_11
REMARK    8  A    between atoms: C_11  and  N_12
REMARK    9  A    between atoms: C_13  and  S_14
REMARK   10  A    between atoms: N_23  and  C_24
REMARK                            x       y       z     vdW  Elec       q    Type
REMARK                         _______ _______ _______ _____ _____    ______ ____
ROOT
ATOM      1  N   UNL     1       3.568   4.746  18.887  0.00  0.00    +0.000 N 
ATOM      2  C   UNL     1       4.236   3.657  19.399  0.00  0.00    +0.000 A 
ATOM      3  N   UNL     1       5.521   3.686  19.108  0.00  0.00    +0.000 NA
ATOM      4  C   UNL     1       5.683   4.816  18.372  0.00  0.00    +0.000 A 
ATOM      5  C   UNL     1       4.509   5.495  18.222  0.00  0.00    +0.000 A 
ATOM      6  C   UNL     1       4.415   6.705  17.480  0.00  0.00    +0.000 A 
ATOM      7  O   UNL     1       3.380   7.339  17.297  0.00  0.00    +0.000 OA
ATOM      8  N   UNL     1       5.629   7.105  16.970  0.00  0.00    +0.000 N 
ATOM      9  C   UNL     1       6.842   6.450  17.081  0.00  0.00    +0.000 A 
ATOM     10  O   UNL     1       7.831   6.940  16.534  0.00  0.00    +0.000 OA
ATOM     11  N   UNL     1       6.860   5.268  17.813  0.00  0.00    +0.000 N 
ATOM     12  C   UNL     1       8.089   4.513  17.967  0.00  0.00    +0.000 C 
ATOM     13  H   UNL     1       5.638   7.953  16.423  0.00  0.00    +0.000 HD
ENDROOT
BRANCH   2  14
ATOM     14  S   UNL     1       3.513   2.384  20.326  0.00  0.00    +0.000 S 
ATOM     15  H   UNL     1       3.355   1.438  19.397  0.00  0.00    +0.000 HD
ENDBRANCH   2  14
BRANCH   1  16
ATOM     16  C   UNL     1       2.165   5.100  19.007  0.00  0.00    +0.000 C 
BRANCH  16  17
ATOM     17  C   UNL     1       1.644   5.004  20.447  0.00  0.00    +0.000 C 
BRANCH  17  18
ATOM     18  O   UNL     1       0.461   4.198  20.507  0.00  0.00    +0.000 OA
ATOM     19  H   UNL     1      -0.315   4.753  20.296  0.00  0.00    +0.000 HD
ENDBRANCH  17  18
BRANCH  17  20
ATOM     20  C   UNL     1       1.354   6.411  20.995  0.00  0.00    +0.000 C 
BRANCH  20  21
ATOM     21  O   UNL     1       1.929   7.383  20.117  0.00  0.00    +0.000 OA
BRANCH  21  25
ATOM     22  C   UNL     1       0.161  11.162  20.033  0.00  0.00    +0.000 A 
ATOM     23  C   UNL     1       0.701  10.575  18.887  0.00  0.00    +0.000 A 
ATOM     24  C   UNL     1       1.288   9.310  18.952  0.00  0.00    +0.000 A 
ATOM     25  C   UNL     1       1.372   8.631  20.168  0.00  0.00    +0.000 A 
ATOM     26  C   UNL     1       0.848   9.223  21.316  0.00  0.00    +0.000 A 
ATOM     27  C   UNL     1       0.247  10.486  21.248  0.00  0.00    +0.000 A 
BRANCH  22  29
ATOM     28  C   UNL     1      -0.889  12.673  18.554  0.00  0.00    +0.000 C 
ATOM     29  O   UNL     1      -0.395  12.401  19.862  0.00  0.00    +0.000 OA
ENDBRANCH  22  29
ENDBRANCH  21  25
ENDBRANCH  20  21
ENDBRANCH  17  20
ENDBRANCH  16  17
ENDBRANCH   1  16
TORSDOF 8
ENDMDL
MODEL 7
REMARK VINA RESULT:      -6.7      2.164      2.832
REMARK  Name = 
REMARK  10 active torsions:
REMARK  status: ('A' for Active; 'I' for Inactive)
REMARK    1  A    between atoms: C_1  and  O_2
REMARK    2  A    between atoms: O_2  and  C_3
REMARK    3  A    between atoms: C_6  and  O_7
REMARK    4  A    between atoms: O_7  and  C_8
REMARK    5  A    between atoms: C_8  and  C_9
REMARK    6  A    between atoms: C_9  and  O_10
REMARK    7  A    between atoms: C_9  and  C_11
REMARK    8  A    between atoms: C_11  and  N_12
REMARK    9  A    between atoms: C_13  and  S_14
REMARK   10  A    between atoms: N_23  and  C_24
REMARK                            x       y       z     vdW  Elec       q    Type
REMARK                         _______ _______ _______ _____ _____    ______ ____
ROOT
ATOM      1  N   UNL     1       3.634   4.928  18.786  0.00  0.00    +0.000 N 
ATOM      2  C   UNL     1       4.246   3.789  19.260  0.00  0.00    +0.000 A 
ATOM      3  N   UNL     1       5.526   3.752  18.950  0.00  0.00    +0.000 NA
ATOM      4  C   UNL     1       5.742   4.890  18.241  0.00  0.00    +0.000 A 
ATOM      5  C   UNL     1       4.607   5.639  18.126  0.00  0.00    +0.000 A 
ATOM      6  C   UNL     1       4.574   6.871  17.416  0.00  0.00    +0.000 A 
ATOM      7  O   UNL     1       3.574   7.568  17.266  0.00  0.00    +0.000 OA
ATOM      8  N   UNL     1       5.801   7.214  16.898  0.00  0.00    +0.000 N 
ATOM      9  C   UNL     1       6.975   6.488  16.974  0.00  0.00    +0.000 A 
ATOM     10  O   UNL     1       7.984   6.934  16.424  0.00  0.00    +0.000 OA
ATOM     11  N   UNL     1       6.936   5.288  17.675  0.00  0.00    +0.000 N 
ATOM     12  C   UNL     1       8.121   4.460  17.791  0.00  0.00    +0.000 C 
ATOM     13  H   UNL     1       5.851   8.074  16.373  0.00  0.00    +0.000 HD
ENDROOT
BRANCH   2  14
ATOM     14  S   UNL     1       3.463   2.536  20.166  0.00  0.00    +0.000 S 
ATOM     15  H   UNL     1       2.353   3.158  20.571  0.00  0.00    +0.000 HD
ENDBRANCH   2  14
BRANCH   1  16
ATOM     16  C   UNL     1       2.255   5.358  18.936  0.00  0.00    +0.000 C 
BRANCH  16  17
ATOM     17  C   UNL     1       1.921   5.806  20.366  0.00  0.00    +0.000 C 
BRANCH  17  18
ATOM     18  O   UNL     1       0.756   5.127  20.851  0.00  0.00    +0.000 OA
ATOM     19  H   UNL     1       1.023   4.275  21.247  0.00  0.00    +0.000 HD
ENDBRANCH  17  18
BRANCH  17  20
ATOM     20  C   UNL     1       1.700   7.327  20.402  0.00  0.00    +0.000 C 
BRANCH  20  21
ATOM     21  O   UNL     1       0.972   7.667  21.586  0.00  0.00    +0.000 OA
BRANCH  21  25
ATOM     22  C   UNL     1      -0.956  11.366  21.726  0.00  0.00    +0.000 A 
ATOM     23  C   UNL     1      -0.763  10.590  22.872  0.00  0.00    +0.000 A 
ATOM     24  C   UNL     1      -0.115   9.356  22.788  0.00  0.00    +0.000 A 
ATOM     25  C   UNL     1       0.316   8.866  21.555  0.00  0.00    +0.000 A 
ATOM     26  C   UNL     1       0.109   9.631  20.408  0.00  0.00    +0.000 A 
ATOM     27  C   UNL     1      -0.527  10.875  20.494  0.00  0.00    +0.000 A 
BRANCH  22  29
ATOM     28  C   UNL     1      -1.272  13.240  23.125  0.00  0.00    +0.000 C 
ATOM     29  O   UNL     1      -1.595  12.560  21.916  0.00  0.00    +0.000 OA
ENDBRANCH  22  29
ENDBRANCH  21  25
ENDBRANCH  20  21
ENDBRANCH  17  20
ENDBRANCH  16  17
ENDBRANCH   1  16
TORSDOF 8
ENDMDL
MODEL 8
REMARK VINA RESULT:      -6.7      4.735      9.181
REMARK  Name = 
REMARK  10 active torsions:
REMARK  status: ('A' for Active; 'I' for Inactive)
REMARK    1  A    between atoms: C_1  and  O_2
REMARK    2  A    between atoms: O_2  and  C_3
REMARK    3  A    between atoms: C_6  and  O_7
REMARK    4  A    between atoms: O_7  and  C_8
REMARK    5  A    between atoms: C_8  and  C_9
REMARK    6  A    between atoms: C_9  and  O_10
REMARK    7  A    between atoms: C_9  and  C_11
REMARK    8  A    between atoms: C_11  and  N_12
REMARK    9  A    between atoms: C_13  and  S_14
REMARK   10  A    between atoms: N_23  and  C_24
REMARK                            x       y       z     vdW  Elec       q    Type
REMARK                         _______ _______ _______ _____ _____    ______ ____
ROOT
ATOM      1  N   UNL     1      -0.169  10.340  19.764  0.00  0.00    +0.000 N 
ATOM      2  C   UNL     1       0.100   9.914  21.046  0.00  0.00    +0.000 A 
ATOM      3  N   UNL     1      -0.480  10.677  21.950  0.00  0.00    +0.000 NA
ATOM      4  C   UNL     1      -1.126  11.632  21.233  0.00  0.00    +0.000 A 
ATOM      5  C   UNL     1      -0.964  11.454  19.890  0.00  0.00    +0.000 A 
ATOM      6  C   UNL     1      -1.535  12.332  18.928  0.00  0.00    +0.000 A 
ATOM      7  O   UNL     1      -1.399  12.227  17.712  0.00  0.00    +0.000 OA
ATOM      8  N   UNL     1      -2.271  13.340  19.506  0.00  0.00    +0.000 N 
ATOM      9  C   UNL     1      -2.456  13.574  20.856  0.00  0.00    +0.000 A 
ATOM     10  O   UNL     1      -3.127  14.548  21.202  0.00  0.00    +0.000 OA
ATOM     11  N   UNL     1      -1.863  12.681  21.742  0.00  0.00    +0.000 N 
ATOM     12  C   UNL     1      -1.998  12.862  23.175  0.00  0.00    +0.000 C 
ATOM     13  H   UNL     1      -2.698  14.009  18.884  0.00  0.00    +0.000 HD
ENDROOT
BRANCH   2  14
ATOM     14  S   UNL     1       1.072   8.541  21.460  0.00  0.00    +0.000 S 
ATOM     15  H   UNL     1       1.542   8.902  22.657  0.00  0.00    +0.000 HD
ENDBRANCH   2  14
BRANCH   1  16
ATOM     16  C   UNL     1       0.251   9.764  18.499  0.00  0.00    +0.000 C 
BRANCH  16  17
ATOM     17  C   UNL     1       1.767   9.858  18.273  0.00  0.00    +0.000 C 
BRANCH  17  18
ATOM     18  O   UNL     1       2.094  11.025  17.509  0.00  0.00    +0.000 OA
ATOM     19  H   UNL     1       1.722  11.812  17.952  0.00  0.00    +0.000 HD
ENDBRANCH  17  18
BRANCH  17  20
ATOM     20  C   UNL     1       2.269   8.596  17.552  0.00  0.00    +0.000 C 
BRANCH  20  21
ATOM     21  O   UNL     1       2.133   7.472  18.426  0.00  0.00    +0.000 OA
BRANCH  21  25
ATOM     22  C   UNL     1       5.576   5.117  18.543  0.00  0.00    +0.000 A 
ATOM     23  C   UNL     1       5.390   6.105  17.572  0.00  0.00    +0.000 A 
ATOM     24  C   UNL     1       4.224   6.873  17.561  0.00  0.00    +0.000 A 
ATOM     25  C   UNL     1       3.216   6.641  18.497  0.00  0.00    +0.000 A 
ATOM     26  C   UNL     1       3.392   5.644  19.455  0.00  0.00    +0.000 A 
ATOM     27  C   UNL     1       4.568   4.884  19.476  0.00  0.00    +0.000 A 
BRANCH  22  29
ATOM     28  C   UNL     1       7.471   4.567  17.247  0.00  0.00    +0.000 C 
ATOM     29  O   UNL     1       6.754   4.426  18.469  0.00  0.00    +0.000 OA
ENDBRANCH  22  29
ENDBRANCH  21  25
ENDBRANCH  20  21
ENDBRANCH  17  20
ENDBRANCH  16  17
ENDBRANCH   1  16
TORSDOF 8
ENDMDL
MODEL 9
REMARK VINA RESULT:      -6.6      4.366      6.815
REMARK  Name = 
REMARK  10 active torsions:
REMARK  status: ('A' for Active; 'I' for Inactive)
REMARK    1  A    between atoms: C_1  and  O_2
REMARK    2  A    between atoms: O_2  and  C_3
REMARK    3  A    between atoms: C_6  and  O_7
REMARK    4  A    between atoms: O_7  and  C_8
REMARK    5  A    between atoms: C_8  and  C_9
REMARK    6  A    between atoms: C_9  and  O_10
REMARK    7  A    between atoms: C_9  and  C_11
REMARK    8  A    between atoms: C_11  and  N_12
REMARK    9  A    between atoms: C_13  and  S_14
REMARK   10  A    between atoms: N_23  and  C_24
REMARK                            x       y       z     vdW  Elec       q    Type
REMARK                         _______ _______ _______ _____ _____    ______ ____
ROOT
ATOM      1  N   UNL     1       0.980   9.439  20.170  0.00  0.00    +0.000 N 
ATOM      2  C   UNL     1       0.733   8.739  21.330  0.00  0.00    +0.000 A 
ATOM      3  N   UNL     1       1.263   7.533  21.298  0.00  0.00    +0.000 NA
ATOM      4  C   UNL     1       1.853   7.447  20.078  0.00  0.00    +0.000 A 
ATOM      5  C   UNL     1       1.706   8.599  19.362  0.00  0.00    +0.000 A 
ATOM      6  C   UNL     1       2.225   8.752  18.046  0.00  0.00    +0.000 A 
ATOM      7  O   UNL     1       2.100   9.758  17.354  0.00  0.00    +0.000 OA
ATOM      8  N   UNL     1       2.898   7.633  17.612  0.00  0.00    +0.000 N 
ATOM      9  C   UNL     1       3.064   6.439  18.290  0.00  0.00    +0.000 A 
ATOM     10  O   UNL     1       3.674   5.524  17.735  0.00  0.00    +0.000 OA
ATOM     11  N   UNL     1       2.523   6.354  19.568  0.00  0.00    +0.000 N 
ATOM     12  C   UNL     1       2.643   5.133  20.341  0.00  0.00    +0.000 C 
ATOM     13  H   UNL     1       3.286   7.666  16.682  0.00  0.00    +0.000 HD
ENDROOT
BRANCH   2  14
ATOM     14  S   UNL     1      -0.156   9.339  22.691  0.00  0.00    +0.000 S 
ATOM     15  H   UNL     1      -1.414   9.111  22.305  0.00  0.00    +0.000 HD
ENDBRANCH   2  14
BRANCH   1  16
ATOM     16  C   UNL     1       0.599  10.797  19.820  0.00  0.00    +0.000 C 
BRANCH  16  17
ATOM     17  C   UNL     1      -0.796  10.882  19.184  0.00  0.00    +0.000 C 
BRANCH  17  18
ATOM     18  O   UNL     1      -0.728  10.627  17.776  0.00  0.00    +0.000 OA
ATOM     19  H   UNL     1      -0.237   9.796  17.625  0.00  0.00    +0.000 HD
ENDBRANCH  17  18
BRANCH  17  20
ATOM     20  C   UNL     1      -1.406  12.269  19.442  0.00  0.00    +0.000 C 
BRANCH  20  21
ATOM     21  O   UNL     1      -1.276  12.587  20.831  0.00  0.00    +0.000 OA
BRANCH  21  25
ATOM     22  C   UNL     1      -4.682  12.590  23.243  0.00  0.00    +0.000 A 
ATOM     23  C   UNL     1      -3.407  12.359  23.766  0.00  0.00    +0.000 A 
ATOM     24  C   UNL     1      -2.289  12.363  22.930  0.00  0.00    +0.000 A 
ATOM     25  C   UNL     1      -2.435  12.563  21.556  0.00  0.00    +0.000 A 
ATOM     26  C   UNL     1      -3.708  12.776  21.030  0.00  0.00    +0.000 A 
ATOM     27  C   UNL     1      -4.827  12.787  21.872  0.00  0.00    +0.000 A 
BRANCH  22  29
ATOM     28  C   UNL     1      -7.003  12.811  23.607  0.00  0.00    +0.000 C 
ATOM     29  O   UNL     1      -5.708  12.571  24.147  0.00  0.00    +0.000 OA
ENDBRANCH  22  29
ENDBRANCH  21  25
ENDBRANCH  20  21
ENDBRANCH  17  20
ENDBRANCH  16  17
ENDBRANCH   1  16
TORSDOF 8
ENDMDL
