MODEL 1
REMARK VINA RESULT:      -8.6      0.000      0.000
REMARK  Name = 
REMARK  5 active torsions:
REMARK  status: ('A' for Active; 'I' for Inactive)
REMARK    1  A    between atoms: C_5  and  S_6
REMARK    2  A    between atoms: S_6  and  C_7
REMARK    3  A    between atoms: N_13  and  C_14
REMARK    4  A    between atoms: C_17  and  O_18
REMARK    5  A    between atoms: O_18  and  C_19
REMARK                            x       y       z     vdW  Elec       q    Type
REMARK                         _______ _______ _______ _____ _____    ______ ____
ROOT
ATOM      1  C   UNL     1       5.225   6.443  17.476  0.00  0.00    +0.000 A 
ATOM      2  N   UNL     1       5.849   6.357  18.639  0.00  0.00    +0.000 NA
ATOM      3  C   UNL     1       7.064   5.845  18.527  0.00  0.00    +0.000 A 
ATOM      4 CL   UNL     1       7.931   5.661  19.988  0.00  0.00    +0.000 Cl
ATOM      5  N   UNL     1       7.683   5.433  17.430  0.00  0.00    +0.000 NA
ATOM      6  C   UNL     1       6.956   5.549  16.330  0.00  0.00    +0.000 A 
ATOM      7  N   UNL     1       7.542   5.117  15.137  0.00  0.00    +0.000 N 
ATOM      8  N   UNL     1       5.728   6.049  16.310  0.00  0.00    +0.000 NA
ATOM      9  H   UNL     1       8.442   4.699  15.339  0.00  0.00    +0.000 HD
ENDROOT
BRANCH   7  10
ATOM     10  C   UNL     1       6.882   4.510  14.051  0.00  0.00    +0.000 A 
ATOM     11  C   UNL     1       5.633   3.917  14.253  0.00  0.00    +0.000 A 
ATOM     12  C   UNL     1       4.945   3.325  13.187  0.00  0.00    +0.000 A 
ATOM     13  C   UNL     1       5.476   3.351  11.895  0.00  0.00    +0.000 A 
ATOM     14  C   UNL     1       6.732   3.910  11.692  0.00  0.00    +0.000 A 
ATOM     15  C   UNL     1       7.416   4.504  12.756  0.00  0.00    +0.000 A 
BRANCH  13  16
ATOM     16  O   UNL     1       4.716   2.746  10.942  0.00  0.00    +0.000 OA
BRANCH  16  17
ATOM     17  C   UNL     1       3.459   3.311  10.593  0.00  0.00    +0.000 C 
ATOM     18  F   UNL     1       2.412   2.846  11.309  0.00  0.00    +0.000 F 
ATOM     19  F   UNL     1       3.520   4.652  10.741  0.00  0.00    +0.000 F 
ATOM     20  F   UNL     1       3.215   3.044   9.290  0.00  0.00    +0.000 F 
ENDBRANCH  16  17
ENDBRANCH  13  16
ENDBRANCH   7  10
BRANCH   1  21
ATOM     21  S   UNL     1       3.535   6.992  17.489  0.00  0.00    +0.000 S 
BRANCH  21  26
ATOM     22  F   UNL     1       0.633   2.857  20.556  0.00  0.00    +0.000 F 
ATOM     23  C   UNL     1       1.324   3.773  19.866  0.00  0.00    +0.000 A 
ATOM     24  C   UNL     1       1.742   4.937  20.498  0.00  0.00    +0.000 A 
ATOM     25  C   UNL     1       2.447   5.901  19.773  0.00  0.00    +0.000 A 
ATOM     26  C   UNL     1       2.736   5.697  18.416  0.00  0.00    +0.000 A 
ATOM     27  C   UNL     1       2.306   4.517  17.794  0.00  0.00    +0.000 A 
ATOM     28  C   UNL     1       1.602   3.553  18.522  0.00  0.00    +0.000 A 
ENDBRANCH  21  26
ENDBRANCH   1  21
TORSDOF 5
ENDMDL
MODEL 2
REMARK VINA RESULT:      -8.5      0.187      1.178
REMARK  Name = 
REMARK  5 active torsions:
REMARK  status: ('A' for Active; 'I' for Inactive)
REMARK    1  A    between atoms: C_5  and  S_6
REMARK    2  A    between atoms: S_6  and  C_7
REMARK    3  A    between atoms: N_13  and  C_14
REMARK    4  A    between atoms: C_17  and  O_18
REMARK    5  A    between atoms: O_18  and  C_19
REMARK                            x       y       z     vdW  Elec       q    Type
REMARK                         _______ _______ _______ _____ _____    ______ ____
ROOT
ATOM      1  C   UNL     1       5.299   6.494  17.606  0.00  0.00    +0.000 A 
ATOM      2  N   UNL     1       5.963   6.360  18.743  0.00  0.00    +0.000 NA
ATOM      3  C   UNL     1       7.146   5.791  18.576  0.00  0.00    +0.000 A 
ATOM      4 CL   UNL     1       8.059   5.543  19.998  0.00  0.00    +0.000 Cl
ATOM      5  N   UNL     1       7.701   5.365  17.449  0.00  0.00    +0.000 NA
ATOM      6  C   UNL     1       6.937   5.533  16.380  0.00  0.00    +0.000 A 
ATOM      7  N   UNL     1       7.454   5.092  15.159  0.00  0.00    +0.000 N 
ATOM      8  N   UNL     1       5.736   6.093  16.416  0.00  0.00    +0.000 NA
ATOM      9  H   UNL     1       8.339   4.627  15.320  0.00  0.00    +0.000 HD
ENDROOT
BRANCH   7  10
ATOM     10  C   UNL     1       6.723   4.534  14.093  0.00  0.00    +0.000 A 
ATOM     11  C   UNL     1       7.295   4.492  12.819  0.00  0.00    +0.000 A 
ATOM     12  C   UNL     1       6.599   3.923  11.745  0.00  0.00    +0.000 A 
ATOM     13  C   UNL     1       5.339   3.353  11.935  0.00  0.00    +0.000 A 
ATOM     14  C   UNL     1       4.749   3.419  13.192  0.00  0.00    +0.000 A 
ATOM     15  C   UNL     1       5.446   3.984  14.265  0.00  0.00    +0.000 A 
BRANCH  13  16
ATOM     16  O   UNL     1       4.762   2.829  10.819  0.00  0.00    +0.000 OA
BRANCH  16  17
ATOM     17  C   UNL     1       3.505   3.332  10.385  0.00  0.00    +0.000 C 
ATOM     18  F   UNL     1       3.327   4.656  10.581  0.00  0.00    +0.000 F 
ATOM     19  F   UNL     1       3.353   3.066   9.070  0.00  0.00    +0.000 F 
ATOM     20  F   UNL     1       2.528   2.683  11.059  0.00  0.00    +0.000 F 
ENDBRANCH  16  17
ENDBRANCH  13  16
ENDBRANCH   7  10
BRANCH   1  21
ATOM     21  S   UNL     1       3.640   7.124  17.694  0.00  0.00    +0.000 S 
BRANCH  21  26
ATOM     22  F   UNL     1       0.516   2.799  20.236  0.00  0.00    +0.000 F 
ATOM     23  C   UNL     1       1.257   3.758  19.666  0.00  0.00    +0.000 A 
ATOM     24  C   UNL     1       1.622   4.875  20.407  0.00  0.00    +0.000 A 
ATOM     25  C   UNL     1       2.379   5.883  19.807  0.00  0.00    +0.000 A 
ATOM     26  C   UNL     1       2.774   5.771  18.465  0.00  0.00    +0.000 A 
ATOM     27  C   UNL     1       2.396   4.638  17.733  0.00  0.00    +0.000 A 
ATOM     28  C   UNL     1       1.640   3.629  18.336  0.00  0.00    +0.000 A 
ENDBRANCH  21  26
ENDBRANCH   1  21
TORSDOF 5
ENDMDL
MODEL 3
REMARK VINA RESULT:      -8.5      0.707      1.367
REMARK  Name = 
REMARK  5 active torsions:
REMARK  status: ('A' for Active; 'I' for Inactive)
REMARK    1  A    between atoms: C_5  and  S_6
REMARK    2  A    between atoms: S_6  and  C_7
REMARK    3  A    between atoms: N_13  and  C_14
REMARK    4  A    between atoms: C_17  and  O_18
REMARK    5  A    between atoms: O_18  and  C_19
REMARK                            x       y       z     vdW  Elec       q    Type
REMARK                         _______ _______ _______ _____ _____    ______ ____
ROOT
ATOM      1  C   UNL     1       5.106   6.098  17.712  0.00  0.00    +0.000 A 
ATOM      2  N   UNL     1       5.798   6.048  18.838  0.00  0.00    +0.000 NA
ATOM      3  C   UNL     1       7.068   5.731  18.641  0.00  0.00    +0.000 A 
ATOM      4 CL   UNL     1       8.031   5.607  20.046  0.00  0.00    +0.000 Cl
ATOM      5  N   UNL     1       7.681   5.472  17.494  0.00  0.00    +0.000 NA
ATOM      6  C   UNL     1       6.886   5.532  16.437  0.00  0.00    +0.000 A 
ATOM      7  N   UNL     1       7.463   5.254  15.195  0.00  0.00    +0.000 N 
ATOM      8  N   UNL     1       5.598   5.843  16.503  0.00  0.00    +0.000 NA
ATOM      9  H   UNL     1       8.424   4.966  15.331  0.00  0.00    +0.000 HD
ENDROOT
BRANCH   7  10
ATOM     10  C   UNL     1       6.842   4.610  14.108  0.00  0.00    +0.000 A 
ATOM     11  C   UNL     1       5.595   4.007  14.291  0.00  0.00    +0.000 A 
ATOM     12  C   UNL     1       4.945   3.378  13.222  0.00  0.00    +0.000 A 
ATOM     13  C   UNL     1       5.513   3.376  11.946  0.00  0.00    +0.000 A 
ATOM     14  C   UNL     1       6.767   3.946  11.762  0.00  0.00    +0.000 A 
ATOM     15  C   UNL     1       7.413   4.577  12.830  0.00  0.00    +0.000 A 
BRANCH  13  16
ATOM     16  O   UNL     1       4.788   2.737  10.988  0.00  0.00    +0.000 OA
BRANCH  16  17
ATOM     17  C   UNL     1       3.545   3.288  10.572  0.00  0.00    +0.000 C 
ATOM     18  F   UNL     1       3.265   3.125   9.260  0.00  0.00    +0.000 F 
ATOM     19  F   UNL     1       2.550   2.735  11.298  0.00  0.00    +0.000 F 
ATOM     20  F   UNL     1       3.559   4.617  10.825  0.00  0.00    +0.000 F 
ENDBRANCH  16  17
ENDBRANCH  13  16
ENDBRANCH   7  10
BRANCH   1  21
ATOM     21  S   UNL     1       3.357   6.385  17.835  0.00  0.00    +0.000 S 
BRANCH  21  26
ATOM     22  F   UNL     1       1.986   2.105  21.672  0.00  0.00    +0.000 F 
ATOM     23  C   UNL     1       2.258   3.079  20.795  0.00  0.00    +0.000 A 
ATOM     24  C   UNL     1       2.671   2.750  19.510  0.00  0.00    +0.000 A 
ATOM     25  C   UNL     1       2.972   3.766  18.601  0.00  0.00    +0.000 A 
ATOM     26  C   UNL     1       2.856   5.112  18.977  0.00  0.00    +0.000 A 
ATOM     27  C   UNL     1       2.440   5.426  20.278  0.00  0.00    +0.000 A 
ATOM     28  C   UNL     1       2.137   4.407  21.186  0.00  0.00    +0.000 A 
ENDBRANCH  21  26
ENDBRANCH   1  21
TORSDOF 5
ENDMDL
MODEL 4
REMARK VINA RESULT:      -8.2      0.567      1.606
REMARK  Name = 
REMARK  5 active torsions:
REMARK  status: ('A' for Active; 'I' for Inactive)
REMARK    1  A    between atoms: C_5  and  S_6
REMARK    2  A    between atoms: S_6  and  C_7
REMARK    3  A    between atoms: N_13  and  C_14
REMARK    4  A    between atoms: C_17  and  O_18
REMARK    5  A    between atoms: O_18  and  C_19
REMARK                            x       y       z     vdW  Elec       q    Type
REMARK                         _______ _______ _______ _____ _____    ______ ____
ROOT
ATOM      1  C   UNL     1       5.287   6.287  17.802  0.00  0.00    +0.000 A 
ATOM      2  N   UNL     1       6.007   6.174  18.907  0.00  0.00    +0.000 NA
ATOM      3  C   UNL     1       7.230   5.725  18.672  0.00  0.00    +0.000 A 
ATOM      4 CL   UNL     1       8.220   5.513  20.048  0.00  0.00    +0.000 Cl
ATOM      5  N   UNL     1       7.775   5.396  17.509  0.00  0.00    +0.000 NA
ATOM      6  C   UNL     1       6.956   5.530  16.478  0.00  0.00    +0.000 A 
ATOM      7  N   UNL     1       7.461   5.185  15.221  0.00  0.00    +0.000 N 
ATOM      8  N   UNL     1       5.710   5.973  16.581  0.00  0.00    +0.000 NA
ATOM      9  H   UNL     1       8.391   4.800  15.330  0.00  0.00    +0.000 HD
ENDROOT
BRANCH   7  10
ATOM     10  C   UNL     1       6.742   4.601  14.162  0.00  0.00    +0.000 A 
ATOM     11  C   UNL     1       7.334   4.510  12.899  0.00  0.00    +0.000 A 
ATOM     12  C   UNL     1       6.651   3.915  11.833  0.00  0.00    +0.000 A 
ATOM     13  C   UNL     1       5.381   3.364  12.020  0.00  0.00    +0.000 A 
ATOM     14  C   UNL     1       4.771   3.477  13.264  0.00  0.00    +0.000 A 
ATOM     15  C   UNL     1       5.456   4.070  14.329  0.00  0.00    +0.000 A 
BRANCH  13  16
ATOM     16  O   UNL     1       4.817   2.810  10.912  0.00  0.00    +0.000 OA
BRANCH  16  17
ATOM     17  C   UNL     1       3.550   3.279  10.467  0.00  0.00    +0.000 C 
ATOM     18  F   UNL     1       3.295   3.063   9.159  0.00  0.00    +0.000 F 
ATOM     19  F   UNL     1       2.580   2.691  11.199  0.00  0.00    +0.000 F 
ATOM     20  F   UNL     1       3.487   4.613  10.683  0.00  0.00    +0.000 F 
ENDBRANCH  16  17
ENDBRANCH  13  16
ENDBRANCH   7  10
BRANCH   1  21
ATOM     21  S   UNL     1       3.582   6.754  17.977  0.00  0.00    +0.000 S 
BRANCH  21  26
ATOM     22  F   UNL     1       1.369   1.553  19.702  0.00  0.00    +0.000 F 
ATOM     23  C   UNL     1       1.835   2.748  19.317  0.00  0.00    +0.000 A 
ATOM     24  C   UNL     1       1.939   3.040  17.963  0.00  0.00    +0.000 A 
ATOM     25  C   UNL     1       2.443   4.280  17.562  0.00  0.00    +0.000 A 
ATOM     26  C   UNL     1       2.837   5.228  18.518  0.00  0.00    +0.000 A 
ATOM     27  C   UNL     1       2.726   4.915  19.879  0.00  0.00    +0.000 A 
ATOM     28  C   UNL     1       2.220   3.675  20.278  0.00  0.00    +0.000 A 
ENDBRANCH  21  26
ENDBRANCH   1  21
TORSDOF 5
ENDMDL
MODEL 5
REMARK VINA RESULT:      -8.1      1.915      2.393
REMARK  Name = 
REMARK  5 active torsions:
REMARK  status: ('A' for Active; 'I' for Inactive)
REMARK    1  A    between atoms: C_5  and  S_6
REMARK    2  A    between atoms: S_6  and  C_7
REMARK    3  A    between atoms: N_13  and  C_14
REMARK    4  A    between atoms: C_17  and  O_18
REMARK    5  A    between atoms: O_18  and  C_19
REMARK                            x       y       z     vdW  Elec       q    Type
REMARK                         _______ _______ _______ _____ _____    ______ ____
ROOT
ATOM      1  C   UNL     1       5.229   5.169  18.389  0.00  0.00    +0.000 A 
ATOM      2  N   UNL     1       6.068   5.253  19.408  0.00  0.00    +0.000 NA
ATOM      3  C   UNL     1       7.319   5.446  19.022  0.00  0.00    +0.000 A 
ATOM      4 CL   UNL     1       8.480   5.530  20.272  0.00  0.00    +0.000 Cl
ATOM      5  N   UNL     1       7.789   5.558  17.787  0.00  0.00    +0.000 NA
ATOM      6  C   UNL     1       6.862   5.438  16.849  0.00  0.00    +0.000 A 
ATOM      7  N   UNL     1       7.290   5.529  15.522  0.00  0.00    +0.000 N 
ATOM      8  N   UNL     1       5.576   5.246  17.107  0.00  0.00    +0.000 NA
ATOM      9  H   UNL     1       8.301   5.600  15.501  0.00  0.00    +0.000 HD
ENDROOT
BRANCH   7  10
ATOM     10  C   UNL     1       6.764   4.826  14.422  0.00  0.00    +0.000 A 
ATOM     11  C   UNL     1       5.522   4.197  14.541  0.00  0.00    +0.000 A 
ATOM     12  C   UNL     1       4.965   3.509  13.456  0.00  0.00    +0.000 A 
ATOM     13  C   UNL     1       5.621   3.472  12.224  0.00  0.00    +0.000 A 
ATOM     14  C   UNL     1       6.872   4.068  12.106  0.00  0.00    +0.000 A 
ATOM     15  C   UNL     1       7.425   4.757  13.189  0.00  0.00    +0.000 A 
BRANCH  13  16
ATOM     16  O   UNL     1       4.982   2.776  11.245  0.00  0.00    +0.000 OA
BRANCH  16  17
ATOM     17  C   UNL     1       3.710   3.222  10.792  0.00  0.00    +0.000 C 
ATOM     18  F   UNL     1       2.660   2.734  11.488  0.00  0.00    +0.000 F 
ATOM     19  F   UNL     1       3.670   4.571  10.842  0.00  0.00    +0.000 F 
ATOM     20  F   UNL     1       3.557   2.845   9.502  0.00  0.00    +0.000 F 
ENDBRANCH  16  17
ENDBRANCH  13  16
ENDBRANCH   7  10
BRANCH   1  21
ATOM     21  S   UNL     1       3.534   4.780  18.751  0.00  0.00    +0.000 S 
BRANCH  21  26
ATOM     22  F   UNL     1       0.971  10.063  19.420  0.00  0.00    +0.000 F 
ATOM     23  C   UNL     1       1.584   8.880  19.288  0.00  0.00    +0.000 A 
ATOM     24  C   UNL     1       2.213   8.563  18.090  0.00  0.00    +0.000 A 
ATOM     25  C   UNL     1       2.836   7.321  17.946  0.00  0.00    +0.000 A 
ATOM     26  C   UNL     1       2.832   6.399  19.003  0.00  0.00    +0.000 A 
ATOM     27  C   UNL     1       2.192   6.735  20.204  0.00  0.00    +0.000 A 
ATOM     28  C   UNL     1       1.570   7.979  20.346  0.00  0.00    +0.000 A 
ENDBRANCH  21  26
ENDBRANCH   1  21
TORSDOF 5
ENDMDL
MODEL 6
REMARK VINA RESULT:      -7.9      6.132      8.211
REMARK  Name = 
REMARK  5 active torsions:
REMARK  status: ('A' for Active; 'I' for Inactive)
REMARK    1  A    between atoms: C_5  and  S_6
REMARK    2  A    between atoms: S_6  and  C_7
REMARK    3  A    between atoms: N_13  and  C_14
REMARK    4  A    between atoms: C_17  and  O_18
REMARK    5  A    between atoms: O_18  and  C_19
REMARK                            x       y       z     vdW  Elec       q    Type
REMARK                         _______ _______ _______ _____ _____    ______ ____
ROOT
ATOM      1  C   UNL     1       0.246  10.463  20.019  0.00  0.00    +0.000 A 
ATOM      2  N   UNL     1      -0.496  10.969  20.990  0.00  0.00    +0.000 NA
ATOM      3  C   UNL     1      -0.422  10.263  22.107  0.00  0.00    +0.000 A 
ATOM      4 CL   UNL     1      -1.379  10.823  23.406  0.00  0.00    +0.000 Cl
ATOM      5  N   UNL     1       0.281   9.162  22.337  0.00  0.00    +0.000 NA
ATOM      6  C   UNL     1       0.968   8.737  21.289  0.00  0.00    +0.000 A 
ATOM      7  N   UNL     1       1.720   7.571  21.456  0.00  0.00    +0.000 N 
ATOM      8  N   UNL     1       0.980   9.358  20.117  0.00  0.00    +0.000 NA
ATOM      9  H   UNL     1       1.542   7.189  22.377  0.00  0.00    +0.000 HD
ENDROOT
BRANCH   7  10
ATOM     10  C   UNL     1       1.957   6.581  20.484  0.00  0.00    +0.000 A 
ATOM     11  C   UNL     1       1.501   5.279  20.706  0.00  0.00    +0.000 A 
ATOM     12  C   UNL     1       1.705   4.280  19.747  0.00  0.00    +0.000 A 
ATOM     13  C   UNL     1       2.332   4.574  18.534  0.00  0.00    +0.000 A 
ATOM     14  C   UNL     1       2.817   5.859  18.318  0.00  0.00    +0.000 A 
ATOM     15  C   UNL     1       2.610   6.857  19.276  0.00  0.00    +0.000 A 
BRANCH  13  16
ATOM     16  O   UNL     1       2.471   3.524  17.681  0.00  0.00    +0.000 OA
BRANCH  16  17
ATOM     17  C   UNL     1       3.675   2.766  17.701  0.00  0.00    +0.000 C 
ATOM     18  F   UNL     1       4.425   2.926  18.813  0.00  0.00    +0.000 F 
ATOM     19  F   UNL     1       3.376   1.457  17.567  0.00  0.00    +0.000 F 
ATOM     20  F   UNL     1       4.431   3.134  16.641  0.00  0.00    +0.000 F 
ENDBRANCH  16  17
ENDBRANCH  13  16
ENDBRANCH   7  10
BRANCH   1  21
ATOM     21  S   UNL     1       0.144  11.232  18.421  0.00  0.00    +0.000 S 
BRANCH  21  26
ATOM     22  F   UNL     1      -5.585  10.914  17.002  0.00  0.00    +0.000 F 
ATOM     23  C   UNL     1      -4.291  10.955  17.347  0.00  0.00    +0.000 A 
ATOM     24  C   UNL     1      -3.869  11.853  18.319  0.00  0.00    +0.000 A 
ATOM     25  C   UNL     1      -2.517  11.908  18.666  0.00  0.00    +0.000 A 
ATOM     26  C   UNL     1      -1.589  11.060  18.042  0.00  0.00    +0.000 A 
ATOM     27  C   UNL     1      -2.033  10.161  17.063  0.00  0.00    +0.000 A 
ATOM     28  C   UNL     1      -3.387  10.107  16.719  0.00  0.00    +0.000 A 
ENDBRANCH  21  26
ENDBRANCH   1  21
TORSDOF 5
ENDMDL
MODEL 7
REMARK VINA RESULT:      -7.8      1.899      2.382
REMARK  Name = 
REMARK  5 active torsions:
REMARK  status: ('A' for Active; 'I' for Inactive)
REMARK    1  A    between atoms: C_5  and  S_6
REMARK    2  A    between atoms: S_6  and  C_7
REMARK    3  A    between atoms: N_13  and  C_14
REMARK    4  A    between atoms: C_17  and  O_18
REMARK    5  A    between atoms: O_18  and  C_19
REMARK                            x       y       z     vdW  Elec       q    Type
REMARK                         _______ _______ _______ _____ _____    ______ ____
ROOT
ATOM      1  C   UNL     1       5.268   5.134  18.486  0.00  0.00    +0.000 A 
ATOM      2  N   UNL     1       6.119   5.245  19.493  0.00  0.00    +0.000 NA
ATOM      3  C   UNL     1       7.351   5.511  19.091  0.00  0.00    +0.000 A 
ATOM      4 CL   UNL     1       8.526   5.635  20.324  0.00  0.00    +0.000 Cl
ATOM      5  N   UNL     1       7.794   5.668  17.850  0.00  0.00    +0.000 NA
ATOM      6  C   UNL     1       6.860   5.515  16.925  0.00  0.00    +0.000 A 
ATOM      7  N   UNL     1       7.260   5.651  15.594  0.00  0.00    +0.000 N 
ATOM      8  N   UNL     1       5.589   5.251  17.201  0.00  0.00    +0.000 NA
ATOM      9  H   UNL     1       8.265   5.776  15.558  0.00  0.00    +0.000 HD
ENDROOT
BRANCH   7  10
ATOM     10  C   UNL     1       6.754   4.940  14.490  0.00  0.00    +0.000 A 
ATOM     11  C   UNL     1       5.521   4.291  14.600  0.00  0.00    +0.000 A 
ATOM     12  C   UNL     1       4.983   3.594  13.511  0.00  0.00    +0.000 A 
ATOM     13  C   UNL     1       5.649   3.567  12.284  0.00  0.00    +0.000 A 
ATOM     14  C   UNL     1       6.891   4.184  12.175  0.00  0.00    +0.000 A 
ATOM     15  C   UNL     1       7.425   4.882  13.262  0.00  0.00    +0.000 A 
BRANCH  13  16
ATOM     16  O   UNL     1       5.029   2.861  11.300  0.00  0.00    +0.000 OA
BRANCH  16  17
ATOM     17  C   UNL     1       3.734   3.261  10.868  0.00  0.00    +0.000 C 
ATOM     18  F   UNL     1       3.592   4.589  10.664  0.00  0.00    +0.000 F 
ATOM     19  F   UNL     1       3.431   2.614   9.722  0.00  0.00    +0.000 F 
ATOM     20  F   UNL     1       2.835   2.891  11.808  0.00  0.00    +0.000 F 
ENDBRANCH  16  17
ENDBRANCH  13  16
ENDBRANCH   7  10
BRANCH   1  21
ATOM     21  S   UNL     1       3.602   4.650  18.868  0.00  0.00    +0.000 S 
BRANCH  21  26
ATOM     22  F   UNL     1       1.125   9.977  19.512  0.00  0.00    +0.000 F 
ATOM     23  C   UNL     1       1.654   8.757  19.347  0.00  0.00    +0.000 A 
ATOM     24  C   UNL     1       1.612   7.844  20.393  0.00  0.00    +0.000 A 
ATOM     25  C   UNL     1       2.180   6.579  20.227  0.00  0.00    +0.000 A 
ATOM     26  C   UNL     1       2.786   6.227  19.012  0.00  0.00    +0.000 A 
ATOM     27  C   UNL     1       2.819   7.162  17.967  0.00  0.00    +0.000 A 
ATOM     28  C   UNL     1       2.249   8.427  18.135  0.00  0.00    +0.000 A 
ENDBRANCH  21  26
ENDBRANCH   1  21
TORSDOF 5
ENDMDL
MODEL 8
REMARK VINA RESULT:      -7.8      6.179      8.267
REMARK  Name = 
REMARK  5 active torsions:
REMARK  status: ('A' for Active; 'I' for Inactive)
REMARK    1  A    between atoms: C_5  and  S_6
REMARK    2  A    between atoms: S_6  and  C_7
REMARK    3  A    between atoms: N_13  and  C_14
REMARK    4  A    between atoms: C_17  and  O_18
REMARK    5  A    between atoms: O_18  and  C_19
REMARK                            x       y       z     vdW  Elec       q    Type
REMARK                         _______ _______ _______ _____ _____    ______ ____
ROOT
ATOM      1  C   UNL     1       0.175  10.599  20.001  0.00  0.00    +0.000 A 
ATOM      2  N   UNL     1      -0.554  11.076  20.997  0.00  0.00    +0.000 NA
ATOM      3  C   UNL     1      -0.421  10.368  22.108  0.00  0.00    +0.000 A 
ATOM      4 CL   UNL     1      -1.356  10.889  23.439  0.00  0.00    +0.000 Cl
ATOM      5  N   UNL     1       0.326   9.291  22.310  0.00  0.00    +0.000 NA
ATOM      6  C   UNL     1       0.995   8.894  21.239  0.00  0.00    +0.000 A 
ATOM      7  N   UNL     1       1.790   7.754  21.377  0.00  0.00    +0.000 N 
ATOM      8  N   UNL     1       0.948   9.519  20.070  0.00  0.00    +0.000 NA
ATOM      9  H   UNL     1       1.654   7.361  22.301  0.00  0.00    +0.000 HD
ENDROOT
BRANCH   7  10
ATOM     10  C   UNL     1       2.031   6.777  20.393  0.00  0.00    +0.000 A 
ATOM     11  C   UNL     1       2.667   7.144  19.204  0.00  0.00    +0.000 A 
ATOM     12  C   UNL     1       2.939   6.189  18.217  0.00  0.00    +0.000 A 
ATOM     13  C   UNL     1       2.616   4.845  18.419  0.00  0.00    +0.000 A 
ATOM     14  C   UNL     1       1.955   4.476  19.585  0.00  0.00    +0.000 A 
ATOM     15  C   UNL     1       1.687   5.431  20.571  0.00  0.00    +0.000 A 
BRANCH  13  16
ATOM     16  O   UNL     1       2.930   4.010  17.392  0.00  0.00    +0.000 OA
BRANCH  16  17
ATOM     17  C   UNL     1       4.057   3.151  17.513  0.00  0.00    +0.000 C 
ATOM     18  F   UNL     1       4.827   3.380  18.599  0.00  0.00    +0.000 F 
ATOM     19  F   UNL     1       3.634   1.869  17.548  0.00  0.00    +0.000 F 
ATOM     20  F   UNL     1       4.835   3.306  16.418  0.00  0.00    +0.000 F 
ENDBRANCH  16  17
ENDBRANCH  13  16
ENDBRANCH   7  10
BRANCH   1  21
ATOM     21  S   UNL     1      -0.004  11.371  18.411  0.00  0.00    +0.000 S 
BRANCH  21  26
ATOM     22  F   UNL     1      -5.816  10.624  17.648  0.00  0.00    +0.000 F 
ATOM     23  C   UNL     1      -4.499  10.820  17.792  0.00  0.00    +0.000 A 
ATOM     24  C   UNL     1      -3.605   9.937  17.201  0.00  0.00    +0.000 A 
ATOM     25  C   UNL     1      -2.232  10.132  17.367  0.00  0.00    +0.000 A 
ATOM     26  C   UNL     1      -1.755  11.214  18.121  0.00  0.00    +0.000 A 
ATOM     27  C   UNL     1      -2.672  12.094  18.711  0.00  0.00    +0.000 A 
ATOM     28  C   UNL     1      -4.045  11.898  18.543  0.00  0.00    +0.000 A 
ENDBRANCH  21  26
ENDBRANCH   1  21
TORSDOF 5
ENDMDL
MODEL 9
REMARK VINA RESULT:      -7.7      6.014      8.303
REMARK  Name = 
REMARK  5 active torsions:
REMARK  status: ('A' for Active; 'I' for Inactive)
REMARK    1  A    between atoms: C_5  and  S_6
REMARK    2  A    between atoms: S_6  and  C_7
REMARK    3  A    between atoms: N_13  and  C_14
REMARK    4  A    between atoms: C_17  and  O_18
REMARK    5  A    between atoms: O_18  and  C_19
REMARK                            x       y       z     vdW  Elec       q    Type
REMARK                         _______ _______ _______ _____ _____    ______ ____
ROOT
ATOM      1  C   UNL     1       0.272  10.361  19.935  0.00  0.00    +0.000 A 
ATOM      2  N   UNL     1      -0.454  10.906  20.898  0.00  0.00    +0.000 NA
ATOM      3  C   UNL     1      -0.379  10.232  22.034  0.00  0.00    +0.000 A 
ATOM      4 CL   UNL     1      -1.315  10.844  23.325  0.00  0.00    +0.000 Cl
ATOM      5  N   UNL     1       0.311   9.129  22.290  0.00  0.00    +0.000 NA
ATOM      6  C   UNL     1       0.982   8.663  21.248  0.00  0.00    +0.000 A 
ATOM      7  N   UNL     1       1.718   7.492  21.443  0.00  0.00    +0.000 N 
ATOM      8  N   UNL     1       0.990   9.249  20.058  0.00  0.00    +0.000 NA
ATOM      9  H   UNL     1       1.544   7.139  22.376  0.00  0.00    +0.000 HD
ENDROOT
BRANCH   7  10
ATOM     10  C   UNL     1       1.933   6.471  20.498  0.00  0.00    +0.000 A 
ATOM     11  C   UNL     1       1.396   5.201  20.728  0.00  0.00    +0.000 A 
ATOM     12  C   UNL     1       1.575   4.173  19.796  0.00  0.00    +0.000 A 
ATOM     13  C   UNL     1       2.260   4.406  18.601  0.00  0.00    +0.000 A 
ATOM     14  C   UNL     1       2.824   5.657  18.378  0.00  0.00    +0.000 A 
ATOM     15  C   UNL     1       2.641   6.684  19.309  0.00  0.00    +0.000 A 
BRANCH  13  16
ATOM     16  O   UNL     1       2.368   3.332  17.772  0.00  0.00    +0.000 OA
BRANCH  16  17
ATOM     17  C   UNL     1       3.176   2.230  18.165  0.00  0.00    +0.000 C 
ATOM     18  F   UNL     1       3.692   1.515  17.142  0.00  0.00    +0.000 F 
ATOM     19  F   UNL     1       4.192   2.677  18.934  0.00  0.00    +0.000 F 
ATOM     20  F   UNL     1       2.424   1.391  18.913  0.00  0.00    +0.000 F 
ENDBRANCH  16  17
ENDBRANCH  13  16
ENDBRANCH   7  10
BRANCH   1  21
ATOM     21  S   UNL     1       0.164  11.084  18.316  0.00  0.00    +0.000 S 
BRANCH  21  26
ATOM     22  F   UNL     1      -5.675  10.699  17.489  0.00  0.00    +0.000 F 
ATOM     23  C   UNL     1      -4.351  10.815  17.648  0.00  0.00    +0.000 A 
ATOM     24  C   UNL     1      -3.503   9.905  17.030  0.00  0.00    +0.000 A 
ATOM     25  C   UNL     1      -2.123  10.014  17.211  0.00  0.00    +0.000 A 
ATOM     26  C   UNL     1      -1.591  11.038  18.009  0.00  0.00    +0.000 A 
ATOM     27  C   UNL     1      -2.461  11.947  18.627  0.00  0.00    +0.000 A 
ATOM     28  C   UNL     1      -3.842  11.836  18.442  0.00  0.00    +0.000 A 
ENDBRANCH  21  26
ENDBRANCH   1  21
TORSDOF 5
ENDMDL
