MODEL 1
REMARK VINA RESULT:      -9.1      0.000      0.000
REMARK  Name = 
REMARK  7 active torsions:
REMARK  status: ('A' for Active; 'I' for Inactive)
REMARK    1  A    between atoms: C_1  and  C_2
REMARK    2  A    between atoms: C_4  and  C_5
REMARK    3  A    between atoms: C_5  and  O_6
REMARK    4  A    between atoms: O_6  and  C_7
REMARK    5  A    between atoms: C_10  and  C_11
REMARK    6  A    between atoms: N_13  and  C_14
REMARK    7  A    between atoms: C_14  and  C_15
REMARK                            x       y       z     vdW  Elec       q    Type
REMARK                         _______ _______ _______ _____ _____    ______ ____
ROOT
ATOM      1  C   UNL     1       1.669   8.242  19.564  0.00  0.00    +0.000 A 
ATOM      2  C   UNL     1       2.275   8.371  18.324  0.00  0.00    +0.000 A 
ATOM      3  C   UNL     1       3.081   7.381  17.802  0.00  0.00    +0.000 A 
ATOM      4  C   UNL     1       3.349   6.216  18.555  0.00  0.00    +0.000 A 
ATOM      5  C   UNL     1       2.728   6.073  19.793  0.00  0.00    +0.000 A 
ATOM      6  C   UNL     1       1.893   7.077  20.317  0.00  0.00    +0.000 A 
ENDROOT
BRANCH   4   7
ATOM      7  C   UNL     1       4.308   5.220  17.976  0.00  0.00    +0.000 C 
ATOM      8  O   UNL     1       3.902   4.240  17.356  0.00  0.00    +0.000 OA
ATOM      9  N   UNL     1       5.651   5.462  18.151  0.00  0.00    +0.000 N 
ATOM     10  H   UNL     1       5.975   6.288  18.651  0.00  0.00    +0.000 HD
BRANCH   9  11
ATOM     11  C   UNL     1       6.672   4.587  17.612  0.00  0.00    +0.000 C 
BRANCH  11  12
ATOM     12  C   UNL     1       6.834   4.691  16.108  0.00  0.00    +0.000 A 
ATOM     13  N   UNL     1       7.571   5.596  15.507  0.00  0.00    +0.000 NA
ATOM     14  N   UNL     1       7.424   5.307  14.173  0.00  0.00    +0.000 N 
ATOM     15  C   UNL     1       6.581   4.222  14.012  0.00  0.00    +0.000 A 
ATOM     16  S   UNL     1       6.107   3.534  12.591  0.00  0.00    +0.000 S 
ATOM     17  N   UNL     1       6.217   3.838  15.264  0.00  0.00    +0.000 N 
ATOM     18  H   UNL     1       7.890   5.839  13.447  0.00  0.00    +0.000 HD
ATOM     19  H   UNL     1       5.614   3.050  15.459  0.00  0.00    +0.000 HD
ENDBRANCH  11  12
ENDBRANCH   9  11
ENDBRANCH   4   7
BRANCH   1  20
ATOM     20  O   UNL     1       0.858   9.234  20.055  0.00  0.00    +0.000 OA
BRANCH  20  21
ATOM     21  C   UNL     1       0.716  10.356  19.149  0.00  0.00    +0.000 C 
BRANCH  21  25
ATOM     22  C   UNL     1      -2.324  13.392  21.731  0.00  0.00    +0.000 C 
ATOM     23  C   UNL     1      -2.059  12.503  20.556  0.00  0.00    +0.000 A 
ATOM     24  C   UNL     1      -0.841  11.878  20.410  0.00  0.00    +0.000 A 
ATOM     25  C   UNL     1      -0.622  11.037  19.314  0.00  0.00    +0.000 A 
ATOM     26  C   UNL     1      -1.666  10.857  18.369  0.00  0.00    +0.000 A 
ATOM     27  C   UNL     1      -1.565  10.040  17.214  0.00  0.00    +0.000 A 
ATOM     28  C   UNL     1      -2.632   9.913  16.323  0.00  0.00    +0.000 A 
ATOM     29  C   UNL     1      -3.813  10.595  16.570  0.00  0.00    +0.000 A 
ATOM     30  C   UNL     1      -3.920  11.401  17.704  0.00  0.00    +0.000 A 
ATOM     31  C   UNL     1      -2.874  11.546  18.606  0.00  0.00    +0.000 A 
ATOM     32  N   UNL     1      -3.066  12.344  19.668  0.00  0.00    +0.000 NA
ENDBRANCH  21  25
ENDBRANCH  20  21
ENDBRANCH   1  20
TORSDOF 6
ENDMDL
MODEL 2
REMARK VINA RESULT:      -9.0      1.254      1.753
REMARK  Name = 
REMARK  7 active torsions:
REMARK  status: ('A' for Active; 'I' for Inactive)
REMARK    1  A    between atoms: C_1  and  C_2
REMARK    2  A    between atoms: C_4  and  C_5
REMARK    3  A    between atoms: C_5  and  O_6
REMARK    4  A    between atoms: O_6  and  C_7
REMARK    5  A    between atoms: C_10  and  C_11
REMARK    6  A    between atoms: N_13  and  C_14
REMARK    7  A    between atoms: C_14  and  C_15
REMARK                            x       y       z     vdW  Elec       q    Type
REMARK                         _______ _______ _______ _____ _____    ______ ____
ROOT
ATOM      1  C   UNL     1       1.052   9.215  19.904  0.00  0.00    +0.000 A 
ATOM      2  C   UNL     1       1.361   8.180  20.772  0.00  0.00    +0.000 A 
ATOM      3  C   UNL     1       2.094   7.083  20.365  0.00  0.00    +0.000 A 
ATOM      4  C   UNL     1       2.508   6.969  19.020  0.00  0.00    +0.000 A 
ATOM      5  C   UNL     1       2.215   8.015  18.148  0.00  0.00    +0.000 A 
ATOM      6  C   UNL     1       1.482   9.140  18.569  0.00  0.00    +0.000 A 
ENDROOT
BRANCH   4   7
ATOM      7  C   UNL     1       3.216   5.711  18.615  0.00  0.00    +0.000 C 
ATOM      8  O   UNL     1       2.880   5.096  17.606  0.00  0.00    +0.000 OA
ATOM      9  N   UNL     1       4.262   5.294  19.404  0.00  0.00    +0.000 N 
ATOM     10  H   UNL     1       4.543   5.823  20.227  0.00  0.00    +0.000 HD
BRANCH   9  11
ATOM     11  C   UNL     1       5.040   4.110  19.097  0.00  0.00    +0.000 C 
BRANCH  11  12
ATOM     12  C   UNL     1       6.024   4.305  17.960  0.00  0.00    +0.000 A 
ATOM     13  N   UNL     1       7.307   4.528  18.126  0.00  0.00    +0.000 NA
ATOM     14  N   UNL     1       7.791   4.632  16.846  0.00  0.00    +0.000 N 
ATOM     15  C   UNL     1       6.762   4.471  15.934  0.00  0.00    +0.000 A 
ATOM     16  S   UNL     1       6.874   4.532  14.291  0.00  0.00    +0.000 S 
ATOM     17  N   UNL     1       5.638   4.258  16.668  0.00  0.00    +0.000 N 
ATOM     18  H   UNL     1       8.771   4.798  16.647  0.00  0.00    +0.000 HD
ATOM     19  H   UNL     1       4.727   4.087  16.265  0.00  0.00    +0.000 HD
ENDBRANCH  11  12
ENDBRANCH   9  11
ENDBRANCH   4   7
BRANCH   1  20
ATOM     20  O   UNL     1       0.336  10.303  20.336  0.00  0.00    +0.000 OA
BRANCH  20  21
ATOM     21  C   UNL     1       0.034  11.245  19.278  0.00  0.00    +0.000 C 
BRANCH  21  25
ATOM     22  C   UNL     1      -4.036  13.350  21.311  0.00  0.00    +0.000 C 
ATOM     23  C   UNL     1      -3.377  12.588  20.203  0.00  0.00    +0.000 A 
ATOM     24  C   UNL     1      -2.032  12.293  20.258  0.00  0.00    +0.000 A 
ATOM     25  C   UNL     1      -1.441  11.564  19.222  0.00  0.00    +0.000 A 
ATOM     26  C   UNL     1      -2.247  11.152  18.127  0.00  0.00    +0.000 A 
ATOM     27  C   UNL     1      -1.765  10.418  17.014  0.00  0.00    +0.000 A 
ATOM     28  C   UNL     1      -2.613  10.050  15.968  0.00  0.00    +0.000 A 
ATOM     29  C   UNL     1      -3.952  10.407  16.018  0.00  0.00    +0.000 A 
ATOM     30  C   UNL     1      -4.433  11.130  17.110  0.00  0.00    +0.000 A 
ATOM     31  C   UNL     1      -3.612  11.509  18.163  0.00  0.00    +0.000 A 
ATOM     32  N   UNL     1      -4.161  12.205  19.171  0.00  0.00    +0.000 NA
ENDBRANCH  21  25
ENDBRANCH  20  21
ENDBRANCH   1  20
TORSDOF 6
ENDMDL
MODEL 3
REMARK VINA RESULT:      -8.8      4.416     10.496
REMARK  Name = 
REMARK  7 active torsions:
REMARK  status: ('A' for Active; 'I' for Inactive)
REMARK    1  A    between atoms: C_1  and  C_2
REMARK    2  A    between atoms: C_4  and  C_5
REMARK    3  A    between atoms: C_5  and  O_6
REMARK    4  A    between atoms: O_6  and  C_7
REMARK    5  A    between atoms: C_10  and  C_11
REMARK    6  A    between atoms: N_13  and  C_14
REMARK    7  A    between atoms: C_14  and  C_15
REMARK                            x       y       z     vdW  Elec       q    Type
REMARK                         _______ _______ _______ _____ _____    ______ ____
ROOT
ATOM      1  C   UNL     1       1.880   8.530  19.164  0.00  0.00    +0.000 A 
ATOM      2  C   UNL     1       1.755   7.952  20.418  0.00  0.00    +0.000 A 
ATOM      3  C   UNL     1       1.032   8.554  21.427  0.00  0.00    +0.000 A 
ATOM      4  C   UNL     1       0.435   9.817  21.213  0.00  0.00    +0.000 A 
ATOM      5  C   UNL     1       0.544  10.394  19.950  0.00  0.00    +0.000 A 
ATOM      6  C   UNL     1       1.268   9.770  18.917  0.00  0.00    +0.000 A 
ENDROOT
BRANCH   4   7
ATOM      7  C   UNL     1      -0.254  10.465  22.376  0.00  0.00    +0.000 C 
ATOM      8  O   UNL     1      -0.042  10.087  23.525  0.00  0.00    +0.000 OA
ATOM      9  N   UNL     1      -1.109  11.507  22.102  0.00  0.00    +0.000 N 
ATOM     10  H   UNL     1      -1.262  11.824  21.146  0.00  0.00    +0.000 HD
BRANCH   9  11
ATOM     11  C   UNL     1      -1.809  12.230  23.145  0.00  0.00    +0.000 C 
BRANCH  11  12
ATOM     12  C   UNL     1      -3.294  12.391  22.886  0.00  0.00    +0.000 A 
ATOM     13  N   UNL     1      -4.222  12.249  23.805  0.00  0.00    +0.000 NA
ATOM     14  N   UNL     1      -5.392  12.487  23.129  0.00  0.00    +0.000 N 
ATOM     15  C   UNL     1      -5.126  12.762  21.799  0.00  0.00    +0.000 A 
ATOM     16  S   UNL     1      -6.223  13.093  20.614  0.00  0.00    +0.000 S 
ATOM     17  N   UNL     1      -3.775  12.701  21.664  0.00  0.00    +0.000 N 
ATOM     18  H   UNL     1      -6.298  12.458  23.583  0.00  0.00    +0.000 HD
ATOM     19  H   UNL     1      -3.287  12.879  20.797  0.00  0.00    +0.000 HD
ENDBRANCH  11  12
ENDBRANCH   9  11
ENDBRANCH   4   7
BRANCH   1  20
ATOM     20  O   UNL     1       2.591   7.904  18.171  0.00  0.00    +0.000 OA
BRANCH  20  21
ATOM     21  C   UNL     1       2.143   6.550  17.914  0.00  0.00    +0.000 C 
BRANCH  21  25
ATOM     22  C   UNL     1       6.782   4.655  17.873  0.00  0.00    +0.000 C 
ATOM     23  C   UNL     1       5.373   4.644  18.379  0.00  0.00    +0.000 A 
ATOM     24  C   UNL     1       4.459   5.571  17.929  0.00  0.00    +0.000 A 
ATOM     25  C   UNL     1       3.144   5.531  18.402  0.00  0.00    +0.000 A 
ATOM     26  C   UNL     1       2.786   4.534  19.347  0.00  0.00    +0.000 A 
ATOM     27  C   UNL     1       1.491   4.394  19.908  0.00  0.00    +0.000 A 
ATOM     28  C   UNL     1       1.209   3.393  20.838  0.00  0.00    +0.000 A 
ATOM     29  C   UNL     1       2.211   2.516  21.222  0.00  0.00    +0.000 A 
ATOM     30  C   UNL     1       3.489   2.647  20.675  0.00  0.00    +0.000 A 
ATOM     31  C   UNL     1       3.796   3.635  19.749  0.00  0.00    +0.000 A 
ATOM     32  N   UNL     1       5.052   3.687  19.278  0.00  0.00    +0.000 NA
ENDBRANCH  21  25
ENDBRANCH  20  21
ENDBRANCH   1  20
TORSDOF 6
ENDMDL
MODEL 4
REMARK VINA RESULT:      -8.8      1.339      2.890
REMARK  Name = 
REMARK  7 active torsions:
REMARK  status: ('A' for Active; 'I' for Inactive)
REMARK    1  A    between atoms: C_1  and  C_2
REMARK    2  A    between atoms: C_4  and  C_5
REMARK    3  A    between atoms: C_5  and  O_6
REMARK    4  A    between atoms: O_6  and  C_7
REMARK    5  A    between atoms: C_10  and  C_11
REMARK    6  A    between atoms: N_13  and  C_14
REMARK    7  A    between atoms: C_14  and  C_15
REMARK                            x       y       z     vdW  Elec       q    Type
REMARK                         _______ _______ _______ _____ _____    ______ ____
ROOT
ATOM      1  C   UNL     1       1.102   9.287  19.720  0.00  0.00    +0.000 A 
ATOM      2  C   UNL     1       1.259   8.255  20.632  0.00  0.00    +0.000 A 
ATOM      3  C   UNL     1       1.988   7.122  20.330  0.00  0.00    +0.000 A 
ATOM      4  C   UNL     1       2.557   6.969  19.046  0.00  0.00    +0.000 A 
ATOM      5  C   UNL     1       2.416   8.010  18.132  0.00  0.00    +0.000 A 
ATOM      6  C   UNL     1       1.687   9.172  18.448  0.00  0.00    +0.000 A 
ENDROOT
BRANCH   4   7
ATOM      7  C   UNL     1       3.254   5.676  18.745  0.00  0.00    +0.000 C 
ATOM      8  O   UNL     1       2.796   4.891  17.919  0.00  0.00    +0.000 OA
ATOM      9  N   UNL     1       4.429   5.423  19.413  0.00  0.00    +0.000 N 
ATOM     10  H   UNL     1       4.808   6.091  20.081  0.00  0.00    +0.000 HD
BRANCH   9  11
ATOM     11  C   UNL     1       5.207   4.222  19.183  0.00  0.00    +0.000 C 
BRANCH  11  12
ATOM     12  C   UNL     1       6.077   4.285  17.943  0.00  0.00    +0.000 A 
ATOM     13  N   UNL     1       7.372   4.498  17.961  0.00  0.00    +0.000 NA
ATOM     14  N   UNL     1       7.729   4.467  16.636  0.00  0.00    +0.000 N 
ATOM     15  C   UNL     1       6.614   4.240  15.849  0.00  0.00    +0.000 A 
ATOM     16  S   UNL     1       6.564   4.139  14.204  0.00  0.00    +0.000 S 
ATOM     17  N   UNL     1       5.565   4.121  16.704  0.00  0.00    +0.000 N 
ATOM     18  H   UNL     1       8.687   4.594  16.328  0.00  0.00    +0.000 HD
ATOM     19  H   UNL     1       4.617   3.930  16.410  0.00  0.00    +0.000 HD
ENDBRANCH  11  12
ENDBRANCH   9  11
ENDBRANCH   4   7
BRANCH   1  20
ATOM     20  O   UNL     1       0.386  10.410  20.049  0.00  0.00    +0.000 OA
BRANCH  20  21
ATOM     21  C   UNL     1       0.168  11.299  18.926  0.00  0.00    +0.000 C 
BRANCH  21  25
ATOM     22  C   UNL     1      -3.122   9.744  15.479  0.00  0.00    +0.000 C 
ATOM     23  C   UNL     1      -2.814  10.450  16.763  0.00  0.00    +0.000 A 
ATOM     24  C   UNL     1      -1.518  10.533  17.224  0.00  0.00    +0.000 A 
ATOM     25  C   UNL     1      -1.251  11.213  18.416  0.00  0.00    +0.000 A 
ATOM     26  C   UNL     1      -2.331  11.795  19.130  0.00  0.00    +0.000 A 
ATOM     27  C   UNL     1      -2.192  12.500  20.352  0.00  0.00    +0.000 A 
ATOM     28  C   UNL     1      -3.300  13.044  21.005  0.00  0.00    +0.000 A 
ATOM     29  C   UNL     1      -4.561  12.894  20.448  0.00  0.00    +0.000 A 
ATOM     30  C   UNL     1      -4.706  12.201  19.246  0.00  0.00    +0.000 A 
ATOM     31  C   UNL     1      -3.621  11.650  18.577  0.00  0.00    +0.000 A 
ATOM     32  N   UNL     1      -3.856  10.998  17.427  0.00  0.00    +0.000 NA
ENDBRANCH  21  25
ENDBRANCH  20  21
ENDBRANCH   1  20
TORSDOF 6
ENDMDL
MODEL 5
REMARK VINA RESULT:      -8.8      2.811      9.338
REMARK  Name = 
REMARK  7 active torsions:
REMARK  status: ('A' for Active; 'I' for Inactive)
REMARK    1  A    between atoms: C_1  and  C_2
REMARK    2  A    between atoms: C_4  and  C_5
REMARK    3  A    between atoms: C_5  and  O_6
REMARK    4  A    between atoms: O_6  and  C_7
REMARK    5  A    between atoms: C_10  and  C_11
REMARK    6  A    between atoms: N_13  and  C_14
REMARK    7  A    between atoms: C_14  and  C_15
REMARK                            x       y       z     vdW  Elec       q    Type
REMARK                         _______ _______ _______ _____ _____    ______ ____
ROOT
ATOM      1  C   UNL     1       3.085   5.345  18.898  0.00  0.00    +0.000 A 
ATOM      2  C   UNL     1       3.012   6.439  18.049  0.00  0.00    +0.000 A 
ATOM      3  C   UNL     1       2.426   7.625  18.441  0.00  0.00    +0.000 A 
ATOM      4  C   UNL     1       1.837   7.735  19.720  0.00  0.00    +0.000 A 
ATOM      5  C   UNL     1       1.924   6.645  20.583  0.00  0.00    +0.000 A 
ATOM      6  C   UNL     1       2.536   5.442  20.188  0.00  0.00    +0.000 A 
ENDROOT
BRANCH   4   7
ATOM      7  C   UNL     1       1.131   9.015  20.053  0.00  0.00    +0.000 C 
ATOM      8  O   UNL     1       0.889   9.316  21.219  0.00  0.00    +0.000 OA
ATOM      9  N   UNL     1       0.791   9.839  19.005  0.00  0.00    +0.000 N 
ATOM     10  H   UNL     1       1.015   9.587  18.045  0.00  0.00    +0.000 HD
BRANCH   9  11
ATOM     11  C   UNL     1       0.134  11.115  19.206  0.00  0.00    +0.000 C 
BRANCH  11  12
ATOM     12  C   UNL     1      -1.111  11.300  18.361  0.00  0.00    +0.000 A 
ATOM     13  N   UNL     1      -2.106  12.096  18.679  0.00  0.00    +0.000 NA
ATOM     14  N   UNL     1      -2.991  11.947  17.641  0.00  0.00    +0.000 N 
ATOM     15  C   UNL     1      -2.493  11.044  16.718  0.00  0.00    +0.000 A 
ATOM     16  S   UNL     1      -3.219  10.548  15.323  0.00  0.00    +0.000 S 
ATOM     17  N   UNL     1      -1.285  10.644  17.195  0.00  0.00    +0.000 N 
ATOM     18  H   UNL     1      -3.869  12.452  17.598  0.00  0.00    +0.000 HD
ATOM     19  H   UNL     1      -0.677   9.994  16.715  0.00  0.00    +0.000 HD
ENDBRANCH  11  12
ENDBRANCH   9  11
ENDBRANCH   4   7
BRANCH   1  20
ATOM     20  O   UNL     1       3.687   4.181  18.491  0.00  0.00    +0.000 OA
BRANCH  20  21
ATOM     21  C   UNL     1       5.083   4.096  18.873  0.00  0.00    +0.000 C 
BRANCH  21  25
ATOM     22  C   UNL     1       8.210   7.966  18.272  0.00  0.00    +0.000 C 
ATOM     23  C   UNL     1       7.461   6.796  17.715  0.00  0.00    +0.000 A 
ATOM     24  C   UNL     1       6.660   6.024  18.528  0.00  0.00    +0.000 A 
ATOM     25  C   UNL     1       5.956   4.946  17.982  0.00  0.00    +0.000 A 
ATOM     26  C   UNL     1       6.093   4.669  16.596  0.00  0.00    +0.000 A 
ATOM     27  C   UNL     1       5.440   3.603  15.927  0.00  0.00    +0.000 A 
ATOM     28  C   UNL     1       5.625   3.384  14.561  0.00  0.00    +0.000 A 
ATOM     29  C   UNL     1       6.461   4.224  13.842  0.00  0.00    +0.000 A 
ATOM     30  C   UNL     1       7.107   5.276  14.494  0.00  0.00    +0.000 A 
ATOM     31  C   UNL     1       6.942   5.515  15.851  0.00  0.00    +0.000 A 
ATOM     32  N   UNL     1       7.605   6.549  16.394  0.00  0.00    +0.000 NA
ENDBRANCH  21  25
ENDBRANCH  20  21
ENDBRANCH   1  20
TORSDOF 6
ENDMDL
MODEL 6
REMARK VINA RESULT:      -8.7      1.108      2.539
REMARK  Name = 
REMARK  7 active torsions:
REMARK  status: ('A' for Active; 'I' for Inactive)
REMARK    1  A    between atoms: C_1  and  C_2
REMARK    2  A    between atoms: C_4  and  C_5
REMARK    3  A    between atoms: C_5  and  O_6
REMARK    4  A    between atoms: O_6  and  C_7
REMARK    5  A    between atoms: C_10  and  C_11
REMARK    6  A    between atoms: N_13  and  C_14
REMARK    7  A    between atoms: C_14  and  C_15
REMARK                            x       y       z     vdW  Elec       q    Type
REMARK                         _______ _______ _______ _____ _____    ______ ____
ROOT
ATOM      1  C   UNL     1       1.226   9.096  19.564  0.00  0.00    +0.000 A 
ATOM      2  C   UNL     1       1.755   8.990  18.287  0.00  0.00    +0.000 A 
ATOM      3  C   UNL     1       2.478   7.884  17.890  0.00  0.00    +0.000 A 
ATOM      4  C   UNL     1       2.739   6.842  18.807  0.00  0.00    +0.000 A 
ATOM      5  C   UNL     1       2.195   6.936  20.086  0.00  0.00    +0.000 A 
ATOM      6  C   UNL     1       1.443   8.057  20.484  0.00  0.00    +0.000 A 
ENDROOT
BRANCH   4   7
ATOM      7  C   UNL     1       3.612   5.713  18.347  0.00  0.00    +0.000 C 
ATOM      8  O   UNL     1       3.224   4.927  17.487  0.00  0.00    +0.000 OA
ATOM      9  N   UNL     1       4.862   5.611  18.911  0.00  0.00    +0.000 N 
ATOM     10  H   UNL     1       5.180   6.281  19.609  0.00  0.00    +0.000 HD
BRANCH   9  11
ATOM     11  C   UNL     1       5.805   4.581  18.524  0.00  0.00    +0.000 C 
BRANCH  11  12
ATOM     12  C   UNL     1       6.333   4.736  17.111  0.00  0.00    +0.000 A 
ATOM     13  N   UNL     1       7.316   5.540  16.776  0.00  0.00    +0.000 NA
ATOM     14  N   UNL     1       7.451   5.348  15.424  0.00  0.00    +0.000 N 
ATOM     15  C   UNL     1       6.522   4.423  14.980  0.00  0.00    +0.000 A 
ATOM     16  S   UNL     1       6.306   3.896  13.433  0.00  0.00    +0.000 S 
ATOM     17  N   UNL     1       5.818   4.038  16.077  0.00  0.00    +0.000 N 
ATOM     18  H   UNL     1       8.148   5.835  14.872  0.00  0.00    +0.000 HD
ATOM     19  H   UNL     1       5.079   3.349  16.059  0.00  0.00    +0.000 HD
ENDBRANCH  11  12
ENDBRANCH   9  11
ENDBRANCH   4   7
BRANCH   1  20
ATOM     20  O   UNL     1       0.496  10.199  19.931  0.00  0.00    +0.000 OA
BRANCH  20  21
ATOM     21  C   UNL     1       0.283  11.131  18.842  0.00  0.00    +0.000 C 
BRANCH  21  25
ATOM     22  C   UNL     1      -3.135   9.748  15.447  0.00  0.00    +0.000 C 
ATOM     23  C   UNL     1      -2.773  10.425  16.732  0.00  0.00    +0.000 A 
ATOM     24  C   UNL     1      -1.466  10.452  17.167  0.00  0.00    +0.000 A 
ATOM     25  C   UNL     1      -1.148  11.107  18.361  0.00  0.00    +0.000 A 
ATOM     26  C   UNL     1      -2.190  11.723  19.103  0.00  0.00    +0.000 A 
ATOM     27  C   UNL     1      -1.998  12.407  20.330  0.00  0.00    +0.000 A 
ATOM     28  C   UNL     1      -3.070  12.986  21.011  0.00  0.00    +0.000 A 
ATOM     29  C   UNL     1      -4.347  12.892  20.480  0.00  0.00    +0.000 A 
ATOM     30  C   UNL     1      -4.543  12.220  19.273  0.00  0.00    +0.000 A 
ATOM     31  C   UNL     1      -3.495  11.634  18.575  0.00  0.00    +0.000 A 
ATOM     32  N   UNL     1      -3.779  11.006  17.423  0.00  0.00    +0.000 NA
ENDBRANCH  21  25
ENDBRANCH  20  21
ENDBRANCH   1  20
TORSDOF 6
ENDMDL
MODEL 7
REMARK VINA RESULT:      -8.7      0.890      1.013
REMARK  Name = 
REMARK  7 active torsions:
REMARK  status: ('A' for Active; 'I' for Inactive)
REMARK    1  A    between atoms: C_1  and  C_2
REMARK    2  A    between atoms: C_4  and  C_5
REMARK    3  A    between atoms: C_5  and  O_6
REMARK    4  A    between atoms: O_6  and  C_7
REMARK    5  A    between atoms: C_10  and  C_11
REMARK    6  A    between atoms: N_13  and  C_14
REMARK    7  A    between atoms: C_14  and  C_15
REMARK                            x       y       z     vdW  Elec       q    Type
REMARK                         _______ _______ _______ _____ _____    ______ ____
ROOT
ATOM      1  C   UNL     1       1.157   8.874  20.050  0.00  0.00    +0.000 A 
ATOM      2  C   UNL     1       1.672   8.871  18.763  0.00  0.00    +0.000 A 
ATOM      3  C   UNL     1       2.392   7.802  18.271  0.00  0.00    +0.000 A 
ATOM      4  C   UNL     1       2.666   6.691  19.100  0.00  0.00    +0.000 A 
ATOM      5  C   UNL     1       2.135   6.682  20.387  0.00  0.00    +0.000 A 
ATOM      6  C   UNL     1       1.387   7.766  20.882  0.00  0.00    +0.000 A 
ENDROOT
BRANCH   4   7
ATOM      7  C   UNL     1       3.534   5.604  18.541  0.00  0.00    +0.000 C 
ATOM      8  O   UNL     1       3.187   4.967  17.550  0.00  0.00    +0.000 OA
ATOM      9  N   UNL     1       4.735   5.371  19.170  0.00  0.00    +0.000 N 
ATOM     10  H   UNL     1       5.020   5.920  19.979  0.00  0.00    +0.000 HD
BRANCH   9  11
ATOM     11  C   UNL     1       5.672   4.368  18.703  0.00  0.00    +0.000 C 
BRANCH  11  12
ATOM     12  C   UNL     1       6.197   4.627  17.305  0.00  0.00    +0.000 A 
ATOM     13  N   UNL     1       7.075   5.558  17.008  0.00  0.00    +0.000 NA
ATOM     14  N   UNL     1       7.253   5.422  15.654  0.00  0.00    +0.000 N 
ATOM     15  C   UNL     1       6.456   4.400  15.170  0.00  0.00    +0.000 A 
ATOM     16  S   UNL     1       6.333   3.892  13.607  0.00  0.00    +0.000 S 
ATOM     17  N   UNL     1       5.791   3.899  16.244  0.00  0.00    +0.000 N 
ATOM     18  H   UNL     1       7.892   6.008  15.128  0.00  0.00    +0.000 HD
ATOM     19  H   UNL     1       5.145   3.123  16.195  0.00  0.00    +0.000 HD
ENDBRANCH  11  12
ENDBRANCH   9  11
ENDBRANCH   4   7
BRANCH   1  20
ATOM     20  O   UNL     1       0.430   9.942  20.512  0.00  0.00    +0.000 OA
BRANCH  20  21
ATOM     21  C   UNL     1       0.237  10.976  19.514  0.00  0.00    +0.000 C 
BRANCH  21  25
ATOM     22  C   UNL     1      -3.624  13.499  21.478  0.00  0.00    +0.000 C 
ATOM     23  C   UNL     1      -3.038  12.646  20.395  0.00  0.00    +0.000 A 
ATOM     24  C   UNL     1      -1.725  12.234  20.460  0.00  0.00    +0.000 A 
ATOM     25  C   UNL     1      -1.204  11.422  19.448  0.00  0.00    +0.000 A 
ATOM     26  C   UNL     1      -2.046  11.049  18.367  0.00  0.00    +0.000 A 
ATOM     27  C   UNL     1      -1.635  10.240  17.278  0.00  0.00    +0.000 A 
ATOM     28  C   UNL     1      -2.515   9.915  16.245  0.00  0.00    +0.000 A 
ATOM     29  C   UNL     1      -3.817  10.391  16.282  0.00  0.00    +0.000 A 
ATOM     30  C   UNL     1      -4.229  11.188  17.351  0.00  0.00    +0.000 A 
ATOM     31  C   UNL     1      -3.374  11.527  18.391  0.00  0.00    +0.000 A 
ATOM     32  N   UNL     1      -3.856  12.301  19.376  0.00  0.00    +0.000 NA
ENDBRANCH  21  25
ENDBRANCH  20  21
ENDBRANCH   1  20
TORSDOF 6
ENDMDL
MODEL 8
REMARK VINA RESULT:      -8.7      4.901     11.030
REMARK  Name = 
REMARK  7 active torsions:
REMARK  status: ('A' for Active; 'I' for Inactive)
REMARK    1  A    between atoms: C_1  and  C_2
REMARK    2  A    between atoms: C_4  and  C_5
REMARK    3  A    between atoms: C_5  and  O_6
REMARK    4  A    between atoms: O_6  and  C_7
REMARK    5  A    between atoms: C_10  and  C_11
REMARK    6  A    between atoms: N_13  and  C_14
REMARK    7  A    between atoms: C_14  and  C_15
REMARK                            x       y       z     vdW  Elec       q    Type
REMARK                         _______ _______ _______ _____ _____    ______ ____
ROOT
ATOM      1  C   UNL     1       1.201   8.329  20.759  0.00  0.00    +0.000 A 
ATOM      2  C   UNL     1       0.777   8.521  22.065  0.00  0.00    +0.000 A 
ATOM      3  C   UNL     1       0.160   9.688  22.465  0.00  0.00    +0.000 A 
ATOM      4  C   UNL     1      -0.013  10.748  21.548  0.00  0.00    +0.000 A 
ATOM      5  C   UNL     1       0.395  10.553  20.231  0.00  0.00    +0.000 A 
ATOM      6  C   UNL     1       1.009   9.356  19.820  0.00  0.00    +0.000 A 
ENDROOT
BRANCH   4   7
ATOM      7  C   UNL     1      -0.602  12.026  22.065  0.00  0.00    +0.000 C 
ATOM      8  O   UNL     1       0.065  13.057  22.103  0.00  0.00    +0.000 OA
ATOM      9  N   UNL     1      -1.916  11.997  22.469  0.00  0.00    +0.000 N 
ATOM     10  H   UNL     1      -2.464  11.140  22.414  0.00  0.00    +0.000 HD
BRANCH   9  11
ATOM     11  C   UNL     1      -2.602  13.176  22.958  0.00  0.00    +0.000 C 
BRANCH  11  12
ATOM     12  C   UNL     1      -3.948  12.881  23.592  0.00  0.00    +0.000 A 
ATOM     13  N   UNL     1      -4.150  11.947  24.492  0.00  0.00    +0.000 NA
ATOM     14  N   UNL     1      -5.489  12.046  24.774  0.00  0.00    +0.000 N 
ATOM     15  C   UNL     1      -6.062  13.051  24.014  0.00  0.00    +0.000 A 
ATOM     16  S   UNL     1      -7.644  13.514  24.010  0.00  0.00    +0.000 S 
ATOM     17  N   UNL     1      -5.057  13.577  23.266  0.00  0.00    +0.000 N 
ATOM     18  H   UNL     1      -5.948  11.449  25.453  0.00  0.00    +0.000 HD
ATOM     19  H   UNL     1      -5.177  14.349  22.624  0.00  0.00    +0.000 HD
ENDBRANCH  11  12
ENDBRANCH   9  11
ENDBRANCH   4   7
BRANCH   1  20
ATOM     20  O   UNL     1       1.798   7.153  20.381  0.00  0.00    +0.000 OA
BRANCH  20  21
ATOM     21  C   UNL     1       2.455   7.234  19.092  0.00  0.00    +0.000 C 
BRANCH  21  25
ATOM     22  C   UNL     1       1.182   2.402  18.703  0.00  0.00    +0.000 C 
ATOM     23  C   UNL     1       2.050   3.558  18.313  0.00  0.00    +0.000 A 
ATOM     24  C   UNL     1       1.847   4.805  18.862  0.00  0.00    +0.000 A 
ATOM     25  C   UNL     1       2.681   5.865  18.496  0.00  0.00    +0.000 A 
ATOM     26  C   UNL     1       3.718   5.629  17.556  0.00  0.00    +0.000 A 
ATOM     27  C   UNL     1       4.622   6.621  17.099  0.00  0.00    +0.000 A 
ATOM     28  C   UNL     1       5.616   6.320  16.167  0.00  0.00    +0.000 A 
ATOM     29  C   UNL     1       5.725   5.027  15.678  0.00  0.00    +0.000 A 
ATOM     30  C   UNL     1       4.839   4.045  16.123  0.00  0.00    +0.000 A 
ATOM     31  C   UNL     1       3.840   4.318  17.048  0.00  0.00    +0.000 A 
ATOM     32  N   UNL     1       3.032   3.311  17.417  0.00  0.00    +0.000 NA
ENDBRANCH  21  25
ENDBRANCH  20  21
ENDBRANCH   1  20
TORSDOF 6
ENDMDL
MODEL 9
REMARK VINA RESULT:      -8.7      5.356      8.109
REMARK  Name = 
REMARK  7 active torsions:
REMARK  status: ('A' for Active; 'I' for Inactive)
REMARK    1  A    between atoms: C_1  and  C_2
REMARK    2  A    between atoms: C_4  and  C_5
REMARK    3  A    between atoms: C_5  and  O_6
REMARK    4  A    between atoms: O_6  and  C_7
REMARK    5  A    between atoms: C_10  and  C_11
REMARK    6  A    between atoms: N_13  and  C_14
REMARK    7  A    between atoms: C_14  and  C_15
REMARK                            x       y       z     vdW  Elec       q    Type
REMARK                         _______ _______ _______ _____ _____    ______ ____
ROOT
ATOM      1  C   UNL     1       6.594   5.460  17.743  0.00  0.00    +0.000 A 
ATOM      2  C   UNL     1       6.325   6.529  16.902  0.00  0.00    +0.000 A 
ATOM      3  C   UNL     1       6.965   7.743  17.043  0.00  0.00    +0.000 A 
ATOM      4  C   UNL     1       7.887   7.939  18.095  0.00  0.00    +0.000 A 
ATOM      5  C   UNL     1       8.173   6.863  18.931  0.00  0.00    +0.000 A 
ATOM      6  C   UNL     1       7.532   5.620  18.776  0.00  0.00    +0.000 A 
ENDROOT
BRANCH   4   7
ATOM      7  C   UNL     1       8.477   9.308  18.256  0.00  0.00    +0.000 C 
ATOM      8  O   UNL     1       8.199  10.210  17.470  0.00  0.00    +0.000 OA
ATOM      9  N   UNL     1       9.318   9.511  19.325  0.00  0.00    +0.000 N 
ATOM     10  H   UNL     1       9.525   8.760  19.981  0.00  0.00    +0.000 HD
BRANCH   9  11
ATOM     11  C   UNL     1       9.923  10.799  19.601  0.00  0.00    +0.000 C 
BRANCH  11  12
ATOM     12  C   UNL     1       9.252  11.561  20.726  0.00  0.00    +0.000 A 
ATOM     13  N   UNL     1       8.873  12.816  20.642  0.00  0.00    +0.000 NA
ATOM     14  N   UNL     1       8.321  13.075  21.872  0.00  0.00    +0.000 N 
ATOM     15  C   UNL     1       8.393  11.948  22.672  0.00  0.00    +0.000 A 
ATOM     16  S   UNL     1       7.868  11.800  24.228  0.00  0.00    +0.000 S 
ATOM     17  N   UNL     1       8.988  10.987  21.918  0.00  0.00    +0.000 N 
ATOM     18  H   UNL     1       7.925  13.977  22.111  0.00  0.00    +0.000 HD
ATOM     19  H   UNL     1       9.156  10.043  22.239  0.00  0.00    +0.000 HD
ENDBRANCH  11  12
ENDBRANCH   9  11
ENDBRANCH   4   7
BRANCH   1  20
ATOM     20  O   UNL     1       5.956   4.257  17.572  0.00  0.00    +0.000 OA
BRANCH  20  21
ATOM     21  C   UNL     1       4.554   4.396  17.231  0.00  0.00    +0.000 C 
BRANCH  21  25
ATOM     22  C   UNL     1       2.523   2.764  21.513  0.00  0.00    +0.000 C 
ATOM     23  C   UNL     1       2.752   3.851  20.509  0.00  0.00    +0.000 A 
ATOM     24  C   UNL     1       3.521   3.621  19.389  0.00  0.00    +0.000 A 
ATOM     25  C   UNL     1       3.707   4.645  18.456  0.00  0.00    +0.000 A 
ATOM     26  C   UNL     1       3.100   5.907  18.693  0.00  0.00    +0.000 A 
ATOM     27  C   UNL     1       3.221   7.024  17.829  0.00  0.00    +0.000 A 
ATOM     28  C   UNL     1       2.602   8.239  18.127  0.00  0.00    +0.000 A 
ATOM     29  C   UNL     1       1.854   8.357  19.288  0.00  0.00    +0.000 A 
ATOM     30  C   UNL     1       1.731   7.262  20.144  0.00  0.00    +0.000 A 
ATOM     31  C   UNL     1       2.337   6.042  19.872  0.00  0.00    +0.000 A 
ATOM     32  N   UNL     1       2.166   5.044  20.753  0.00  0.00    +0.000 NA
ENDBRANCH  21  25
ENDBRANCH  20  21
ENDBRANCH   1  20
TORSDOF 6
ENDMDL
