MODEL 1
REMARK VINA RESULT:      -7.9      0.000      0.000
REMARK  Name = 
REMARK  12 active torsions:
REMARK  status: ('A' for Active; 'I' for Inactive)
REMARK    1  A    between atoms: C_1  and  O_2
REMARK    2  A    between atoms: O_2  and  C_3
REMARK    3  A    between atoms: C_6  and  C_7
REMARK    4  A    between atoms: C_7  and  N_8
REMARK    5  A    between atoms: N_11  and  C_12
REMARK    6  A    between atoms: C_12  and  C_13
REMARK    7  A    between atoms: C_16  and  C_17
REMARK    8  A    between atoms: C_17  and  N_19
REMARK    9  A    between atoms: C_27  and  O_28
REMARK   10  A    between atoms: O_28  and  C_29
REMARK   11  A    between atoms: C_30  and  O_31
REMARK   12  A    between atoms: O_31  and  C_32
REMARK                            x       y       z     vdW  Elec       q    Type
REMARK                         _______ _______ _______ _____ _____    ______ ____
ROOT
ATOM      1  N   UNL     1       1.650   4.325  18.463  0.00  0.00    +0.000 NA
ATOM      2  C   UNL     1       1.156   4.390  19.846  0.00  0.00    +0.000 C 
ATOM      3  C   UNL     1       2.029   5.202  20.843  0.00  0.00    +0.000 C 
ATOM      4  N   UNL     1       2.275   6.642  20.480  0.00  0.00    +0.000 NA
ATOM      5  C   UNL     1       2.811   6.583  19.093  0.00  0.00    +0.000 C 
ATOM      6  C   UNL     1       2.074   5.681  18.039  0.00  0.00    +0.000 C 
ENDROOT
BRANCH   1   7
ATOM      7  C   UNL     1       2.628   3.224  18.208  0.00  0.00    +0.000 C 
BRANCH   7  11
ATOM      8  C   UNL     1       6.432   4.392  16.345  0.00  0.00    +0.000 A 
ATOM      9  C   UNL     1       5.244   4.375  15.627  0.00  0.00    +0.000 A 
ATOM     10  C   UNL     1       4.039   4.072  16.258  0.00  0.00    +0.000 A 
ATOM     11  C   UNL     1       3.990   3.668  17.607  0.00  0.00    +0.000 A 
ATOM     12  C   UNL     1       5.190   3.779  18.375  0.00  0.00    +0.000 A 
ATOM     13  C   UNL     1       6.381   4.240  17.742  0.00  0.00    +0.000 A 
BRANCH   8  15
ATOM     14  C   UNL     1       7.320   4.946  14.212  0.00  0.00    +0.000 C 
ATOM     15  O   UNL     1       7.540   4.730  15.607  0.00  0.00    +0.000 OA
ENDBRANCH   8  15
BRANCH  12  16
ATOM     16  O   UNL     1       5.024   3.514  19.712  0.00  0.00    +0.000 OA
ATOM     17  C   UNL     1       4.731   2.208  20.200  0.00  0.00    +0.000 C 
ENDBRANCH  12  16
BRANCH  13  18
ATOM     18  O   UNL     1       7.469   4.636  18.487  0.00  0.00    +0.000 OA
ATOM     19  C   UNL     1       7.450   6.044  18.764  0.00  0.00    +0.000 C 
ENDBRANCH  13  18
ENDBRANCH   7  11
ENDBRANCH   1   7
BRANCH   4  20
ATOM     20  C   UNL     1       1.001   7.378  20.697  0.00  0.00    +0.000 C 
BRANCH  20  21
ATOM     21  C   UNL     1       0.760   8.680  21.498  0.00  0.00    +0.000 A 
ATOM     22  C   UNL     1       0.847   9.866  20.738  0.00  0.00    +0.000 A 
ATOM     23  C   UNL     1       0.205  11.063  21.109  0.00  0.00    +0.000 A 
ATOM     24  C   UNL     1      -0.538  11.156  22.289  0.00  0.00    +0.000 A 
ATOM     25  C   UNL     1      -0.556  10.025  23.122  0.00  0.00    +0.000 A 
ATOM     26  C   UNL     1       0.080   8.796  22.728  0.00  0.00    +0.000 A 
BRANCH  24  27
ATOM     27  C   UNL     1      -1.343  12.427  22.495  0.00  0.00    +0.000 C 
ATOM     28  O   UNL     1      -0.835  13.305  23.200  0.00  0.00    +0.000 OA
BRANCH  27  29
ATOM     29  N   UNL     1      -2.573  12.549  21.862  0.00  0.00    +0.000 NA
ATOM     30  C   UNL     1      -3.641  12.426  22.581  0.00  0.00    +0.000 C 
ATOM     31  N   UNL     1      -3.812  12.165  23.893  0.00  0.00    +0.000 N 
ATOM     32  N   UNL     1      -4.883  12.519  22.015  0.00  0.00    +0.000 N 
ATOM     33  H   UNL     1      -2.939  12.259  24.419  0.00  0.00    +0.000 HD
ATOM     34  H   UNL     1      -4.561  12.685  24.335  0.00  0.00    +0.000 HD
ATOM     35  H   UNL     1      -4.842  12.443  21.008  0.00  0.00    +0.000 HD
ATOM     36  H   UNL     1      -5.557  11.868  22.409  0.00  0.00    +0.000 HD
ENDBRANCH  27  29
ENDBRANCH  24  27
ENDBRANCH  20  21
ENDBRANCH   4  20
TORSDOF 9
ENDMDL
MODEL 2
REMARK VINA RESULT:      -7.7      3.606     10.736
REMARK  Name = 
REMARK  12 active torsions:
REMARK  status: ('A' for Active; 'I' for Inactive)
REMARK    1  A    between atoms: C_1  and  O_2
REMARK    2  A    between atoms: O_2  and  C_3
REMARK    3  A    between atoms: C_6  and  C_7
REMARK    4  A    between atoms: C_7  and  N_8
REMARK    5  A    between atoms: N_11  and  C_12
REMARK    6  A    between atoms: C_12  and  C_13
REMARK    7  A    between atoms: C_16  and  C_17
REMARK    8  A    between atoms: C_17  and  N_19
REMARK    9  A    between atoms: C_27  and  O_28
REMARK   10  A    between atoms: O_28  and  C_29
REMARK   11  A    between atoms: C_30  and  O_31
REMARK   12  A    between atoms: O_31  and  C_32
REMARK                            x       y       z     vdW  Elec       q    Type
REMARK                         _______ _______ _______ _____ _____    ______ ____
ROOT
ATOM      1  N   UNL     1      -0.272  11.188  18.748  0.00  0.00    +0.000 NA
ATOM      2  C   UNL     1       1.089  11.429  19.251  0.00  0.00    +0.000 C 
ATOM      3  C   UNL     1       1.232  11.555  20.794  0.00  0.00    +0.000 C 
ATOM      4  N   UNL     1       0.754  10.376  21.598  0.00  0.00    +0.000 NA
ATOM      5  C   UNL     1      -0.637  10.148  21.121  0.00  0.00    +0.000 C 
ATOM      6  C   UNL     1      -0.910  10.135  19.574  0.00  0.00    +0.000 C 
ENDROOT
BRANCH   1   7
ATOM      7  C   UNL     1      -1.078  12.427  18.531  0.00  0.00    +0.000 C 
BRANCH   7  11
ATOM      8  C   UNL     1      -5.233  12.148  19.931  0.00  0.00    +0.000 A 
ATOM      9  C   UNL     1      -4.255  12.792  20.677  0.00  0.00    +0.000 A 
ATOM     10  C   UNL     1      -2.961  12.931  20.178  0.00  0.00    +0.000 A 
ATOM     11  C   UNL     1      -2.567  12.338  18.962  0.00  0.00    +0.000 A 
ATOM     12  C   UNL     1      -3.589  11.761  18.146  0.00  0.00    +0.000 A 
ATOM     13  C   UNL     1      -4.937  11.767  18.610  0.00  0.00    +0.000 A 
BRANCH   8  15
ATOM     14  C   UNL     1      -6.520  12.531  21.891  0.00  0.00    +0.000 C 
ATOM     15  O   UNL     1      -6.469  12.102  20.530  0.00  0.00    +0.000 OA
ENDBRANCH   8  15
BRANCH  12  16
ATOM     16  O   UNL     1      -3.151  11.342  16.914  0.00  0.00    +0.000 OA
ATOM     17  C   UNL     1      -3.026   9.964  16.577  0.00  0.00    +0.000 C 
ENDBRANCH  12  16
BRANCH  13  18
ATOM     18  O   UNL     1      -5.980  11.494  17.755  0.00  0.00    +0.000 OA
ATOM     19  C   UNL     1      -6.513  12.684  17.156  0.00  0.00    +0.000 C 
ENDBRANCH  13  18
ENDBRANCH   7  11
ENDBRANCH   1   7
BRANCH   4  20
ATOM     20  C   UNL     1       1.739   9.279  21.403  0.00  0.00    +0.000 C 
BRANCH  20  21
ATOM     21  C   UNL     1       1.573   7.958  20.615  0.00  0.00    +0.000 A 
ATOM     22  C   UNL     1       2.134   7.966  19.320  0.00  0.00    +0.000 A 
ATOM     23  C   UNL     1       2.533   6.794  18.650  0.00  0.00    +0.000 A 
ATOM     24  C   UNL     1       2.361   5.532  19.223  0.00  0.00    +0.000 A 
ATOM     25  C   UNL     1       1.707   5.480  20.466  0.00  0.00    +0.000 A 
ATOM     26  C   UNL     1       1.323   6.681  21.160  0.00  0.00    +0.000 A 
BRANCH  24  27
ATOM     27  C   UNL     1       2.997   4.357  18.502  0.00  0.00    +0.000 C 
ATOM     28  O   UNL     1       3.194   4.482  17.289  0.00  0.00    +0.000 OA
BRANCH  27  29
ATOM     29  N   UNL     1       3.352   3.234  19.238  0.00  0.00    +0.000 NA
ATOM     30  C   UNL     1       4.611   2.979  19.390  0.00  0.00    +0.000 C 
ATOM     31  N   UNL     1       5.713   3.605  18.930  0.00  0.00    +0.000 N 
ATOM     32  N   UNL     1       5.025   1.879  20.090  0.00  0.00    +0.000 N 
ATOM     33  H   UNL     1       5.496   4.532  18.552  0.00  0.00    +0.000 HD
ATOM     34  H   UNL     1       6.479   3.653  19.591  0.00  0.00    +0.000 HD
ATOM     35  H   UNL     1       4.271   1.220  20.232  0.00  0.00    +0.000 HD
ATOM     36  H   UNL     1       5.842   1.427  19.689  0.00  0.00    +0.000 HD
ENDBRANCH  27  29
ENDBRANCH  24  27
ENDBRANCH  20  21
ENDBRANCH   4  20
TORSDOF 9
ENDMDL
MODEL 3
REMARK VINA RESULT:      -7.7      4.081     11.580
REMARK  Name = 
REMARK  12 active torsions:
REMARK  status: ('A' for Active; 'I' for Inactive)
REMARK    1  A    between atoms: C_1  and  O_2
REMARK    2  A    between atoms: O_2  and  C_3
REMARK    3  A    between atoms: C_6  and  C_7
REMARK    4  A    between atoms: C_7  and  N_8
REMARK    5  A    between atoms: N_11  and  C_12
REMARK    6  A    between atoms: C_12  and  C_13
REMARK    7  A    between atoms: C_16  and  C_17
REMARK    8  A    between atoms: C_17  and  N_19
REMARK    9  A    between atoms: C_27  and  O_28
REMARK   10  A    between atoms: O_28  and  C_29
REMARK   11  A    between atoms: C_30  and  O_31
REMARK   12  A    between atoms: O_31  and  C_32
REMARK                            x       y       z     vdW  Elec       q    Type
REMARK                         _______ _______ _______ _____ _____    ______ ____
ROOT
ATOM      1  N   UNL     1      -1.133  10.091  18.798  0.00  0.00    +0.000 NA
ATOM      2  C   UNL     1      -0.255   9.477  17.792  0.00  0.00    +0.000 C 
ATOM      3  C   UNL     1       1.265   9.762  17.951  0.00  0.00    +0.000 C 
ATOM      4  N   UNL     1       1.878   9.351  19.263  0.00  0.00    +0.000 NA
ATOM      5  C   UNL     1       1.015   9.999  20.288  0.00  0.00    +0.000 C 
ATOM      6  C   UNL     1      -0.545   9.882  20.143  0.00  0.00    +0.000 C 
ENDROOT
BRANCH   1   7
ATOM      7  C   UNL     1      -1.555  11.489  18.479  0.00  0.00    +0.000 C 
BRANCH   7  11
ATOM      8  C   UNL     1      -5.511  12.611  20.028  0.00  0.00    +0.000 A 
ATOM      9  C   UNL     1      -4.344  13.157  20.545  0.00  0.00    +0.000 A 
ATOM     10  C   UNL     1      -3.106  12.841  19.989  0.00  0.00    +0.000 A 
ATOM     11  C   UNL     1      -2.977  11.883  18.964  0.00  0.00    +0.000 A 
ATOM     12  C   UNL     1      -4.177  11.393  18.362  0.00  0.00    +0.000 A 
ATOM     13  C   UNL     1      -5.437  11.849  18.848  0.00  0.00    +0.000 A 
BRANCH   8  15
ATOM     14  C   UNL     1      -7.494  11.989  21.178  0.00  0.00    +0.000 C 
ATOM     15  O   UNL     1      -6.661  13.024  20.654  0.00  0.00    +0.000 OA
ENDBRANCH   8  15
BRANCH  12  16
ATOM     16  O   UNL     1      -3.965  10.582  17.273  0.00  0.00    +0.000 OA
ATOM     17  C   UNL     1      -3.861  11.095  15.949  0.00  0.00    +0.000 C 
ENDBRANCH  12  16
BRANCH  13  18
ATOM     18  O   UNL     1      -6.591  11.638  18.128  0.00  0.00    +0.000 OA
ATOM     19  C   UNL     1      -6.890  12.736  17.254  0.00  0.00    +0.000 C 
ENDBRANCH  13  18
ENDBRANCH   7  11
ENDBRANCH   1   7
BRANCH   4  20
ATOM     20  C   UNL     1       1.959   7.866  19.268  0.00  0.00    +0.000 C 
BRANCH  20  21
ATOM     21  C   UNL     1       2.608   6.929  18.223  0.00  0.00    +0.000 A 
ATOM     22  C   UNL     1       3.782   7.434  17.623  0.00  0.00    +0.000 A 
ATOM     23  C   UNL     1       4.770   6.607  17.056  0.00  0.00    +0.000 A 
ATOM     24  C   UNL     1       4.627   5.218  17.022  0.00  0.00    +0.000 A 
ATOM     25  C   UNL     1       3.421   4.690  17.513  0.00  0.00    +0.000 A 
ATOM     26  C   UNL     1       2.424   5.535  18.115  0.00  0.00    +0.000 A 
BRANCH  24  27
ATOM     27  C   UNL     1       5.831   4.414  16.564  0.00  0.00    +0.000 C 
ATOM     28  O   UNL     1       6.831   4.439  17.288  0.00  0.00    +0.000 OA
BRANCH  27  29
ATOM     29  N   UNL     1       5.735   3.677  15.391  0.00  0.00    +0.000 NA
ATOM     30  C   UNL     1       6.393   4.090  14.357  0.00  0.00    +0.000 C 
ATOM     31  N   UNL     1       7.180   5.169  14.169  0.00  0.00    +0.000 N 
ATOM     32  N   UNL     1       6.327   3.417  13.168  0.00  0.00    +0.000 N 
ATOM     33  H   UNL     1       7.424   5.622  15.054  0.00  0.00    +0.000 HD
ATOM     34  H   UNL     1       8.006   4.998  13.608  0.00  0.00    +0.000 HD
ATOM     35  H   UNL     1       5.555   2.764  13.149  0.00  0.00    +0.000 HD
ATOM     36  H   UNL     1       6.313   4.029  12.356  0.00  0.00    +0.000 HD
ENDBRANCH  27  29
ENDBRANCH  24  27
ENDBRANCH  20  21
ENDBRANCH   4  20
TORSDOF 9
ENDMDL
MODEL 4
REMARK VINA RESULT:      -7.7      2.019      2.310
REMARK  Name = 
REMARK  12 active torsions:
REMARK  status: ('A' for Active; 'I' for Inactive)
REMARK    1  A    between atoms: C_1  and  O_2
REMARK    2  A    between atoms: O_2  and  C_3
REMARK    3  A    between atoms: C_6  and  C_7
REMARK    4  A    between atoms: C_7  and  N_8
REMARK    5  A    between atoms: N_11  and  C_12
REMARK    6  A    between atoms: C_12  and  C_13
REMARK    7  A    between atoms: C_16  and  C_17
REMARK    8  A    between atoms: C_17  and  N_19
REMARK    9  A    between atoms: C_27  and  O_28
REMARK   10  A    between atoms: O_28  and  C_29
REMARK   11  A    between atoms: C_30  and  O_31
REMARK   12  A    between atoms: O_31  and  C_32
REMARK                            x       y       z     vdW  Elec       q    Type
REMARK                         _______ _______ _______ _____ _____    ______ ____
ROOT
ATOM      1  N   UNL     1       1.619   4.203  18.553  0.00  0.00    +0.000 NA
ATOM      2  C   UNL     1       1.331   4.248  19.995  0.00  0.00    +0.000 C 
ATOM      3  C   UNL     1       2.338   5.052  20.865  0.00  0.00    +0.000 C 
ATOM      4  N   UNL     1       2.525   6.498  20.488  0.00  0.00    +0.000 NA
ATOM      5  C   UNL     1       2.854   6.458  19.037  0.00  0.00    +0.000 C 
ATOM      6  C   UNL     1       1.973   5.565  18.090  0.00  0.00    +0.000 C 
ENDROOT
BRANCH   1   7
ATOM      7  C   UNL     1       2.553   3.109  18.145  0.00  0.00    +0.000 C 
BRANCH   7  11
ATOM      8  C   UNL     1       6.383   4.352  16.388  0.00  0.00    +0.000 A 
ATOM      9  C   UNL     1       5.208   4.352  15.649  0.00  0.00    +0.000 A 
ATOM     10  C   UNL     1       3.993   4.024  16.248  0.00  0.00    +0.000 A 
ATOM     11  C   UNL     1       3.922   3.578  17.583  0.00  0.00    +0.000 A 
ATOM     12  C   UNL     1       5.108   3.671  18.375  0.00  0.00    +0.000 A 
ATOM     13  C   UNL     1       6.308   4.156  17.779  0.00  0.00    +0.000 A 
BRANCH   8  15
ATOM     14  C   UNL     1       7.324   4.894  14.275  0.00  0.00    +0.000 C 
ATOM     15  O   UNL     1       7.502   4.717  15.681  0.00  0.00    +0.000 OA
ENDBRANCH   8  15
BRANCH  12  16
ATOM     16  O   UNL     1       4.920   3.363  19.701  0.00  0.00    +0.000 OA
ATOM     17  C   UNL     1       4.701   2.029  20.151  0.00  0.00    +0.000 C 
ENDBRANCH  12  16
BRANCH  13  18
ATOM     18  O   UNL     1       7.380   4.533  18.555  0.00  0.00    +0.000 OA
ATOM     19  C   UNL     1       7.260   5.885  19.022  0.00  0.00    +0.000 C 
ENDBRANCH  13  18
ENDBRANCH   7  11
ENDBRANCH   1   7
BRANCH   4  20
ATOM     20  C   UNL     1       1.295   7.225  20.898  0.00  0.00    +0.000 C 
BRANCH  20  21
ATOM     21  C   UNL     1       0.931   8.712  20.676  0.00  0.00    +0.000 A 
ATOM     22  C   UNL     1       0.961   9.135  19.330  0.00  0.00    +0.000 A 
ATOM     23  C   UNL     1       0.221  10.234  18.854  0.00  0.00    +0.000 A 
ATOM     24  C   UNL     1      -0.570  11.005  19.710  0.00  0.00    +0.000 A 
ATOM     25  C   UNL     1      -0.538  10.678  21.076  0.00  0.00    +0.000 A 
ATOM     26  C   UNL     1       0.199   9.538  21.554  0.00  0.00    +0.000 A 
BRANCH  24  27
ATOM     27  C   UNL     1      -1.471  12.043  19.063  0.00  0.00    +0.000 C 
ATOM     28  O   UNL     1      -1.910  12.938  19.792  0.00  0.00    +0.000 OA
BRANCH  27  29
ATOM     29  N   UNL     1      -1.723  11.952  17.701  0.00  0.00    +0.000 NA
ATOM     30  C   UNL     1      -2.899  11.568  17.324  0.00  0.00    +0.000 C 
ATOM     31  N   UNL     1      -3.986  11.191  18.027  0.00  0.00    +0.000 N 
ATOM     32  N   UNL     1      -3.205  11.443  15.996  0.00  0.00    +0.000 N 
ATOM     33  H   UNL     1      -3.899  11.427  19.020  0.00  0.00    +0.000 HD
ATOM     34  H   UNL     1      -4.868  11.519  17.651  0.00  0.00    +0.000 HD
ATOM     35  H   UNL     1      -2.374  11.443  15.419  0.00  0.00    +0.000 HD
ATOM     36  H   UNL     1      -3.799  10.644  15.791  0.00  0.00    +0.000 HD
ENDBRANCH  27  29
ENDBRANCH  24  27
ENDBRANCH  20  21
ENDBRANCH   4  20
TORSDOF 9
ENDMDL
MODEL 5
REMARK VINA RESULT:      -7.6      1.851      2.292
REMARK  Name = 
REMARK  12 active torsions:
REMARK  status: ('A' for Active; 'I' for Inactive)
REMARK    1  A    between atoms: C_1  and  O_2
REMARK    2  A    between atoms: O_2  and  C_3
REMARK    3  A    between atoms: C_6  and  C_7
REMARK    4  A    between atoms: C_7  and  N_8
REMARK    5  A    between atoms: N_11  and  C_12
REMARK    6  A    between atoms: C_12  and  C_13
REMARK    7  A    between atoms: C_16  and  C_17
REMARK    8  A    between atoms: C_17  and  N_19
REMARK    9  A    between atoms: C_27  and  O_28
REMARK   10  A    between atoms: O_28  and  C_29
REMARK   11  A    between atoms: C_30  and  O_31
REMARK   12  A    between atoms: O_31  and  C_32
REMARK                            x       y       z     vdW  Elec       q    Type
REMARK                         _______ _______ _______ _____ _____    ______ ____
ROOT
ATOM      1  N   UNL     1       2.453   4.190  17.920  0.00  0.00    +0.000 NA
ATOM      2  C   UNL     1       1.902   3.933  19.259  0.00  0.00    +0.000 C 
ATOM      3  C   UNL     1       2.646   4.612  20.443  0.00  0.00    +0.000 C 
ATOM      4  N   UNL     1       2.754   6.112  20.379  0.00  0.00    +0.000 NA
ATOM      5  C   UNL     1       3.346   6.380  19.040  0.00  0.00    +0.000 C 
ATOM      6  C   UNL     1       2.748   5.637  17.791  0.00  0.00    +0.000 C 
ENDROOT
BRANCH   1   7
ATOM      7  C   UNL     1       3.551   3.260  17.515  0.00  0.00    +0.000 C 
BRANCH   7  11
ATOM      8  C   UNL     1       6.840   4.998  15.178  0.00  0.00    +0.000 A 
ATOM      9  C   UNL     1       5.634   4.647  14.588  0.00  0.00    +0.000 A 
ATOM     10  C   UNL     1       4.580   4.166  15.363  0.00  0.00    +0.000 A 
ATOM     11  C   UNL     1       4.727   3.915  16.741  0.00  0.00    +0.000 A 
ATOM     12  C   UNL     1       5.929   4.365  17.371  0.00  0.00    +0.000 A 
ATOM     13  C   UNL     1       6.934   4.996  16.582  0.00  0.00    +0.000 A 
BRANCH   8  15
ATOM     14  C   UNL     1       7.687   5.010  12.959  0.00  0.00    +0.000 C 
ATOM     15  O   UNL     1       7.784   5.479  14.304  0.00  0.00    +0.000 OA
ENDBRANCH   8  15
BRANCH  12  16
ATOM     16  O   UNL     1       5.932   4.222  18.737  0.00  0.00    +0.000 OA
ATOM     17  C   UNL     1       6.307   5.279  19.614  0.00  0.00    +0.000 C 
ENDBRANCH  12  16
BRANCH  13  18
ATOM     18  O   UNL     1       7.961   5.696  17.173  0.00  0.00    +0.000 OA
ATOM     19  C   UNL     1       7.648   7.088  17.326  0.00  0.00    +0.000 C 
ENDBRANCH  13  18
ENDBRANCH   7  11
ENDBRANCH   1   7
BRANCH   4  20
ATOM     20  C   UNL     1       1.402   6.666  20.659  0.00  0.00    +0.000 C 
BRANCH  20  21
ATOM     21  C   UNL     1       0.995   8.133  20.929  0.00  0.00    +0.000 A 
ATOM     22  C   UNL     1       1.274   9.028  19.874  0.00  0.00    +0.000 A 
ATOM     23  C   UNL     1       0.578  10.238  19.690  0.00  0.00    +0.000 A 
ATOM     24  C   UNL     1      -0.423  10.645  20.577  0.00  0.00    +0.000 A 
ATOM     25  C   UNL     1      -0.652   9.830  21.697  0.00  0.00    +0.000 A 
ATOM     26  C   UNL     1       0.044   8.582  21.869  0.00  0.00    +0.000 A 
BRANCH  24  27
ATOM     27  C   UNL     1      -1.237  11.864  20.180  0.00  0.00    +0.000 C 
ATOM     28  O   UNL     1      -0.836  12.962  20.578  0.00  0.00    +0.000 OA
BRANCH  27  29
ATOM     29  N   UNL     1      -2.354  11.687  19.374  0.00  0.00    +0.000 NA
ATOM     30  C   UNL     1      -2.253  11.990  18.121  0.00  0.00    +0.000 C 
ATOM     31  N   UNL     1      -1.231  12.495  17.401  0.00  0.00    +0.000 N 
ATOM     32  N   UNL     1      -3.322  11.854  17.277  0.00  0.00    +0.000 N 
ATOM     33  H   UNL     1      -0.346  12.457  17.915  0.00  0.00    +0.000 HD
ATOM     34  H   UNL     1      -1.129  12.100  16.473  0.00  0.00    +0.000 HD
ATOM     35  H   UNL     1      -4.188  11.743  17.786  0.00  0.00    +0.000 HD
ATOM     36  H   UNL     1      -3.390  12.597  16.587  0.00  0.00    +0.000 HD
ENDBRANCH  27  29
ENDBRANCH  24  27
ENDBRANCH  20  21
ENDBRANCH   4  20
TORSDOF 9
ENDMDL
MODEL 6
REMARK VINA RESULT:      -7.5      3.021     11.651
REMARK  Name = 
REMARK  12 active torsions:
REMARK  status: ('A' for Active; 'I' for Inactive)
REMARK    1  A    between atoms: C_1  and  O_2
REMARK    2  A    between atoms: O_2  and  C_3
REMARK    3  A    between atoms: C_6  and  C_7
REMARK    4  A    between atoms: C_7  and  N_8
REMARK    5  A    between atoms: N_11  and  C_12
REMARK    6  A    between atoms: C_12  and  C_13
REMARK    7  A    between atoms: C_16  and  C_17
REMARK    8  A    between atoms: C_17  and  N_19
REMARK    9  A    between atoms: C_27  and  O_28
REMARK   10  A    between atoms: O_28  and  C_29
REMARK   11  A    between atoms: C_30  and  O_31
REMARK   12  A    between atoms: O_31  and  C_32
REMARK                            x       y       z     vdW  Elec       q    Type
REMARK                         _______ _______ _______ _____ _____    ______ ____
ROOT
ATOM      1  N   UNL     1      -0.781  11.548  20.084  0.00  0.00    +0.000 NA
ATOM      2  C   UNL     1      -0.951  10.238  19.439  0.00  0.00    +0.000 C 
ATOM      3  C   UNL     1      -0.091   9.989  18.168  0.00  0.00    +0.000 C 
ATOM      4  N   UNL     1       1.399  10.113  18.347  0.00  0.00    +0.000 NA
ATOM      5  C   UNL     1       1.583  11.453  18.968  0.00  0.00    +0.000 C 
ATOM      6  C   UNL     1       0.666  11.854  20.179  0.00  0.00    +0.000 C 
ENDROOT
BRANCH   1   7
ATOM      7  C   UNL     1      -1.643  12.631  19.520  0.00  0.00    +0.000 C 
BRANCH   7  11
ATOM      8  C   UNL     1      -5.579  13.241  21.374  0.00  0.00    +0.000 A 
ATOM      9  C   UNL     1      -5.432  12.523  20.195  0.00  0.00    +0.000 A 
ATOM     10  C   UNL     1      -4.166  12.281  19.666  0.00  0.00    +0.000 A 
ATOM     11  C   UNL     1      -3.005  12.839  20.236  0.00  0.00    +0.000 A 
ATOM     12  C   UNL     1      -3.138  13.493  21.500  0.00  0.00    +0.000 A 
ATOM     13  C   UNL     1      -4.427  13.596  22.099  0.00  0.00    +0.000 A 
BRANCH   8  15
ATOM     14  C   UNL     1      -7.679  12.204  21.772  0.00  0.00    +0.000 C 
ATOM     15  O   UNL     1      -6.878  13.386  21.796  0.00  0.00    +0.000 OA
ENDBRANCH   8  15
BRANCH  12  16
ATOM     16  O   UNL     1      -1.943  13.875  22.060  0.00  0.00    +0.000 OA
ATOM     17  C   UNL     1      -1.323  13.138  23.110  0.00  0.00    +0.000 C 
ENDBRANCH  12  16
BRANCH  13  18
ATOM     18  O   UNL     1      -4.565  13.949  23.423  0.00  0.00    +0.000 OA
ATOM     19  C   UNL     1      -4.651  12.802  24.281  0.00  0.00    +0.000 C 
ENDBRANCH  13  18
ENDBRANCH   7  11
ENDBRANCH   1   7
BRANCH   4  20
ATOM     20  C   UNL     1       1.851   8.926  19.121  0.00  0.00    +0.000 C 
BRANCH  20  21
ATOM     21  C   UNL     1       2.397   7.578  18.593  0.00  0.00    +0.000 A 
ATOM     22  C   UNL     1       3.266   7.684  17.486  0.00  0.00    +0.000 A 
ATOM     23  C   UNL     1       4.229   6.706  17.171  0.00  0.00    +0.000 A 
ATOM     24  C   UNL     1       4.357   5.538  17.928  0.00  0.00    +0.000 A 
ATOM     25  C   UNL     1       3.436   5.351  18.972  0.00  0.00    +0.000 A 
ATOM     26  C   UNL     1       2.470   6.364  19.307  0.00  0.00    +0.000 A 
BRANCH  24  27
ATOM     27  C   UNL     1       5.547   4.647  17.619  0.00  0.00    +0.000 C 
ATOM     28  O   UNL     1       6.431   4.573  18.478  0.00  0.00    +0.000 OA
BRANCH  27  29
ATOM     29  N   UNL     1       5.562   3.944  16.422  0.00  0.00    +0.000 NA
ATOM     30  C   UNL     1       6.414   4.304  15.517  0.00  0.00    +0.000 C 
ATOM     31  N   UNL     1       7.327   5.296  15.490  0.00  0.00    +0.000 N 
ATOM     32  N   UNL     1       6.468   3.663  14.309  0.00  0.00    +0.000 N 
ATOM     33  H   UNL     1       7.473   5.705  16.418  0.00  0.00    +0.000 HD
ATOM     34  H   UNL     1       8.210   5.048  15.059  0.00  0.00    +0.000 HD
ATOM     35  H   UNL     1       5.646   3.096  14.149  0.00  0.00    +0.000 HD
ATOM     36  H   UNL     1       6.646   4.287  13.527  0.00  0.00    +0.000 HD
ENDBRANCH  27  29
ENDBRANCH  24  27
ENDBRANCH  20  21
ENDBRANCH   4  20
TORSDOF 9
ENDMDL
MODEL 7
REMARK VINA RESULT:      -7.4      3.069     11.381
REMARK  Name = 
REMARK  12 active torsions:
REMARK  status: ('A' for Active; 'I' for Inactive)
REMARK    1  A    between atoms: C_1  and  O_2
REMARK    2  A    between atoms: O_2  and  C_3
REMARK    3  A    between atoms: C_6  and  C_7
REMARK    4  A    between atoms: C_7  and  N_8
REMARK    5  A    between atoms: N_11  and  C_12
REMARK    6  A    between atoms: C_12  and  C_13
REMARK    7  A    between atoms: C_16  and  C_17
REMARK    8  A    between atoms: C_17  and  N_19
REMARK    9  A    between atoms: C_27  and  O_28
REMARK   10  A    between atoms: O_28  and  C_29
REMARK   11  A    between atoms: C_30  and  O_31
REMARK   12  A    between atoms: O_31  and  C_32
REMARK                            x       y       z     vdW  Elec       q    Type
REMARK                         _______ _______ _______ _____ _____    ______ ____
ROOT
ATOM      1  N   UNL     1       0.507  12.602  21.559  0.00  0.00    +0.000 NA
ATOM      2  C   UNL     1      -0.311  11.413  21.842  0.00  0.00    +0.000 C 
ATOM      3  C   UNL     1      -0.726  10.563  20.608  0.00  0.00    +0.000 C 
ATOM      4  N   UNL     1       0.402  10.032  19.765  0.00  0.00    +0.000 NA
ATOM      5  C   UNL     1       1.216  11.236  19.443  0.00  0.00    +0.000 C 
ATOM      6  C   UNL     1       1.578  12.232  20.603  0.00  0.00    +0.000 C 
ENDROOT
BRANCH   1   7
ATOM      7  C   UNL     1      -0.280  13.826  21.218  0.00  0.00    +0.000 C 
BRANCH   7  11
ATOM      8  C   UNL     1      -4.609  13.694  21.959  0.00  0.00    +0.000 A 
ATOM      9  C   UNL     1      -4.074  13.403  20.712  0.00  0.00    +0.000 A 
ATOM     10  C   UNL     1      -2.694  13.380  20.520  0.00  0.00    +0.000 A 
ATOM     11  C   UNL     1      -1.798  13.753  21.541  0.00  0.00    +0.000 A 
ATOM     12  C   UNL     1      -2.334  13.956  22.851  0.00  0.00    +0.000 A 
ATOM     13  C   UNL     1      -3.738  13.824  23.056  0.00  0.00    +0.000 A 
BRANCH   8  15
ATOM     14  C   UNL     1      -6.605  12.551  21.364  0.00  0.00    +0.000 C 
ATOM     15  O   UNL     1      -5.981  13.659  22.015  0.00  0.00    +0.000 OA
ENDBRANCH   8  15
BRANCH  12  16
ATOM     16  O   UNL     1      -1.382  14.166  23.818  0.00  0.00    +0.000 OA
ATOM     17  C   UNL     1      -1.211  15.425  24.462  0.00  0.00    +0.000 C 
ENDBRANCH  12  16
BRANCH  13  18
ATOM     18  O   UNL     1      -4.260  13.723  24.326  0.00  0.00    +0.000 OA
ATOM     19  C   UNL     1      -4.335  12.361  24.772  0.00  0.00    +0.000 C 
ENDBRANCH  13  18
ENDBRANCH   7  11
ENDBRANCH   1   7
BRANCH   4  20
ATOM     20  C   UNL     1       1.057   8.942  20.537  0.00  0.00    +0.000 C 
BRANCH  20  21
ATOM     21  C   UNL     1       1.900   7.756  20.012  0.00  0.00    +0.000 A 
ATOM     22  C   UNL     1       1.766   6.562  20.752  0.00  0.00    +0.000 A 
ATOM     23  C   UNL     1       2.019   5.289  20.205  0.00  0.00    +0.000 A 
ATOM     24  C   UNL     1       2.459   5.136  18.888  0.00  0.00    +0.000 A 
ATOM     25  C   UNL     1       2.706   6.310  18.158  0.00  0.00    +0.000 A 
ATOM     26  C   UNL     1       2.422   7.608  18.710  0.00  0.00    +0.000 A 
BRANCH  24  27
ATOM     27  C   UNL     1       2.516   3.719  18.343  0.00  0.00    +0.000 C 
ATOM     28  O   UNL     1       2.098   3.542  17.195  0.00  0.00    +0.000 OA
BRANCH  27  29
ATOM     29  N   UNL     1       3.058   2.719  19.139  0.00  0.00    +0.000 NA
ATOM     30  C   UNL     1       4.344   2.682  19.276  0.00  0.00    +0.000 C 
ATOM     31  N   UNL     1       5.323   3.447  18.752  0.00  0.00    +0.000 N 
ATOM     32  N   UNL     1       4.942   1.711  20.034  0.00  0.00    +0.000 N 
ATOM     33  H   UNL     1       4.953   4.299  18.322  0.00  0.00    +0.000 HD
ATOM     34  H   UNL     1       6.080   3.661  19.390  0.00  0.00    +0.000 HD
ATOM     35  H   UNL     1       4.308   0.949  20.234  0.00  0.00    +0.000 HD
ATOM     36  H   UNL     1       5.816   1.373  19.641  0.00  0.00    +0.000 HD
ENDBRANCH  27  29
ENDBRANCH  24  27
ENDBRANCH  20  21
ENDBRANCH   4  20
TORSDOF 9
ENDMDL
MODEL 8
REMARK VINA RESULT:      -7.4      3.548     11.597
REMARK  Name = 
REMARK  12 active torsions:
REMARK  status: ('A' for Active; 'I' for Inactive)
REMARK    1  A    between atoms: C_1  and  O_2
REMARK    2  A    between atoms: O_2  and  C_3
REMARK    3  A    between atoms: C_6  and  C_7
REMARK    4  A    between atoms: C_7  and  N_8
REMARK    5  A    between atoms: N_11  and  C_12
REMARK    6  A    between atoms: C_12  and  C_13
REMARK    7  A    between atoms: C_16  and  C_17
REMARK    8  A    between atoms: C_17  and  N_19
REMARK    9  A    between atoms: C_27  and  O_28
REMARK   10  A    between atoms: O_28  and  C_29
REMARK   11  A    between atoms: C_30  and  O_31
REMARK   12  A    between atoms: O_31  and  C_32
REMARK                            x       y       z     vdW  Elec       q    Type
REMARK                         _______ _______ _______ _____ _____    ______ ____
ROOT
ATOM      1  N   UNL     1      -1.144  10.249  18.690  0.00  0.00    +0.000 NA
ATOM      2  C   UNL     1      -0.235   9.616  17.723  0.00  0.00    +0.000 C 
ATOM      3  C   UNL     1       1.283   9.854  17.960  0.00  0.00    +0.000 C 
ATOM      4  N   UNL     1       1.817   9.416  19.297  0.00  0.00    +0.000 NA
ATOM      5  C   UNL     1       0.923  10.082  20.284  0.00  0.00    +0.000 C 
ATOM      6  C   UNL     1      -0.630  10.012  20.060  0.00  0.00    +0.000 C 
ENDROOT
BRANCH   1   7
ATOM      7  C   UNL     1      -1.508  11.661  18.362  0.00  0.00    +0.000 C 
BRANCH   7  11
ATOM      8  C   UNL     1      -4.181  13.572  21.279  0.00  0.00    +0.000 A 
ATOM      9  C   UNL     1      -2.828  13.878  21.221  0.00  0.00    +0.000 A 
ATOM     10  C   UNL     1      -2.016  13.313  20.239  0.00  0.00    +0.000 A 
ATOM     11  C   UNL     1      -2.501  12.338  19.346  0.00  0.00    +0.000 A 
ATOM     12  C   UNL     1      -3.909  12.093  19.335  0.00  0.00    +0.000 A 
ATOM     13  C   UNL     1      -4.746  12.798  20.249  0.00  0.00    +0.000 A 
BRANCH   8  15
ATOM     14  C   UNL     1      -4.413  13.970  23.609  0.00  0.00    +0.000 C 
ATOM     15  O   UNL     1      -4.869  14.216  22.278  0.00  0.00    +0.000 OA
ENDBRANCH   8  15
BRANCH  12  16
ATOM     16  O   UNL     1      -4.322  11.245  18.337  0.00  0.00    +0.000 OA
ATOM     17  C   UNL     1      -4.788  11.718  17.077  0.00  0.00    +0.000 C 
ENDBRANCH  12  16
BRANCH  13  18
ATOM     18  O   UNL     1      -6.112  12.816  20.086  0.00  0.00    +0.000 OA
ATOM     19  C   UNL     1      -6.550  13.951  19.324  0.00  0.00    +0.000 C 
ENDBRANCH  13  18
ENDBRANCH   7  11
ENDBRANCH   1   7
BRANCH   4  20
ATOM     20  C   UNL     1       1.854   7.929  19.294  0.00  0.00    +0.000 C 
BRANCH  20  21
ATOM     21  C   UNL     1       2.527   6.981  18.274  0.00  0.00    +0.000 A 
ATOM     22  C   UNL     1       3.708   7.485  17.687  0.00  0.00    +0.000 A 
ATOM     23  C   UNL     1       4.711   6.656  17.149  0.00  0.00    +0.000 A 
ATOM     24  C   UNL     1       4.577   5.265  17.134  0.00  0.00    +0.000 A 
ATOM     25  C   UNL     1       3.367   4.736  17.612  0.00  0.00    +0.000 A 
ATOM     26  C   UNL     1       2.354   5.584  18.184  0.00  0.00    +0.000 A 
BRANCH  24  27
ATOM     27  C   UNL     1       5.794   4.463  16.709  0.00  0.00    +0.000 C 
ATOM     28  O   UNL     1       6.756   4.449  17.482  0.00  0.00    +0.000 OA
BRANCH  27  29
ATOM     29  N   UNL     1       5.750   3.768  15.507  0.00  0.00    +0.000 NA
ATOM     30  C   UNL     1       6.490   4.189  14.534  0.00  0.00    +0.000 C 
ATOM     31  N   UNL     1       7.326   5.242  14.436  0.00  0.00    +0.000 N 
ATOM     32  N   UNL     1       6.479   3.558  13.319  0.00  0.00    +0.000 N 
ATOM     33  H   UNL     1       7.527   5.657  15.350  0.00  0.00    +0.000 HD
ATOM     34  H   UNL     1       8.181   5.058  13.924  0.00  0.00    +0.000 HD
ATOM     35  H   UNL     1       5.687   2.936  13.228  0.00  0.00    +0.000 HD
ATOM     36  H   UNL     1       6.542   4.197  12.531  0.00  0.00    +0.000 HD
ENDBRANCH  27  29
ENDBRANCH  24  27
ENDBRANCH  20  21
ENDBRANCH   4  20
TORSDOF 9
ENDMDL
MODEL 9
REMARK VINA RESULT:      -7.4      2.848     11.238
REMARK  Name = 
REMARK  12 active torsions:
REMARK  status: ('A' for Active; 'I' for Inactive)
REMARK    1  A    between atoms: C_1  and  O_2
REMARK    2  A    between atoms: O_2  and  C_3
REMARK    3  A    between atoms: C_6  and  C_7
REMARK    4  A    between atoms: C_7  and  N_8
REMARK    5  A    between atoms: N_11  and  C_12
REMARK    6  A    between atoms: C_12  and  C_13
REMARK    7  A    between atoms: C_16  and  C_17
REMARK    8  A    between atoms: C_17  and  N_19
REMARK    9  A    between atoms: C_27  and  O_28
REMARK   10  A    between atoms: O_28  and  C_29
REMARK   11  A    between atoms: C_30  and  O_31
REMARK   12  A    between atoms: O_31  and  C_32
REMARK                            x       y       z     vdW  Elec       q    Type
REMARK                         _______ _______ _______ _____ _____    ______ ____
ROOT
ATOM      1  N   UNL     1      -0.793  12.410  18.724  0.00  0.00    +0.000 NA
ATOM      2  C   UNL     1       0.655  12.162  18.802  0.00  0.00    +0.000 C 
ATOM      3  C   UNL     1       1.115  11.158  19.896  0.00  0.00    +0.000 C 
ATOM      4  N   UNL     1       0.516   9.779  19.818  0.00  0.00    +0.000 NA
ATOM      5  C   UNL     1      -0.952  10.020  19.776  0.00  0.00    +0.000 C 
ATOM      6  C   UNL     1      -1.508  11.114  18.795  0.00  0.00    +0.000 C 
ENDROOT
BRANCH   1   7
ATOM      7  C   UNL     1      -1.285  13.480  19.644  0.00  0.00    +0.000 C 
BRANCH   7  11
ATOM      8  C   UNL     1      -5.013  12.603  21.798  0.00  0.00    +0.000 A 
ATOM      9  C   UNL     1      -4.985  12.744  20.417  0.00  0.00    +0.000 A 
ATOM     10  C   UNL     1      -3.779  12.949  19.750  0.00  0.00    +0.000 A 
ATOM     11  C   UNL     1      -2.568  13.130  20.447  0.00  0.00    +0.000 A 
ATOM     12  C   UNL     1      -2.573  12.889  21.856  0.00  0.00    +0.000 A 
ATOM     13  C   UNL     1      -3.794  12.529  22.496  0.00  0.00    +0.000 A 
BRANCH   8  15
ATOM     14  C   UNL     1      -7.255  11.920  21.406  0.00  0.00    +0.000 C 
ATOM     15  O   UNL     1      -6.262  12.382  22.324  0.00  0.00    +0.000 OA
ENDBRANCH   8  15
BRANCH  12  16
ATOM     16  O   UNL     1      -1.329  12.937  22.436  0.00  0.00    +0.000 OA
ATOM     17  C   UNL     1      -0.854  14.086  23.130  0.00  0.00    +0.000 C 
ENDBRANCH  12  16
BRANCH  13  18
ATOM     18  O   UNL     1      -3.798  12.011  23.772  0.00  0.00    +0.000 OA
ATOM     19  C   UNL     1      -4.035  13.021  24.763  0.00  0.00    +0.000 C 
ENDBRANCH  13  18
ENDBRANCH   7  11
ENDBRANCH   1   7
BRANCH   4  20
ATOM     20  C   UNL     1       1.136   9.092  18.654  0.00  0.00    +0.000 C 
BRANCH  20  21
ATOM     21  C   UNL     1       2.376   8.167  18.624  0.00  0.00    +0.000 A 
ATOM     22  C   UNL     1       2.350   7.112  19.561  0.00  0.00    +0.000 A 
ATOM     23  C   UNL     1       3.076   5.918  19.391  0.00  0.00    +0.000 A 
ATOM     24  C   UNL     1       3.906   5.720  18.285  0.00  0.00    +0.000 A 
ATOM     25  C   UNL     1       4.039   6.794  17.388  0.00  0.00    +0.000 A 
ATOM     26  C   UNL     1       3.276   8.003  17.551  0.00  0.00    +0.000 A 
BRANCH  24  27
ATOM     27  C   UNL     1       4.489   4.330  18.103  0.00  0.00    +0.000 C 
ATOM     28  O   UNL     1       4.501   3.871  16.956  0.00  0.00    +0.000 OA
BRANCH  27  29
ATOM     29  N   UNL     1       5.003   3.671  19.212  0.00  0.00    +0.000 NA
ATOM     30  C   UNL     1       4.655   2.440  19.402  0.00  0.00    +0.000 C 
ATOM     31  N   UNL     1       3.827   1.626  18.715  0.00  0.00    +0.000 N 
ATOM     32  N   UNL     1       5.114   1.740  20.485  0.00  0.00    +0.000 N 
ATOM     33  H   UNL     1       3.586   2.013  17.798  0.00  0.00    +0.000 HD
ATOM     34  H   UNL     1       4.147   0.668  18.634  0.00  0.00    +0.000 HD
ATOM     35  H   UNL     1       5.514   2.352  21.184  0.00  0.00    +0.000 HD
ATOM     36  H   UNL     1       4.418   1.119  20.890  0.00  0.00    +0.000 HD
ENDBRANCH  27  29
ENDBRANCH  24  27
ENDBRANCH  20  21
ENDBRANCH   4  20
TORSDOF 9
ENDMDL
