MODEL 1
REMARK VINA RESULT:      -9.1      0.000      0.000
REMARK  Name = 
REMARK  9 active torsions:
REMARK  status: ('A' for Active; 'I' for Inactive)
REMARK    1  A    between atoms: C_1  and  C_2
REMARK    2  A    between atoms: C_5  and  C_6
REMARK    3  A    between atoms: C_6  and  C_8
REMARK    4  A    between atoms: C_8  and  O_9
REMARK    5  A    between atoms: O_9  and  C_10
REMARK    6  A    between atoms: C_10  and  C_12
REMARK    7  A    between atoms: C_12  and  C_13
REMARK    8  A    between atoms: C_12  and  N_14
REMARK    9  A    between atoms: C_27  and  C_28
REMARK                            x       y       z     vdW  Elec       q    Type
REMARK                         _______ _______ _______ _____ _____    ______ ____
ROOT
ATOM      1  C   UNL     1       4.755   6.424  17.033  0.00  0.00    +0.000 C 
ATOM      2  O   UNL     1       5.838   6.840  17.418  0.00  0.00    +0.000 OA
ENDROOT
BRANCH   1   3
ATOM      3  C   UNL     1       4.429   4.948  16.748  0.00  0.00    +0.000 C 
ATOM      4  C   UNL     1       5.688   4.197  16.309  0.00  0.00    +0.000 C 
BRANCH   3   5
ATOM      5  N   UNL     1       3.773   4.285  17.887  0.00  0.00    +0.000 N 
ATOM      6  C   UNL     1       2.531   3.704  17.818  0.00  0.00    +0.000 C 
ATOM      7  O   UNL     1       1.719   3.843  16.916  0.00  0.00    +0.000 OA
ATOM      8  C   UNL     1       2.303   2.849  19.055  0.00  0.00    +0.000 C 
ATOM      9  C   UNL     1       1.078   3.261  19.897  0.00  0.00    +0.000 C 
ATOM     10  C   UNL     1       1.109   2.556  21.247  0.00  0.00    +0.000 C 
ATOM     11  C   UNL     1       2.118   3.092  21.959  0.00  0.00    +0.000 C 
ATOM     12  C   UNL     1       2.801   4.095  21.061  0.00  0.00    +0.000 C 
ATOM     13  C   UNL     1       1.528   4.640  20.391  0.00  0.00    +0.000 C 
ATOM     14  C   UNL     1       3.485   3.247  19.961  0.00  0.00    +0.000 C 
ATOM     15  C   UNL     1       4.413   3.992  19.056  0.00  0.00    +0.000 C 
ATOM     16  O   UNL     1       5.558   4.283  19.360  0.00  0.00    +0.000 OA
ENDBRANCH   3   5
ENDBRANCH   1   3
BRANCH   1  17
ATOM     17  O   UNL     1       3.658   7.216  16.847  0.00  0.00    +0.000 OA
BRANCH  17  18
ATOM     18  C   UNL     1       2.931   7.495  18.036  0.00  0.00    +0.000 C 
BRANCH  18  19
ATOM     19  C   UNL     1       2.087   8.771  18.193  0.00  0.00    +0.000 C 
ATOM     20  O   UNL     1       2.086   9.636  17.312  0.00  0.00    +0.000 OA
BRANCH  19  25
ATOM     21  C   UNL     1      -0.755  10.044  23.122  0.00  0.00    +0.000 C 
ATOM     22  C   UNL     1      -0.024   9.725  21.845  0.00  0.00    +0.000 A 
ATOM     23  C   UNL     1       0.884   8.653  21.814  0.00  0.00    +0.000 A 
ATOM     24  C   UNL     1       1.574   8.318  20.642  0.00  0.00    +0.000 A 
ATOM     25  C   UNL     1       1.362   9.049  19.473  0.00  0.00    +0.000 A 
ATOM     26  C   UNL     1       0.460  10.129  19.505  0.00  0.00    +0.000 A 
ATOM     27  C   UNL     1      -0.237  10.476  20.675  0.00  0.00    +0.000 A 
ATOM     28  C   UNL     1      -1.194  11.639  20.649  0.00  0.00    +0.000 C 
ENDBRANCH  19  25
ENDBRANCH  18  19
ENDBRANCH  17  18
ENDBRANCH   1  17
TORSDOF 6
ENDMDL
MODEL 2
REMARK VINA RESULT:      -8.4      1.407      4.089
REMARK  Name = 
REMARK  9 active torsions:
REMARK  status: ('A' for Active; 'I' for Inactive)
REMARK    1  A    between atoms: C_1  and  C_2
REMARK    2  A    between atoms: C_5  and  C_6
REMARK    3  A    between atoms: C_6  and  C_8
REMARK    4  A    between atoms: C_8  and  O_9
REMARK    5  A    between atoms: O_9  and  C_10
REMARK    6  A    between atoms: C_10  and  C_12
REMARK    7  A    between atoms: C_12  and  C_13
REMARK    8  A    between atoms: C_12  and  N_14
REMARK    9  A    between atoms: C_27  and  C_28
REMARK                            x       y       z     vdW  Elec       q    Type
REMARK                         _______ _______ _______ _____ _____    ______ ____
ROOT
ATOM      1  C   UNL     1       2.573   5.361  19.990  0.00  0.00    +0.000 C 
ATOM      2  O   UNL     1       1.411   5.153  20.310  0.00  0.00    +0.000 OA
ENDROOT
BRANCH   1   3
ATOM      3  C   UNL     1       3.693   4.306  20.003  0.00  0.00    +0.000 C 
ATOM      4  C   UNL     1       3.118   2.920  20.304  0.00  0.00    +0.000 C 
BRANCH   3   5
ATOM      5  N   UNL     1       4.481   4.307  18.760  0.00  0.00    +0.000 N 
ATOM      6  C   UNL     1       5.818   4.615  18.707  0.00  0.00    +0.000 C 
ATOM      7  O   UNL     1       6.473   5.137  19.596  0.00  0.00    +0.000 OA
ATOM      8  C   UNL     1       6.377   4.211  17.351  0.00  0.00    +0.000 C 
ATOM      9  C   UNL     1       6.992   5.372  16.544  0.00  0.00    +0.000 C 
ATOM     10  C   UNL     1       7.243   4.935  15.106  0.00  0.00    +0.000 C 
ATOM     11  C   UNL     1       6.044   4.799  14.510  0.00  0.00    +0.000 C 
ATOM     12  C   UNL     1       4.999   5.071  15.565  0.00  0.00    +0.000 C 
ATOM     13  C   UNL     1       5.743   6.217  16.271  0.00  0.00    +0.000 C 
ATOM     14  C   UNL     1       5.103   3.879  16.548  0.00  0.00    +0.000 C 
ATOM     15  C   UNL     1       4.024   3.797  17.580  0.00  0.00    +0.000 C 
ATOM     16  O   UNL     1       2.913   3.345  17.356  0.00  0.00    +0.000 OA
ENDBRANCH   3   5
ENDBRANCH   1   3
BRANCH   1  17
ATOM     17  O   UNL     1       3.031   6.561  19.527  0.00  0.00    +0.000 OA
BRANCH  17  18
ATOM     18  C   UNL     1       2.218   7.146  18.519  0.00  0.00    +0.000 C 
BRANCH  18  19
ATOM     19  C   UNL     1       1.818   8.631  18.556  0.00  0.00    +0.000 C 
ATOM     20  O   UNL     1       2.211   9.409  17.682  0.00  0.00    +0.000 OA
BRANCH  19  25
ATOM     21  C   UNL     1      -1.119  10.966  23.018  0.00  0.00    +0.000 C 
ATOM     22  C   UNL     1      -0.362  10.372  21.860  0.00  0.00    +0.000 A 
ATOM     23  C   UNL     1       0.389   9.199  22.050  0.00  0.00    +0.000 A 
ATOM     24  C   UNL     1       1.096   8.610  20.994  0.00  0.00    +0.000 A 
ATOM     25  C   UNL     1       1.061   9.184  19.723  0.00  0.00    +0.000 A 
ATOM     26  C   UNL     1       0.318  10.364  19.534  0.00  0.00    +0.000 A 
ATOM     27  C   UNL     1      -0.395  10.965  20.585  0.00  0.00    +0.000 A 
ATOM     28  C   UNL     1      -1.178  12.225  20.323  0.00  0.00    +0.000 C 
ENDBRANCH  19  25
ENDBRANCH  18  19
ENDBRANCH  17  18
ENDBRANCH   1  17
TORSDOF 6
ENDMDL
MODEL 3
REMARK VINA RESULT:      -8.3      4.480      6.115
REMARK  Name = 
REMARK  9 active torsions:
REMARK  status: ('A' for Active; 'I' for Inactive)
REMARK    1  A    between atoms: C_1  and  C_2
REMARK    2  A    between atoms: C_5  and  C_6
REMARK    3  A    between atoms: C_6  and  C_8
REMARK    4  A    between atoms: C_8  and  O_9
REMARK    5  A    between atoms: O_9  and  C_10
REMARK    6  A    between atoms: C_10  and  C_12
REMARK    7  A    between atoms: C_12  and  C_13
REMARK    8  A    between atoms: C_12  and  N_14
REMARK    9  A    between atoms: C_27  and  C_28
REMARK                            x       y       z     vdW  Elec       q    Type
REMARK                         _______ _______ _______ _____ _____    ______ ____
ROOT
ATOM      1  C   UNL     1       6.920   5.682  17.542  0.00  0.00    +0.000 C 
ATOM      2  O   UNL     1       7.696   4.815  17.165  0.00  0.00    +0.000 OA
ENDROOT
BRANCH   1   3
ATOM      3  C   UNL     1       5.585   6.027  16.859  0.00  0.00    +0.000 C 
ATOM      4  C   UNL     1       5.645   5.692  15.367  0.00  0.00    +0.000 C 
BRANCH   3   5
ATOM      5  N   UNL     1       4.435   5.383  17.514  0.00  0.00    +0.000 N 
ATOM      6  C   UNL     1       3.380   6.076  18.054  0.00  0.00    +0.000 C 
ATOM      7  O   UNL     1       3.344   7.276  18.276  0.00  0.00    +0.000 OA
ATOM      8  C   UNL     1       2.241   5.112  18.351  0.00  0.00    +0.000 C 
ATOM      9  C   UNL     1       1.812   5.070  19.832  0.00  0.00    +0.000 C 
ATOM     10  C   UNL     1       0.892   3.879  20.077  0.00  0.00    +0.000 C 
ATOM     11  C   UNL     1       1.641   2.764  19.981  0.00  0.00    +0.000 C 
ATOM     12  C   UNL     1       3.033   3.206  19.601  0.00  0.00    +0.000 C 
ATOM     13  C   UNL     1       3.071   4.473  20.471  0.00  0.00    +0.000 C 
ATOM     14  C   UNL     1       2.904   3.735  18.151  0.00  0.00    +0.000 C 
ATOM     15  C   UNL     1       4.194   4.040  17.459  0.00  0.00    +0.000 C 
ATOM     16  O   UNL     1       4.899   3.188  16.944  0.00  0.00    +0.000 OA
ENDBRANCH   3   5
ENDBRANCH   1   3
BRANCH   1  17
ATOM     17  O   UNL     1       7.111   6.439  18.662  0.00  0.00    +0.000 OA
BRANCH  17  18
ATOM     18  C   UNL     1       8.222   7.322  18.587  0.00  0.00    +0.000 C 
BRANCH  18  19
ATOM     19  C   UNL     1       8.090   8.749  18.025  0.00  0.00    +0.000 C 
ATOM     20  O   UNL     1       7.405   8.968  17.023  0.00  0.00    +0.000 OA
BRANCH  19  25
ATOM     21  C   UNL     1      11.344  13.120  20.100  0.00  0.00    +0.000 C 
ATOM     22  C   UNL     1      10.507  11.993  19.554  0.00  0.00    +0.000 A 
ATOM     23  C   UNL     1       9.917  11.075  20.440  0.00  0.00    +0.000 A 
ATOM     24  C   UNL     1       9.122  10.021  19.971  0.00  0.00    +0.000 A 
ATOM     25  C   UNL     1       8.899   9.869  18.602  0.00  0.00    +0.000 A 
ATOM     26  C   UNL     1       9.498  10.781  17.713  0.00  0.00    +0.000 A 
ATOM     27  C   UNL     1      10.298  11.842  18.171  0.00  0.00    +0.000 A 
ATOM     28  C   UNL     1      10.910  12.791  17.175  0.00  0.00    +0.000 C 
ENDBRANCH  19  25
ENDBRANCH  18  19
ENDBRANCH  17  18
ENDBRANCH   1  17
TORSDOF 6
ENDMDL
MODEL 4
REMARK VINA RESULT:      -8.2      4.432      6.145
REMARK  Name = 
REMARK  9 active torsions:
REMARK  status: ('A' for Active; 'I' for Inactive)
REMARK    1  A    between atoms: C_1  and  C_2
REMARK    2  A    between atoms: C_5  and  C_6
REMARK    3  A    between atoms: C_6  and  C_8
REMARK    4  A    between atoms: C_8  and  O_9
REMARK    5  A    between atoms: O_9  and  C_10
REMARK    6  A    between atoms: C_10  and  C_12
REMARK    7  A    between atoms: C_12  and  C_13
REMARK    8  A    between atoms: C_12  and  N_14
REMARK    9  A    between atoms: C_27  and  C_28
REMARK                            x       y       z     vdW  Elec       q    Type
REMARK                         _______ _______ _______ _____ _____    ______ ____
ROOT
ATOM      1  C   UNL     1       7.076   5.432  17.709  0.00  0.00    +0.000 C 
ATOM      2  O   UNL     1       7.983   4.689  17.361  0.00  0.00    +0.000 OA
ENDROOT
BRANCH   1   3
ATOM      3  C   UNL     1       5.656   5.426  17.118  0.00  0.00    +0.000 C 
ATOM      4  C   UNL     1       5.587   4.503  15.900  0.00  0.00    +0.000 C 
BRANCH   3   5
ATOM      5  N   UNL     1       4.632   5.081  18.118  0.00  0.00    +0.000 N 
ATOM      6  C   UNL     1       4.790   4.093  19.059  0.00  0.00    +0.000 C 
ATOM      7  O   UNL     1       5.659   3.236  19.065  0.00  0.00    +0.000 OA
ATOM      8  C   UNL     1       3.699   4.219  20.111  0.00  0.00    +0.000 C 
ATOM      9  C   UNL     1       2.803   2.971  20.252  0.00  0.00    +0.000 C 
ATOM     10  C   UNL     1       1.578   3.299  21.097  0.00  0.00    +0.000 C 
ATOM     11  C   UNL     1       0.791   4.113  20.368  0.00  0.00    +0.000 C 
ATOM     12  C   UNL     1       1.525   4.386  19.077  0.00  0.00    +0.000 C 
ATOM     13  C   UNL     1       2.103   2.973  18.889  0.00  0.00    +0.000 C 
ATOM     14  C   UNL     1       2.742   5.252  19.483  0.00  0.00    +0.000 C 
ATOM     15  C   UNL     1       3.522   5.840  18.350  0.00  0.00    +0.000 C 
ATOM     16  O   UNL     1       3.177   6.842  17.746  0.00  0.00    +0.000 OA
ENDBRANCH   3   5
ENDBRANCH   1   3
BRANCH   1  17
ATOM     17  O   UNL     1       7.188   6.348  18.715  0.00  0.00    +0.000 OA
BRANCH  17  18
ATOM     18  C   UNL     1       8.275   7.251  18.564  0.00  0.00    +0.000 C 
BRANCH  18  19
ATOM     19  C   UNL     1       8.076   8.685  18.043  0.00  0.00    +0.000 C 
ATOM     20  O   UNL     1       7.345   8.904  17.073  0.00  0.00    +0.000 OA
BRANCH  19  25
ATOM     21  C   UNL     1      11.275  13.103  20.101  0.00  0.00    +0.000 C 
ATOM     22  C   UNL     1      10.452  11.964  19.560  0.00  0.00    +0.000 A 
ATOM     23  C   UNL     1       9.850  11.058  20.450  0.00  0.00    +0.000 A 
ATOM     24  C   UNL     1       9.068   9.993  19.984  0.00  0.00    +0.000 A 
ATOM     25  C   UNL     1       8.870   9.818  18.615  0.00  0.00    +0.000 A 
ATOM     26  C   UNL     1       9.481  10.718  17.722  0.00  0.00    +0.000 A 
ATOM     27  C   UNL     1      10.268  11.789  18.176  0.00  0.00    +0.000 A 
ATOM     28  C   UNL     1      10.894  12.725  17.175  0.00  0.00    +0.000 C 
ENDBRANCH  19  25
ENDBRANCH  18  19
ENDBRANCH  17  18
ENDBRANCH   1  17
TORSDOF 6
ENDMDL
MODEL 5
REMARK VINA RESULT:      -8.2      1.434      4.283
REMARK  Name = 
REMARK  9 active torsions:
REMARK  status: ('A' for Active; 'I' for Inactive)
REMARK    1  A    between atoms: C_1  and  C_2
REMARK    2  A    between atoms: C_5  and  C_6
REMARK    3  A    between atoms: C_6  and  C_8
REMARK    4  A    between atoms: C_8  and  O_9
REMARK    5  A    between atoms: O_9  and  C_10
REMARK    6  A    between atoms: C_10  and  C_12
REMARK    7  A    between atoms: C_12  and  C_13
REMARK    8  A    between atoms: C_12  and  N_14
REMARK    9  A    between atoms: C_27  and  C_28
REMARK                            x       y       z     vdW  Elec       q    Type
REMARK                         _______ _______ _______ _____ _____    ______ ____
ROOT
ATOM      1  C   UNL     1       2.159   4.928  19.756  0.00  0.00    +0.000 C 
ATOM      2  O   UNL     1       1.089   4.574  20.230  0.00  0.00    +0.000 OA
ENDROOT
BRANCH   1   3
ATOM      3  C   UNL     1       3.498   4.197  19.957  0.00  0.00    +0.000 C 
ATOM      4  C   UNL     1       3.256   2.765  20.441  0.00  0.00    +0.000 C 
BRANCH   3   5
ATOM      5  N   UNL     1       4.342   4.225  18.751  0.00  0.00    +0.000 N 
ATOM      6  C   UNL     1       5.624   4.716  18.732  0.00  0.00    +0.000 C 
ATOM      7  O   UNL     1       6.154   5.384  19.606  0.00  0.00    +0.000 OA
ATOM      8  C   UNL     1       6.303   4.305  17.434  0.00  0.00    +0.000 C 
ATOM      9  C   UNL     1       6.793   5.484  16.570  0.00  0.00    +0.000 C 
ATOM     10  C   UNL     1       7.177   4.991  15.180  0.00  0.00    +0.000 C 
ATOM     11  C   UNL     1       6.040   4.646  14.546  0.00  0.00    +0.000 C 
ATOM     12  C   UNL     1       4.915   4.838  15.534  0.00  0.00    +0.000 C 
ATOM     13  C   UNL     1       5.455   6.123  16.184  0.00  0.00    +0.000 C 
ATOM     14  C   UNL     1       5.132   3.742  16.605  0.00  0.00    +0.000 C 
ATOM     15  C   UNL     1       4.021   3.578  17.594  0.00  0.00    +0.000 C 
ATOM     16  O   UNL     1       2.997   2.959  17.357  0.00  0.00    +0.000 OA
ENDBRANCH   3   5
ENDBRANCH   1   3
BRANCH   1  17
ATOM     17  O   UNL     1       2.307   6.008  18.933  0.00  0.00    +0.000 OA
BRANCH  17  18
ATOM     18  C   UNL     1       2.277   7.261  19.604  0.00  0.00    +0.000 C 
BRANCH  18  19
ATOM     19  C   UNL     1       1.823   8.551  18.900  0.00  0.00    +0.000 C 
ATOM     20  O   UNL     1       2.291   8.865  17.802  0.00  0.00    +0.000 OA
BRANCH  19  25
ATOM     21  C   UNL     1      -1.774  12.158  21.736  0.00  0.00    +0.000 C 
ATOM     22  C   UNL     1      -0.846  11.220  21.012  0.00  0.00    +0.000 A 
ATOM     23  C   UNL     1      -0.594  11.412  19.643  0.00  0.00    +0.000 A 
ATOM     24  C   UNL     1       0.273  10.567  18.938  0.00  0.00    +0.000 A 
ATOM     25  C   UNL     1       0.910   9.514  19.594  0.00  0.00    +0.000 A 
ATOM     26  C   UNL     1       0.651   9.314  20.963  0.00  0.00    +0.000 A 
ATOM     27  C   UNL     1      -0.217  10.153  21.681  0.00  0.00    +0.000 A 
ATOM     28  C   UNL     1      -0.453   9.895  23.146  0.00  0.00    +0.000 C 
ENDBRANCH  19  25
ENDBRANCH  18  19
ENDBRANCH  17  18
ENDBRANCH   1  17
TORSDOF 6
ENDMDL
MODEL 6
REMARK VINA RESULT:      -8.1      1.692      4.384
REMARK  Name = 
REMARK  9 active torsions:
REMARK  status: ('A' for Active; 'I' for Inactive)
REMARK    1  A    between atoms: C_1  and  C_2
REMARK    2  A    between atoms: C_5  and  C_6
REMARK    3  A    between atoms: C_6  and  C_8
REMARK    4  A    between atoms: C_8  and  O_9
REMARK    5  A    between atoms: O_9  and  C_10
REMARK    6  A    between atoms: C_10  and  C_12
REMARK    7  A    between atoms: C_12  and  C_13
REMARK    8  A    between atoms: C_12  and  N_14
REMARK    9  A    between atoms: C_27  and  C_28
REMARK                            x       y       z     vdW  Elec       q    Type
REMARK                         _______ _______ _______ _____ _____    ______ ____
ROOT
ATOM      1  C   UNL     1       2.443   5.352  19.989  0.00  0.00    +0.000 C 
ATOM      2  O   UNL     1       1.291   5.105  20.318  0.00  0.00    +0.000 OA
ENDROOT
BRANCH   1   3
ATOM      3  C   UNL     1       3.610   4.351  20.047  0.00  0.00    +0.000 C 
ATOM      4  C   UNL     1       3.097   2.951  20.394  0.00  0.00    +0.000 C 
BRANCH   3   5
ATOM      5  N   UNL     1       4.407   4.344  18.809  0.00  0.00    +0.000 N 
ATOM      6  C   UNL     1       5.750   4.628  18.767  0.00  0.00    +0.000 C 
ATOM      7  O   UNL     1       6.408   5.134  19.664  0.00  0.00    +0.000 OA
ATOM      8  C   UNL     1       6.311   4.221  17.414  0.00  0.00    +0.000 C 
ATOM      9  C   UNL     1       6.953   5.376  16.617  0.00  0.00    +0.000 C 
ATOM     10  C   UNL     1       7.207   4.941  15.178  0.00  0.00    +0.000 C 
ATOM     11  C   UNL     1       6.009   4.830  14.573  0.00  0.00    +0.000 C 
ATOM     12  C   UNL     1       4.963   5.115  15.623  0.00  0.00    +0.000 C 
ATOM     13  C   UNL     1       5.721   6.244  16.340  0.00  0.00    +0.000 C 
ATOM     14  C   UNL     1       5.038   3.916  16.599  0.00  0.00    +0.000 C 
ATOM     15  C   UNL     1       3.950   3.848  17.623  0.00  0.00    +0.000 C 
ATOM     16  O   UNL     1       2.833   3.417  17.389  0.00  0.00    +0.000 OA
ENDBRANCH   3   5
ENDBRANCH   1   3
BRANCH   1  17
ATOM     17  O   UNL     1       2.847   6.550  19.475  0.00  0.00    +0.000 OA
BRANCH  17  18
ATOM     18  C   UNL     1       2.036   7.653  19.858  0.00  0.00    +0.000 C 
BRANCH  18  19
ATOM     19  C   UNL     1       1.690   8.788  18.879  0.00  0.00    +0.000 C 
ATOM     20  O   UNL     1       2.410   9.017  17.904  0.00  0.00    +0.000 OA
BRANCH  19  25
ATOM     21  C   UNL     1      -2.742  12.461  19.810  0.00  0.00    +0.000 C 
ATOM     22  C   UNL     1      -1.599  11.513  19.559  0.00  0.00    +0.000 A 
ATOM     23  C   UNL     1      -0.699  11.220  20.598  0.00  0.00    +0.000 A 
ATOM     24  C   UNL     1       0.369  10.334  20.406  0.00  0.00    +0.000 A 
ATOM     25  C   UNL     1       0.553   9.719  19.168  0.00  0.00    +0.000 A 
ATOM     26  C   UNL     1      -0.342  10.019  18.123  0.00  0.00    +0.000 A 
ATOM     27  C   UNL     1      -1.416  10.907  18.302  0.00  0.00    +0.000 A 
ATOM     28  C   UNL     1      -2.345  11.186  17.151  0.00  0.00    +0.000 C 
ENDBRANCH  19  25
ENDBRANCH  18  19
ENDBRANCH  17  18
ENDBRANCH   1  17
TORSDOF 6
ENDMDL
MODEL 7
REMARK VINA RESULT:      -8.1      0.864      1.490
REMARK  Name = 
REMARK  9 active torsions:
REMARK  status: ('A' for Active; 'I' for Inactive)
REMARK    1  A    between atoms: C_1  and  C_2
REMARK    2  A    between atoms: C_5  and  C_6
REMARK    3  A    between atoms: C_6  and  C_8
REMARK    4  A    between atoms: C_8  and  O_9
REMARK    5  A    between atoms: O_9  and  C_10
REMARK    6  A    between atoms: C_10  and  C_12
REMARK    7  A    between atoms: C_12  and  C_13
REMARK    8  A    between atoms: C_12  and  N_14
REMARK    9  A    between atoms: C_27  and  C_28
REMARK                            x       y       z     vdW  Elec       q    Type
REMARK                         _______ _______ _______ _____ _____    ______ ____
ROOT
ATOM      1  C   UNL     1       5.244   6.136  16.851  0.00  0.00    +0.000 C 
ATOM      2  O   UNL     1       6.350   6.454  17.263  0.00  0.00    +0.000 OA
ENDROOT
BRANCH   1   3
ATOM      3  C   UNL     1       4.776   4.691  16.603  0.00  0.00    +0.000 C 
ATOM      4  C   UNL     1       5.960   3.810  16.197  0.00  0.00    +0.000 C 
BRANCH   3   5
ATOM      5  N   UNL     1       4.052   4.129  17.754  0.00  0.00    +0.000 N 
ATOM      6  C   UNL     1       2.810   3.549  17.662  0.00  0.00    +0.000 C 
ATOM      7  O   UNL     1       2.052   3.616  16.706  0.00  0.00    +0.000 OA
ATOM      8  C   UNL     1       2.505   2.800  18.950  0.00  0.00    +0.000 C 
ATOM      9  C   UNL     1       1.238   3.286  19.684  0.00  0.00    +0.000 C 
ATOM     10  C   UNL     1       1.187   2.694  21.087  0.00  0.00    +0.000 C 
ATOM     11  C   UNL     1       2.159   3.283  21.809  0.00  0.00    +0.000 C 
ATOM     12  C   UNL     1       2.900   4.206  20.872  0.00  0.00    +0.000 C 
ATOM     13  C   UNL     1       1.672   4.699  20.088  0.00  0.00    +0.000 C 
ATOM     14  C   UNL     1       3.637   3.266  19.887  0.00  0.00    +0.000 C 
ATOM     15  C   UNL     1       4.622   3.931  18.977  0.00  0.00    +0.000 C 
ATOM     16  O   UNL     1       5.751   4.240  19.321  0.00  0.00    +0.000 OA
ENDBRANCH   3   5
ENDBRANCH   1   3
BRANCH   1  17
ATOM     17  O   UNL     1       4.242   7.029  16.596  0.00  0.00    +0.000 OA
BRANCH  17  18
ATOM     18  C   UNL     1       3.761   7.710  17.747  0.00  0.00    +0.000 C 
BRANCH  18  19
ATOM     19  C   UNL     1       2.270   7.714  18.126  0.00  0.00    +0.000 C 
ATOM     20  O   UNL     1       1.506   6.854  17.679  0.00  0.00    +0.000 OA
BRANCH  19  25
ATOM     21  C   UNL     1      -0.066  11.956  21.374  0.00  0.00    +0.000 C 
ATOM     22  C   UNL     1       0.534  10.853  20.542  0.00  0.00    +0.000 A 
ATOM     23  C   UNL     1       0.896  11.108  19.208  0.00  0.00    +0.000 A 
ATOM     24  C   UNL     1       1.469  10.111  18.408  0.00  0.00    +0.000 A 
ATOM     25  C   UNL     1       1.694   8.837  18.931  0.00  0.00    +0.000 A 
ATOM     26  C   UNL     1       1.323   8.578  20.263  0.00  0.00    +0.000 A 
ATOM     27  C   UNL     1       0.747   9.569  21.077  0.00  0.00    +0.000 A 
ATOM     28  C   UNL     1       0.374   9.236  22.497  0.00  0.00    +0.000 C 
ENDBRANCH  19  25
ENDBRANCH  18  19
ENDBRANCH  17  18
ENDBRANCH   1  17
TORSDOF 6
ENDMDL
MODEL 8
REMARK VINA RESULT:      -8.1      4.731      6.408
REMARK  Name = 
REMARK  9 active torsions:
REMARK  status: ('A' for Active; 'I' for Inactive)
REMARK    1  A    between atoms: C_1  and  C_2
REMARK    2  A    between atoms: C_5  and  C_6
REMARK    3  A    between atoms: C_6  and  C_8
REMARK    4  A    between atoms: C_8  and  O_9
REMARK    5  A    between atoms: O_9  and  C_10
REMARK    6  A    between atoms: C_10  and  C_12
REMARK    7  A    between atoms: C_12  and  C_13
REMARK    8  A    between atoms: C_12  and  N_14
REMARK    9  A    between atoms: C_27  and  C_28
REMARK                            x       y       z     vdW  Elec       q    Type
REMARK                         _______ _______ _______ _____ _____    ______ ____
ROOT
ATOM      1  C   UNL     1       6.572   6.504  17.445  0.00  0.00    +0.000 C 
ATOM      2  O   UNL     1       6.785   5.916  18.496  0.00  0.00    +0.000 OA
ENDROOT
BRANCH   1   3
ATOM      3  C   UNL     1       5.270   6.409  16.631  0.00  0.00    +0.000 C 
ATOM      4  C   UNL     1       5.555   5.858  15.231  0.00  0.00    +0.000 C 
BRANCH   3   5
ATOM      5  N   UNL     1       4.231   5.627  17.320  0.00  0.00    +0.000 N 
ATOM      6  C   UNL     1       3.132   6.186  17.925  0.00  0.00    +0.000 C 
ATOM      7  O   UNL     1       2.974   7.371  18.178  0.00  0.00    +0.000 OA
ATOM      8  C   UNL     1       2.123   5.096  18.248  0.00  0.00    +0.000 C 
ATOM      9  C   UNL     1       1.773   4.976  19.745  0.00  0.00    +0.000 C 
ATOM     10  C   UNL     1       1.003   3.685  20.001  0.00  0.00    +0.000 C 
ATOM     11  C   UNL     1       1.865   2.663  19.843  0.00  0.00    +0.000 C 
ATOM     12  C   UNL     1       3.180   3.265  19.412  0.00  0.00    +0.000 C 
ATOM     13  C   UNL     1       3.119   4.511  20.312  0.00  0.00    +0.000 C 
ATOM     14  C   UNL     1       2.924   3.806  17.984  0.00  0.00    +0.000 C 
ATOM     15  C   UNL     1       4.138   4.267  17.241  0.00  0.00    +0.000 C 
ATOM     16  O   UNL     1       4.907   3.510  16.674  0.00  0.00    +0.000 OA
ENDBRANCH   3   5
ENDBRANCH   1   3
BRANCH   1  17
ATOM     17  O   UNL     1       7.452   7.374  16.868  0.00  0.00    +0.000 OA
BRANCH  17  18
ATOM     18  C   UNL     1       7.431   8.681  17.426  0.00  0.00    +0.000 C 
BRANCH  18  19
ATOM     19  C   UNL     1       8.536   9.181  18.373  0.00  0.00    +0.000 C 
ATOM     20  O   UNL     1       8.928   8.475  19.307  0.00  0.00    +0.000 OA
BRANCH  19  25
ATOM     21  C   UNL     1      10.672  14.599  18.101  0.00  0.00    +0.000 C 
ATOM     22  C   UNL     1      10.128  13.197  18.179  0.00  0.00    +0.000 A 
ATOM     23  C   UNL     1       8.867  12.910  17.629  0.00  0.00    +0.000 A 
ATOM     24  C   UNL     1       8.333  11.616  17.670  0.00  0.00    +0.000 A 
ATOM     25  C   UNL     1       9.056  10.580  18.261  0.00  0.00    +0.000 A 
ATOM     26  C   UNL     1      10.315  10.867  18.822  0.00  0.00    +0.000 A 
ATOM     27  C   UNL     1      10.861  12.161  18.787  0.00  0.00    +0.000 A 
ATOM     28  C   UNL     1      12.215  12.410  19.398  0.00  0.00    +0.000 C 
ENDBRANCH  19  25
ENDBRANCH  18  19
ENDBRANCH  17  18
ENDBRANCH   1  17
TORSDOF 6
ENDMDL
MODEL 9
REMARK VINA RESULT:      -8.0      4.307      5.988
REMARK  Name = 
REMARK  9 active torsions:
REMARK  status: ('A' for Active; 'I' for Inactive)
REMARK    1  A    between atoms: C_1  and  C_2
REMARK    2  A    between atoms: C_5  and  C_6
REMARK    3  A    between atoms: C_6  and  C_8
REMARK    4  A    between atoms: C_8  and  O_9
REMARK    5  A    between atoms: O_9  and  C_10
REMARK    6  A    between atoms: C_10  and  C_12
REMARK    7  A    between atoms: C_12  and  C_13
REMARK    8  A    between atoms: C_12  and  N_14
REMARK    9  A    between atoms: C_27  and  C_28
REMARK                            x       y       z     vdW  Elec       q    Type
REMARK                         _______ _______ _______ _____ _____    ______ ____
ROOT
ATOM      1  C   UNL     1       6.310   6.029  17.001  0.00  0.00    +0.000 C 
ATOM      2  O   UNL     1       7.406   5.513  16.833  0.00  0.00    +0.000 OA
ENDROOT
BRANCH   1   3
ATOM      3  C   UNL     1       4.964   5.378  16.639  0.00  0.00    +0.000 C 
ATOM      4  C   UNL     1       5.179   4.206  15.678  0.00  0.00    +0.000 C 
BRANCH   3   5
ATOM      5  N   UNL     1       4.198   4.970  17.828  0.00  0.00    +0.000 N 
ATOM      6  C   UNL     1       4.694   4.141  18.805  0.00  0.00    +0.000 C 
ATOM      7  O   UNL     1       5.705   3.461  18.729  0.00  0.00    +0.000 OA
ATOM      8  C   UNL     1       3.778   4.187  20.019  0.00  0.00    +0.000 C 
ATOM      9  C   UNL     1       3.180   2.823  20.418  0.00  0.00    +0.000 C 
ATOM     10  C   UNL     1       2.062   3.019  21.434  0.00  0.00    +0.000 C 
ATOM     11  C   UNL     1       1.026   3.589  20.791  0.00  0.00    +0.000 C 
ATOM     12  C   UNL     1       1.479   3.840  19.373  0.00  0.00    +0.000 C 
ATOM     13  C   UNL     1       2.287   2.543  19.204  0.00  0.00    +0.000 C 
ATOM     14  C   UNL     1       2.550   4.952  19.486  0.00  0.00    +0.000 C 
ATOM     15  C   UNL     1       3.011   5.538  18.189  0.00  0.00    +0.000 C 
ATOM     16  O   UNL     1       2.386   6.386  17.575  0.00  0.00    +0.000 OA
ENDBRANCH   3   5
ENDBRANCH   1   3
BRANCH   1  17
ATOM     17  O   UNL     1       6.126   7.249  17.585  0.00  0.00    +0.000 OA
BRANCH  17  18
ATOM     18  C   UNL     1       7.112   8.215  17.244  0.00  0.00    +0.000 C 
BRANCH  18  19
ATOM     19  C   UNL     1       8.238   8.607  18.216  0.00  0.00    +0.000 C 
ATOM     20  O   UNL     1       8.720   7.773  18.987  0.00  0.00    +0.000 OA
BRANCH  19  25
ATOM     21  C   UNL     1       9.963  14.136  18.884  0.00  0.00    +0.000 C 
ATOM     22  C   UNL     1       9.521  12.706  18.722  0.00  0.00    +0.000 A 
ATOM     23  C   UNL     1       8.628  12.368  17.690  0.00  0.00    +0.000 A 
ATOM     24  C   UNL     1       8.204  11.047  17.499  0.00  0.00    +0.000 A 
ATOM     25  C   UNL     1       8.673  10.034  18.338  0.00  0.00    +0.000 A 
ATOM     26  C   UNL     1       9.559  10.373  19.377  0.00  0.00    +0.000 A 
ATOM     27  C   UNL     1       9.991  11.695  19.580  0.00  0.00    +0.000 A 
ATOM     28  C   UNL     1      10.944  11.998  20.705  0.00  0.00    +0.000 C 
ENDBRANCH  19  25
ENDBRANCH  18  19
ENDBRANCH  17  18
ENDBRANCH   1  17
TORSDOF 6
ENDMDL
