MODEL 1
REMARK VINA RESULT:      -6.9      0.000      0.000
REMARK  Name = 
REMARK  17 active torsions:
REMARK  status: ('A' for Active; 'I' for Inactive)
REMARK    1  A    between atoms: C_1  and  C_2
REMARK    2  A    between atoms: C_2  and  C_3
REMARK    3  A    between atoms: C_3  and  C_4
REMARK    4  A    between atoms: C_4  and  C_5
REMARK    5  A    between atoms: C_5  and  C_6
REMARK    6  A    between atoms: C_6  and  O_7
REMARK    7  A    between atoms: O_7  and  C_8
REMARK    8  A    between atoms: C_9  and  O_10
REMARK    9  A    between atoms: O_10  and  C_11
REMARK   10  A    between atoms: C_13  and  C_14
REMARK   11  A    between atoms: C_14  and  C_15
REMARK   12  A    between atoms: C_15  and  C_16
REMARK   13  A    between atoms: C_16  and  C_17
REMARK   14  A    between atoms: C_17  and  C_18
REMARK   15  A    between atoms: C_22  and  C_23
REMARK   16  A    between atoms: C_25  and  O_26
REMARK   17  A    between atoms: O_26  and  C_27
REMARK                            x       y       z     vdW  Elec       q    Type
REMARK                         _______ _______ _______ _____ _____    ______ ____
ROOT
ATOM      1  C   UNL     1       4.856   5.204  17.406  0.00  0.00    +0.000 A 
ATOM      2  C   UNL     1       3.642   4.787  18.032  0.00  0.00    +0.000 A 
ATOM      3  C   UNL     1       2.619   5.709  18.271  0.00  0.00    +0.000 A 
ATOM      4  C   UNL     1       2.772   7.059  17.983  0.00  0.00    +0.000 A 
ATOM      5  C   UNL     1       3.971   7.485  17.418  0.00  0.00    +0.000 A 
ATOM      6  C   UNL     1       5.006   6.578  17.110  0.00  0.00    +0.000 A 
ENDROOT
BRANCH   2   7
ATOM      7  O   UNL     1       3.399   3.461  18.304  0.00  0.00    +0.000 OA
ATOM      8  C   UNL     1       2.571   2.740  17.395  0.00  0.00    +0.000 C 
ENDBRANCH   2   7
BRANCH   6   9
ATOM      9  O   UNL     1       6.072   7.240  16.549  0.00  0.00    +0.000 OA
ATOM     10  C   UNL     1       7.247   7.465  17.310  0.00  0.00    +0.000 C 
ENDBRANCH   6   9
BRANCH   1  11
ATOM     11  O   UNL     1       5.910   4.370  17.070  0.00  0.00    +0.000 OA
BRANCH  11  12
ATOM     12  C   UNL     1       5.857   3.773  15.779  0.00  0.00    +0.000 C 
BRANCH  12  13
ATOM     13  C   UNL     1       6.717   4.487  14.742  0.00  0.00    +0.000 C 
BRANCH  13  14
ATOM     14  C   UNL     1       6.539   3.761  13.401  0.00  0.00    +0.000 C 
BRANCH  14  15
ATOM     15  C   UNL     1       5.088   3.720  12.934  0.00  0.00    +0.000 C 
BRANCH  15  17
ATOM     16  C   UNL     1       3.595   3.194  10.977  0.00  0.00    +0.000 C 
ATOM     17  C   UNL     1       4.976   3.009  11.583  0.00  0.00    +0.000 C 
ENDBRANCH  15  17
ENDBRANCH  14  15
ENDBRANCH  13  14
ENDBRANCH  12  13
ENDBRANCH  11  12
ENDBRANCH   1  11
BRANCH   4  18
ATOM     18  C   UNL     1       1.634   8.014  18.238  0.00  0.00    +0.000 C 
BRANCH  18  19
ATOM     19  C   UNL     1       1.966   9.453  17.822  0.00  0.00    +0.000 C 
BRANCH  19  20
ATOM     20  C   UNL     1       1.493  10.439  18.887  0.00  0.00    +0.000 C 
BRANCH  20  21
ATOM     21  C   UNL     1       0.085  10.100  19.380  0.00  0.00    +0.000 C 
BRANCH  21  22
ATOM     22  C   UNL     1       0.032  10.073  20.875  0.00  0.00    +0.000 A 
ATOM     23  S   UNL     1       0.766   8.788  21.749  0.00  0.00    +0.000 S 
ATOM     24  C   UNL     1       0.234   9.504  23.210  0.00  0.00    +0.000 A 
ATOM     25  N   UNL     1      -0.440  10.622  23.097  0.00  0.00    +0.000 NA
ATOM     26  C   UNL     1      -0.559  10.960  21.762  0.00  0.00    +0.000 A 
ATOM     27  C   UNL     1      -1.304  12.204  21.414  0.00  0.00    +0.000 C 
ENDBRANCH  21  22
ENDBRANCH  20  21
ENDBRANCH  19  20
ENDBRANCH  18  19
ENDBRANCH   4  18
TORSDOF 13
ENDMDL
MODEL 2
REMARK VINA RESULT:      -6.8      4.962      7.163
REMARK  Name = 
REMARK  17 active torsions:
REMARK  status: ('A' for Active; 'I' for Inactive)
REMARK    1  A    between atoms: C_1  and  C_2
REMARK    2  A    between atoms: C_2  and  C_3
REMARK    3  A    between atoms: C_3  and  C_4
REMARK    4  A    between atoms: C_4  and  C_5
REMARK    5  A    between atoms: C_5  and  C_6
REMARK    6  A    between atoms: C_6  and  O_7
REMARK    7  A    between atoms: O_7  and  C_8
REMARK    8  A    between atoms: C_9  and  O_10
REMARK    9  A    between atoms: O_10  and  C_11
REMARK   10  A    between atoms: C_13  and  C_14
REMARK   11  A    between atoms: C_14  and  C_15
REMARK   12  A    between atoms: C_15  and  C_16
REMARK   13  A    between atoms: C_16  and  C_17
REMARK   14  A    between atoms: C_17  and  C_18
REMARK   15  A    between atoms: C_22  and  C_23
REMARK   16  A    between atoms: C_25  and  O_26
REMARK   17  A    between atoms: O_26  and  C_27
REMARK                            x       y       z     vdW  Elec       q    Type
REMARK                         _______ _______ _______ _____ _____    ______ ____
ROOT
ATOM      1  C   UNL     1       4.929   4.067  17.330  0.00  0.00    +0.000 A 
ATOM      2  C   UNL     1       5.244   4.312  18.701  0.00  0.00    +0.000 A 
ATOM      3  C   UNL     1       6.180   5.291  19.045  0.00  0.00    +0.000 A 
ATOM      4  C   UNL     1       6.884   6.000  18.079  0.00  0.00    +0.000 A 
ATOM      5  C   UNL     1       6.620   5.734  16.739  0.00  0.00    +0.000 A 
ATOM      6  C   UNL     1       5.643   4.794  16.350  0.00  0.00    +0.000 A 
ENDROOT
BRANCH   2   7
ATOM      7  O   UNL     1       4.558   3.684  19.714  0.00  0.00    +0.000 OA
ATOM      8  C   UNL     1       4.880   2.323  19.987  0.00  0.00    +0.000 C 
ENDBRANCH   2   7
BRANCH   6   9
ATOM      9  O   UNL     1       5.561   4.727  14.980  0.00  0.00    +0.000 OA
ATOM     10  C   UNL     1       6.745   4.665  14.201  0.00  0.00    +0.000 C 
ENDBRANCH   6   9
BRANCH   1  11
ATOM     11  O   UNL     1       3.980   3.166  16.876  0.00  0.00    +0.000 OA
BRANCH  11  12
ATOM     12  C   UNL     1       2.635   3.410  17.272  0.00  0.00    +0.000 C 
BRANCH  12  13
ATOM     13  C   UNL     1       1.938   2.183  17.852  0.00  0.00    +0.000 C 
BRANCH  13  14
ATOM     14  C   UNL     1       0.946   2.665  18.920  0.00  0.00    +0.000 C 
BRANCH  14  15
ATOM     15  C   UNL     1       1.235   4.080  19.405  0.00  0.00    +0.000 C 
BRANCH  15  17
ATOM     16  C   UNL     1       1.570   2.748  21.515  0.00  0.00    +0.000 C 
ATOM     17  C   UNL     1       1.294   4.125  20.934  0.00  0.00    +0.000 C 
ENDBRANCH  15  17
ENDBRANCH  14  15
ENDBRANCH  13  14
ENDBRANCH  12  13
ENDBRANCH  11  12
ENDBRANCH   1  11
BRANCH   4  18
ATOM     18  C   UNL     1       7.868   7.062  18.498  0.00  0.00    +0.000 C 
BRANCH  18  19
ATOM     19  C   UNL     1       8.083   8.126  17.414  0.00  0.00    +0.000 C 
BRANCH  19  20
ATOM     20  C   UNL     1       8.062   9.524  18.027  0.00  0.00    +0.000 C 
BRANCH  20  21
ATOM     21  C   UNL     1       9.153   9.690  19.086  0.00  0.00    +0.000 C 
BRANCH  21  22
ATOM     22  C   UNL     1       9.605  11.113  19.173  0.00  0.00    +0.000 A 
ATOM     23  S   UNL     1      10.312  11.888  17.812  0.00  0.00    +0.000 S 
ATOM     24  C   UNL     1      10.515  13.306  18.748  0.00  0.00    +0.000 A 
ATOM     25  N   UNL     1      10.093  13.248  19.988  0.00  0.00    +0.000 NA
ATOM     26  C   UNL     1       9.566  11.996  20.242  0.00  0.00    +0.000 A 
ATOM     27  C   UNL     1       9.036  11.719  21.608  0.00  0.00    +0.000 C 
ENDBRANCH  21  22
ENDBRANCH  20  21
ENDBRANCH  19  20
ENDBRANCH  18  19
ENDBRANCH   4  18
TORSDOF 13
ENDMDL
MODEL 3
REMARK VINA RESULT:      -6.8      4.409      7.590
REMARK  Name = 
REMARK  17 active torsions:
REMARK  status: ('A' for Active; 'I' for Inactive)
REMARK    1  A    between atoms: C_1  and  C_2
REMARK    2  A    between atoms: C_2  and  C_3
REMARK    3  A    between atoms: C_3  and  C_4
REMARK    4  A    between atoms: C_4  and  C_5
REMARK    5  A    between atoms: C_5  and  C_6
REMARK    6  A    between atoms: C_6  and  O_7
REMARK    7  A    between atoms: O_7  and  C_8
REMARK    8  A    between atoms: C_9  and  O_10
REMARK    9  A    between atoms: O_10  and  C_11
REMARK   10  A    between atoms: C_13  and  C_14
REMARK   11  A    between atoms: C_14  and  C_15
REMARK   12  A    between atoms: C_15  and  C_16
REMARK   13  A    between atoms: C_16  and  C_17
REMARK   14  A    between atoms: C_17  and  C_18
REMARK   15  A    between atoms: C_22  and  C_23
REMARK   16  A    between atoms: C_25  and  O_26
REMARK   17  A    between atoms: O_26  and  C_27
REMARK                            x       y       z     vdW  Elec       q    Type
REMARK                         _______ _______ _______ _____ _____    ______ ____
ROOT
ATOM      1  C   UNL     1       4.551   4.600  17.270  0.00  0.00    +0.000 A 
ATOM      2  C   UNL     1       5.609   4.756  16.325  0.00  0.00    +0.000 A 
ATOM      3  C   UNL     1       6.710   5.564  16.625  0.00  0.00    +0.000 A 
ATOM      4  C   UNL     1       6.778   6.295  17.804  0.00  0.00    +0.000 A 
ATOM      5  C   UNL     1       5.728   6.188  18.711  0.00  0.00    +0.000 A 
ATOM      6  C   UNL     1       4.626   5.341  18.471  0.00  0.00    +0.000 A 
ENDROOT
BRANCH   2   7
ATOM      7  O   UNL     1       5.635   4.031  15.157  0.00  0.00    +0.000 OA
ATOM      8  C   UNL     1       6.695   4.290  14.240  0.00  0.00    +0.000 C 
ENDBRANCH   2   7
BRANCH   6   9
ATOM      9  O   UNL     1       3.739   5.401  19.519  0.00  0.00    +0.000 OA
ATOM     10  C   UNL     1       2.590   6.228  19.429  0.00  0.00    +0.000 C 
ENDBRANCH   6   9
BRANCH   1  11
ATOM     11  O   UNL     1       3.444   3.784  17.104  0.00  0.00    +0.000 OA
BRANCH  11  12
ATOM     12  C   UNL     1       3.582   2.435  17.538  0.00  0.00    +0.000 C 
BRANCH  12  13
ATOM     13  C   UNL     1       2.655   2.068  18.692  0.00  0.00    +0.000 C 
BRANCH  13  14
ATOM     14  C   UNL     1       1.393   2.936  18.578  0.00  0.00    +0.000 C 
BRANCH  14  15
ATOM     15  C   UNL     1       0.675   3.119  19.909  0.00  0.00    +0.000 C 
BRANCH  15  17
ATOM     16  C   UNL     1       2.218   3.490  21.864  0.00  0.00    +0.000 C 
ATOM     17  C   UNL     1       1.463   2.457  21.043  0.00  0.00    +0.000 C 
ENDBRANCH  15  17
ENDBRANCH  14  15
ENDBRANCH  13  14
ENDBRANCH  12  13
ENDBRANCH  11  12
ENDBRANCH   1  11
BRANCH   4  18
ATOM     18  C   UNL     1       7.994   7.136  18.095  0.00  0.00    +0.000 C 
BRANCH  18  19
ATOM     19  C   UNL     1       7.785   8.616  17.742  0.00  0.00    +0.000 C 
BRANCH  19  20
ATOM     20  C   UNL     1       8.604   9.507  18.673  0.00  0.00    +0.000 C 
BRANCH  20  21
ATOM     21  C   UNL     1       9.486  10.479  17.887  0.00  0.00    +0.000 C 
BRANCH  21  22
ATOM     22  C   UNL     1      10.015  11.561  18.774  0.00  0.00    +0.000 A 
ATOM     23  S   UNL     1       9.678  11.549  20.459  0.00  0.00    +0.000 S 
ATOM     24  C   UNL     1      10.558  13.007  20.626  0.00  0.00    +0.000 A 
ATOM     25  N   UNL     1      11.085  13.496  19.530  0.00  0.00    +0.000 NA
ATOM     26  C   UNL     1      10.783  12.672  18.462  0.00  0.00    +0.000 A 
ATOM     27  C   UNL     1      11.286  13.058  17.112  0.00  0.00    +0.000 C 
ENDBRANCH  21  22
ENDBRANCH  20  21
ENDBRANCH  19  20
ENDBRANCH  18  19
ENDBRANCH   4  18
TORSDOF 13
ENDMDL
MODEL 4
REMARK VINA RESULT:      -6.7      1.242      1.622
REMARK  Name = 
REMARK  17 active torsions:
REMARK  status: ('A' for Active; 'I' for Inactive)
REMARK    1  A    between atoms: C_1  and  C_2
REMARK    2  A    between atoms: C_2  and  C_3
REMARK    3  A    between atoms: C_3  and  C_4
REMARK    4  A    between atoms: C_4  and  C_5
REMARK    5  A    between atoms: C_5  and  C_6
REMARK    6  A    between atoms: C_6  and  O_7
REMARK    7  A    between atoms: O_7  and  C_8
REMARK    8  A    between atoms: C_9  and  O_10
REMARK    9  A    between atoms: O_10  and  C_11
REMARK   10  A    between atoms: C_13  and  C_14
REMARK   11  A    between atoms: C_14  and  C_15
REMARK   12  A    between atoms: C_15  and  C_16
REMARK   13  A    between atoms: C_16  and  C_17
REMARK   14  A    between atoms: C_17  and  C_18
REMARK   15  A    between atoms: C_22  and  C_23
REMARK   16  A    between atoms: C_25  and  O_26
REMARK   17  A    between atoms: O_26  and  C_27
REMARK                            x       y       z     vdW  Elec       q    Type
REMARK                         _______ _______ _______ _____ _____    ______ ____
ROOT
ATOM      1  C   UNL     1       4.360   5.102  16.953  0.00  0.00    +0.000 A 
ATOM      2  C   UNL     1       3.098   4.804  17.550  0.00  0.00    +0.000 A 
ATOM      3  C   UNL     1       2.336   5.819  18.134  0.00  0.00    +0.000 A 
ATOM      4  C   UNL     1       2.805   7.124  18.222  0.00  0.00    +0.000 A 
ATOM      5  C   UNL     1       4.056   7.416  17.687  0.00  0.00    +0.000 A 
ATOM      6  C   UNL     1       4.831   6.432  17.040  0.00  0.00    +0.000 A 
ENDROOT
BRANCH   2   7
ATOM      7  O   UNL     1       2.547   3.547  17.463  0.00  0.00    +0.000 OA
ATOM      8  C   UNL     1       2.828   2.626  18.515  0.00  0.00    +0.000 C 
ENDBRANCH   2   7
BRANCH   6   9
ATOM      9  O   UNL     1       6.011   6.972  16.587  0.00  0.00    +0.000 OA
ATOM     10  C   UNL     1       7.186   6.872  17.375  0.00  0.00    +0.000 C 
ENDBRANCH   6   9
BRANCH   1  11
ATOM     11  O   UNL     1       5.170   4.190  16.298  0.00  0.00    +0.000 OA
BRANCH  11  12
ATOM     12  C   UNL     1       5.243   4.310  14.882  0.00  0.00    +0.000 C 
BRANCH  12  13
ATOM     13  C   UNL     1       6.614   3.966  14.310  0.00  0.00    +0.000 C 
BRANCH  13  14
ATOM     14  C   UNL     1       6.543   4.122  12.785  0.00  0.00    +0.000 C 
BRANCH  14  15
ATOM     15  C   UNL     1       5.835   2.959  12.100  0.00  0.00    +0.000 C 
BRANCH  15  17
ATOM     16  C   UNL     1       6.309   0.711  11.070  0.00  0.00    +0.000 C 
ATOM     17  C   UNL     1       6.831   2.120  11.295  0.00  0.00    +0.000 C 
ENDBRANCH  15  17
ENDBRANCH  14  15
ENDBRANCH  13  14
ENDBRANCH  12  13
ENDBRANCH  11  12
ENDBRANCH   1  11
BRANCH   4  18
ATOM     18  C   UNL     1       1.939   8.191  18.842  0.00  0.00    +0.000 C 
BRANCH  18  19
ATOM     19  C   UNL     1       1.877   9.467  17.991  0.00  0.00    +0.000 C 
BRANCH  19  20
ATOM     20  C   UNL     1       0.994  10.515  18.664  0.00  0.00    +0.000 C 
BRANCH  20  21
ATOM     21  C   UNL     1      -0.157   9.867  19.436  0.00  0.00    +0.000 C 
BRANCH  21  22
ATOM     22  C   UNL     1      -0.426  10.597  20.713  0.00  0.00    +0.000 A 
ATOM     23  S   UNL     1      -1.396  12.016  20.718  0.00  0.00    +0.000 S 
ATOM     24  C   UNL     1      -1.152  12.155  22.405  0.00  0.00    +0.000 A 
ATOM     25  N   UNL     1      -0.412  11.228  22.963  0.00  0.00    +0.000 NA
ATOM     26  C   UNL     1       0.007  10.327  22.002  0.00  0.00    +0.000 A 
ATOM     27  C   UNL     1       0.874   9.192  22.432  0.00  0.00    +0.000 C 
ENDBRANCH  21  22
ENDBRANCH  20  21
ENDBRANCH  19  20
ENDBRANCH  18  19
ENDBRANCH   4  18
TORSDOF 13
ENDMDL
MODEL 5
REMARK VINA RESULT:      -6.6      1.878      2.362
REMARK  Name = 
REMARK  17 active torsions:
REMARK  status: ('A' for Active; 'I' for Inactive)
REMARK    1  A    between atoms: C_1  and  C_2
REMARK    2  A    between atoms: C_2  and  C_3
REMARK    3  A    between atoms: C_3  and  C_4
REMARK    4  A    between atoms: C_4  and  C_5
REMARK    5  A    between atoms: C_5  and  C_6
REMARK    6  A    between atoms: C_6  and  O_7
REMARK    7  A    between atoms: O_7  and  C_8
REMARK    8  A    between atoms: C_9  and  O_10
REMARK    9  A    between atoms: O_10  and  C_11
REMARK   10  A    between atoms: C_13  and  C_14
REMARK   11  A    between atoms: C_14  and  C_15
REMARK   12  A    between atoms: C_15  and  C_16
REMARK   13  A    between atoms: C_16  and  C_17
REMARK   14  A    between atoms: C_17  and  C_18
REMARK   15  A    between atoms: C_22  and  C_23
REMARK   16  A    between atoms: C_25  and  O_26
REMARK   17  A    between atoms: O_26  and  C_27
REMARK                            x       y       z     vdW  Elec       q    Type
REMARK                         _______ _______ _______ _____ _____    ______ ____
ROOT
ATOM      1  C   UNL     1       5.403   4.991  17.181  0.00  0.00    +0.000 A 
ATOM      2  C   UNL     1       4.213   4.455  17.759  0.00  0.00    +0.000 A 
ATOM      3  C   UNL     1       3.192   5.307  18.191  0.00  0.00    +0.000 A 
ATOM      4  C   UNL     1       3.328   6.689  18.145  0.00  0.00    +0.000 A 
ATOM      5  C   UNL     1       4.505   7.222  17.629  0.00  0.00    +0.000 A 
ATOM      6  C   UNL     1       5.535   6.398  17.131  0.00  0.00    +0.000 A 
ENDROOT
BRANCH   2   7
ATOM      7  O   UNL     1       3.986   3.099  17.797  0.00  0.00    +0.000 OA
ATOM      8  C   UNL     1       2.881   2.634  18.567  0.00  0.00    +0.000 C 
ENDBRANCH   2   7
BRANCH   6   9
ATOM      9  O   UNL     1       6.577   7.162  16.664  0.00  0.00    +0.000 OA
ATOM     10  C   UNL     1       7.603   7.580  17.551  0.00  0.00    +0.000 C 
ENDBRANCH   6   9
BRANCH   1  11
ATOM     11  O   UNL     1       6.450   4.243  16.668  0.00  0.00    +0.000 OA
BRANCH  11  12
ATOM     12  C   UNL     1       6.239   3.652  15.391  0.00  0.00    +0.000 C 
BRANCH  12  13
ATOM     13  C   UNL     1       6.558   4.585  14.227  0.00  0.00    +0.000 C 
BRANCH  13  14
ATOM     14  C   UNL     1       6.378   3.793  12.924  0.00  0.00    +0.000 C 
BRANCH  14  15
ATOM     15  C   UNL     1       4.921   3.685  12.490  0.00  0.00    +0.000 C 
BRANCH  15  17
ATOM     16  C   UNL     1       5.860   1.640  11.363  0.00  0.00    +0.000 C 
ATOM     17  C   UNL     1       4.777   2.704  11.324  0.00  0.00    +0.000 C 
ENDBRANCH  15  17
ENDBRANCH  14  15
ENDBRANCH  13  14
ENDBRANCH  12  13
ENDBRANCH  11  12
ENDBRANCH   1  11
BRANCH   4  18
ATOM     18  C   UNL     1       2.192   7.569  18.602  0.00  0.00    +0.000 C 
BRANCH  18  19
ATOM     19  C   UNL     1       2.046   8.835  17.747  0.00  0.00    +0.000 C 
BRANCH  19  20
ATOM     20  C   UNL     1       0.748   9.562  18.088  0.00  0.00    +0.000 C 
BRANCH  20  21
ATOM     21  C   UNL     1       0.847  10.287  19.431  0.00  0.00    +0.000 C 
BRANCH  21  22
ATOM     22  C   UNL     1       0.476  11.729  19.291  0.00  0.00    +0.000 A 
ATOM     23  S   UNL     1      -1.059  12.290  19.822  0.00  0.00    +0.000 S 
ATOM     24  C   UNL     1      -0.646  13.864  19.294  0.00  0.00    +0.000 A 
ATOM     25  N   UNL     1       0.543  14.004  18.762  0.00  0.00    +0.000 NA
ATOM     26  C   UNL     1       1.197  12.787  18.758  0.00  0.00    +0.000 A 
ATOM     27  C   UNL     1       2.572  12.728  18.181  0.00  0.00    +0.000 C 
ENDBRANCH  21  22
ENDBRANCH  20  21
ENDBRANCH  19  20
ENDBRANCH  18  19
ENDBRANCH   4  18
TORSDOF 13
ENDMDL
MODEL 6
REMARK VINA RESULT:      -6.6      4.543      7.373
REMARK  Name = 
REMARK  17 active torsions:
REMARK  status: ('A' for Active; 'I' for Inactive)
REMARK    1  A    between atoms: C_1  and  C_2
REMARK    2  A    between atoms: C_2  and  C_3
REMARK    3  A    between atoms: C_3  and  C_4
REMARK    4  A    between atoms: C_4  and  C_5
REMARK    5  A    between atoms: C_5  and  C_6
REMARK    6  A    between atoms: C_6  and  O_7
REMARK    7  A    between atoms: O_7  and  C_8
REMARK    8  A    between atoms: C_9  and  O_10
REMARK    9  A    between atoms: O_10  and  C_11
REMARK   10  A    between atoms: C_13  and  C_14
REMARK   11  A    between atoms: C_14  and  C_15
REMARK   12  A    between atoms: C_15  and  C_16
REMARK   13  A    between atoms: C_16  and  C_17
REMARK   14  A    between atoms: C_17  and  C_18
REMARK   15  A    between atoms: C_22  and  C_23
REMARK   16  A    between atoms: C_25  and  O_26
REMARK   17  A    between atoms: O_26  and  C_27
REMARK                            x       y       z     vdW  Elec       q    Type
REMARK                         _______ _______ _______ _____ _____    ______ ____
ROOT
ATOM      1  C   UNL     1       5.099   4.336  17.386  0.00  0.00    +0.000 A 
ATOM      2  C   UNL     1       5.528   4.432  18.744  0.00  0.00    +0.000 A 
ATOM      3  C   UNL     1       6.535   5.331  19.104  0.00  0.00    +0.000 A 
ATOM      4  C   UNL     1       7.201   6.098  18.156  0.00  0.00    +0.000 A 
ATOM      5  C   UNL     1       6.825   5.975  16.822  0.00  0.00    +0.000 A 
ATOM      6  C   UNL     1       5.775   5.121  16.425  0.00  0.00    +0.000 A 
ENDROOT
BRANCH   2   7
ATOM      7  O   UNL     1       4.887   3.740  19.746  0.00  0.00    +0.000 OA
ATOM      8  C   UNL     1       4.869   2.317  19.660  0.00  0.00    +0.000 C 
ENDBRANCH   2   7
BRANCH   6   9
ATOM      9  O   UNL     1       5.589   5.191  15.065  0.00  0.00    +0.000 OA
ATOM     10  C   UNL     1       6.255   4.276  14.210  0.00  0.00    +0.000 C 
ENDBRANCH   6   9
BRANCH   1  11
ATOM     11  O   UNL     1       4.075   3.525  16.926  0.00  0.00    +0.000 OA
BRANCH  11  12
ATOM     12  C   UNL     1       2.749   3.967  17.195  0.00  0.00    +0.000 C 
BRANCH  12  13
ATOM     13  C   UNL     1       2.677   5.402  17.705  0.00  0.00    +0.000 C 
BRANCH  13  14
ATOM     14  C   UNL     1       1.956   5.386  19.061  0.00  0.00    +0.000 C 
BRANCH  14  15
ATOM     15  C   UNL     1       1.447   4.002  19.447  0.00  0.00    +0.000 C 
BRANCH  15  17
ATOM     16  C   UNL     1       1.641   2.567  21.506  0.00  0.00    +0.000 C 
ATOM     17  C   UNL     1       1.210   3.916  20.957  0.00  0.00    +0.000 C 
ENDBRANCH  15  17
ENDBRANCH  14  15
ENDBRANCH  13  14
ENDBRANCH  12  13
ENDBRANCH  11  12
ENDBRANCH   1  11
BRANCH   4  18
ATOM     18  C   UNL     1       8.267   7.070  18.593  0.00  0.00    +0.000 C 
BRANCH  18  19
ATOM     19  C   UNL     1       8.113   8.449  17.936  0.00  0.00    +0.000 C 
BRANCH  19  20
ATOM     20  C   UNL     1       8.766   9.527  18.797  0.00  0.00    +0.000 C 
BRANCH  20  21
ATOM     21  C   UNL     1       9.191  10.734  17.959  0.00  0.00    +0.000 C 
BRANCH  21  22
ATOM     22  C   UNL     1       9.797  11.797  18.819  0.00  0.00    +0.000 A 
ATOM     23  S   UNL     1       9.605  11.752  20.526  0.00  0.00    +0.000 S 
ATOM     24  C   UNL     1      10.501  13.205  20.647  0.00  0.00    +0.000 A 
ATOM     25  N   UNL     1      10.934  13.715  19.519  0.00  0.00    +0.000 NA
ATOM     26  C   UNL     1      10.539  12.914  18.465  0.00  0.00    +0.000 A 
ATOM     27  C   UNL     1      10.926  13.326  17.085  0.00  0.00    +0.000 C 
ENDBRANCH  21  22
ENDBRANCH  20  21
ENDBRANCH  19  20
ENDBRANCH  18  19
ENDBRANCH   4  18
TORSDOF 13
ENDMDL
MODEL 7
REMARK VINA RESULT:      -6.5      4.431      7.575
REMARK  Name = 
REMARK  17 active torsions:
REMARK  status: ('A' for Active; 'I' for Inactive)
REMARK    1  A    between atoms: C_1  and  C_2
REMARK    2  A    between atoms: C_2  and  C_3
REMARK    3  A    between atoms: C_3  and  C_4
REMARK    4  A    between atoms: C_4  and  C_5
REMARK    5  A    between atoms: C_5  and  C_6
REMARK    6  A    between atoms: C_6  and  O_7
REMARK    7  A    between atoms: O_7  and  C_8
REMARK    8  A    between atoms: C_9  and  O_10
REMARK    9  A    between atoms: O_10  and  C_11
REMARK   10  A    between atoms: C_13  and  C_14
REMARK   11  A    between atoms: C_14  and  C_15
REMARK   12  A    between atoms: C_15  and  C_16
REMARK   13  A    between atoms: C_16  and  C_17
REMARK   14  A    between atoms: C_17  and  C_18
REMARK   15  A    between atoms: C_22  and  C_23
REMARK   16  A    between atoms: C_25  and  O_26
REMARK   17  A    between atoms: O_26  and  C_27
REMARK                            x       y       z     vdW  Elec       q    Type
REMARK                         _______ _______ _______ _____ _____    ______ ____
ROOT
ATOM      1  C   UNL     1       4.835   5.087  16.912  0.00  0.00    +0.000 A 
ATOM      2  C   UNL     1       6.045   4.865  16.188  0.00  0.00    +0.000 A 
ATOM      3  C   UNL     1       7.131   5.731  16.346  0.00  0.00    +0.000 A 
ATOM      4  C   UNL     1       7.048   6.867  17.142  0.00  0.00    +0.000 A 
ATOM      5  C   UNL     1       5.856   7.120  17.812  0.00  0.00    +0.000 A 
ATOM      6  C   UNL     1       4.756   6.241  17.724  0.00  0.00    +0.000 A 
ENDROOT
BRANCH   2   7
ATOM      7  O   UNL     1       6.219   3.739  15.418  0.00  0.00    +0.000 OA
ATOM      8  C   UNL     1       6.046   3.868  14.009  0.00  0.00    +0.000 C 
ENDBRANCH   2   7
BRANCH   6   9
ATOM      9  O   UNL     1       3.711   6.704  18.488  0.00  0.00    +0.000 OA
ATOM     10  C   UNL     1       2.820   7.671  17.958  0.00  0.00    +0.000 C 
ENDBRANCH   6   9
BRANCH   1  11
ATOM     11  O   UNL     1       3.720   4.266  16.878  0.00  0.00    +0.000 OA
BRANCH  11  12
ATOM     12  C   UNL     1       3.763   3.107  17.702  0.00  0.00    +0.000 C 
BRANCH  12  13
ATOM     13  C   UNL     1       2.468   2.302  17.690  0.00  0.00    +0.000 C 
BRANCH  13  14
ATOM     14  C   UNL     1       2.080   2.008  19.146  0.00  0.00    +0.000 C 
BRANCH  14  15
ATOM     15  C   UNL     1       0.837   2.768  19.595  0.00  0.00    +0.000 C 
BRANCH  15  17
ATOM     16  C   UNL     1       2.139   3.401  21.655  0.00  0.00    +0.000 C 
ATOM     17  C   UNL     1       1.214   3.898  20.557  0.00  0.00    +0.000 C 
ENDBRANCH  15  17
ENDBRANCH  14  15
ENDBRANCH  13  14
ENDBRANCH  12  13
ENDBRANCH  11  12
ENDBRANCH   1  11
BRANCH   4  18
ATOM     18  C   UNL     1       8.252   7.761  17.299  0.00  0.00    +0.000 C 
BRANCH  18  19
ATOM     19  C   UNL     1       7.938   9.039  18.089  0.00  0.00    +0.000 C 
BRANCH  19  20
ATOM     20  C   UNL     1       9.180   9.527  18.830  0.00  0.00    +0.000 C 
BRANCH  20  21
ATOM     21  C   UNL     1       8.899  10.812  19.610  0.00  0.00    +0.000 C 
BRANCH  21  22
ATOM     22  C   UNL     1       9.572  11.986  18.971  0.00  0.00    +0.000 A 
ATOM     23  S   UNL     1       8.706  13.006  17.893  0.00  0.00    +0.000 S 
ATOM     24  C   UNL     1      10.123  13.938  17.666  0.00  0.00    +0.000 A 
ATOM     25  N   UNL     1      11.184  13.553  18.333  0.00  0.00    +0.000 NA
ATOM     26  C   UNL     1      10.878  12.436  19.087  0.00  0.00    +0.000 A 
ATOM     27  C   UNL     1      11.959  11.831  19.918  0.00  0.00    +0.000 C 
ENDBRANCH  21  22
ENDBRANCH  20  21
ENDBRANCH  19  20
ENDBRANCH  18  19
ENDBRANCH   4  18
TORSDOF 13
ENDMDL
MODEL 8
REMARK VINA RESULT:      -6.4      4.541      7.033
REMARK  Name = 
REMARK  17 active torsions:
REMARK  status: ('A' for Active; 'I' for Inactive)
REMARK    1  A    between atoms: C_1  and  C_2
REMARK    2  A    between atoms: C_2  and  C_3
REMARK    3  A    between atoms: C_3  and  C_4
REMARK    4  A    between atoms: C_4  and  C_5
REMARK    5  A    between atoms: C_5  and  C_6
REMARK    6  A    between atoms: C_6  and  O_7
REMARK    7  A    between atoms: O_7  and  C_8
REMARK    8  A    between atoms: C_9  and  O_10
REMARK    9  A    between atoms: O_10  and  C_11
REMARK   10  A    between atoms: C_13  and  C_14
REMARK   11  A    between atoms: C_14  and  C_15
REMARK   12  A    between atoms: C_15  and  C_16
REMARK   13  A    between atoms: C_16  and  C_17
REMARK   14  A    between atoms: C_17  and  C_18
REMARK   15  A    between atoms: C_22  and  C_23
REMARK   16  A    between atoms: C_25  and  O_26
REMARK   17  A    between atoms: O_26  and  C_27
REMARK                            x       y       z     vdW  Elec       q    Type
REMARK                         _______ _______ _______ _____ _____    ______ ____
ROOT
ATOM      1  C   UNL     1       4.790   4.778  16.772  0.00  0.00    +0.000 A 
ATOM      2  C   UNL     1       5.953   4.680  15.950  0.00  0.00    +0.000 A 
ATOM      3  C   UNL     1       6.973   5.630  16.055  0.00  0.00    +0.000 A 
ATOM      4  C   UNL     1       6.861   6.730  16.896  0.00  0.00    +0.000 A 
ATOM      5  C   UNL     1       5.709   6.862  17.665  0.00  0.00    +0.000 A 
ATOM      6  C   UNL     1       4.682   5.897  17.629  0.00  0.00    +0.000 A 
ENDROOT
BRANCH   2   7
ATOM      7  O   UNL     1       6.157   3.596  15.128  0.00  0.00    +0.000 OA
ATOM      8  C   UNL     1       6.032   3.798  13.723  0.00  0.00    +0.000 C 
ENDBRANCH   2   7
BRANCH   6   9
ATOM      9  O   UNL     1       3.666   6.246  18.487  0.00  0.00    +0.000 OA
ATOM     10  C   UNL     1       3.583   5.646  19.769  0.00  0.00    +0.000 C 
ENDBRANCH   6   9
BRANCH   1  11
ATOM     11  O   UNL     1       3.747   3.867  16.794  0.00  0.00    +0.000 OA
BRANCH  11  12
ATOM     12  C   UNL     1       3.988   2.645  17.484  0.00  0.00    +0.000 C 
BRANCH  12  13
ATOM     13  C   UNL     1       2.721   1.988  18.020  0.00  0.00    +0.000 C 
BRANCH  13  14
ATOM     14  C   UNL     1       1.655   3.080  18.183  0.00  0.00    +0.000 C 
BRANCH  14  15
ATOM     15  C   UNL     1       0.615   2.742  19.245  0.00  0.00    +0.000 C 
BRANCH  15  17
ATOM     16  C   UNL     1       1.713   2.743  21.511  0.00  0.00    +0.000 C 
ATOM     17  C   UNL     1       0.874   3.540  20.526  0.00  0.00    +0.000 C 
ENDBRANCH  15  17
ENDBRANCH  14  15
ENDBRANCH  13  14
ENDBRANCH  12  13
ENDBRANCH  11  12
ENDBRANCH   1  11
BRANCH   4  18
ATOM     18  C   UNL     1       7.996   7.718  16.992  0.00  0.00    +0.000 C 
BRANCH  18  19
ATOM     19  C   UNL     1       8.195   8.250  18.418  0.00  0.00    +0.000 C 
BRANCH  19  20
ATOM     20  C   UNL     1       8.488   9.748  18.392  0.00  0.00    +0.000 C 
BRANCH  20  21
ATOM     21  C   UNL     1       9.445  10.152  19.516  0.00  0.00    +0.000 C 
BRANCH  21  22
ATOM     22  C   UNL     1       9.393  11.626  19.761  0.00  0.00    +0.000 A 
ATOM     23  S   UNL     1       9.916  12.729  18.552  0.00  0.00    +0.000 S 
ATOM     24  C   UNL     1       9.561  14.028  19.609  0.00  0.00    +0.000 A 
ATOM     25  N   UNL     1       9.079  13.704  20.784  0.00  0.00    +0.000 NA
ATOM     26  C   UNL     1       8.975  12.329  20.881  0.00  0.00    +0.000 A 
ATOM     27  C   UNL     1       8.453  11.751  22.153  0.00  0.00    +0.000 C 
ENDBRANCH  21  22
ENDBRANCH  20  21
ENDBRANCH  19  20
ENDBRANCH  18  19
ENDBRANCH   4  18
TORSDOF 13
ENDMDL
MODEL 9
REMARK VINA RESULT:      -6.4      3.587      6.672
REMARK  Name = 
REMARK  17 active torsions:
REMARK  status: ('A' for Active; 'I' for Inactive)
REMARK    1  A    between atoms: C_1  and  C_2
REMARK    2  A    between atoms: C_2  and  C_3
REMARK    3  A    between atoms: C_3  and  C_4
REMARK    4  A    between atoms: C_4  and  C_5
REMARK    5  A    between atoms: C_5  and  C_6
REMARK    6  A    between atoms: C_6  and  O_7
REMARK    7  A    between atoms: O_7  and  C_8
REMARK    8  A    between atoms: C_9  and  O_10
REMARK    9  A    between atoms: O_10  and  C_11
REMARK   10  A    between atoms: C_13  and  C_14
REMARK   11  A    between atoms: C_14  and  C_15
REMARK   12  A    between atoms: C_15  and  C_16
REMARK   13  A    between atoms: C_16  and  C_17
REMARK   14  A    between atoms: C_17  and  C_18
REMARK   15  A    between atoms: C_22  and  C_23
REMARK   16  A    between atoms: C_25  and  O_26
REMARK   17  A    between atoms: O_26  and  C_27
REMARK                            x       y       z     vdW  Elec       q    Type
REMARK                         _______ _______ _______ _____ _____    ______ ____
ROOT
ATOM      1  C   UNL     1       6.768   5.787  17.253  0.00  0.00    +0.000 A 
ATOM      2  C   UNL     1       6.300   5.192  18.464  0.00  0.00    +0.000 A 
ATOM      3  C   UNL     1       5.414   4.112  18.423  0.00  0.00    +0.000 A 
ATOM      4  C   UNL     1       4.904   3.633  17.223  0.00  0.00    +0.000 A 
ATOM      5  C   UNL     1       5.315   4.238  16.040  0.00  0.00    +0.000 A 
ATOM      6  C   UNL     1       6.250   5.293  16.035  0.00  0.00    +0.000 A 
ENDROOT
BRANCH   2   7
ATOM      7  O   UNL     1       6.794   5.581  19.687  0.00  0.00    +0.000 OA
ATOM      8  C   UNL     1       8.178   5.355  19.944  0.00  0.00    +0.000 C 
ENDBRANCH   2   7
BRANCH   6   9
ATOM      9  O   UNL     1       6.501   5.704  14.747  0.00  0.00    +0.000 OA
ATOM     10  C   UNL     1       7.139   4.825  13.834  0.00  0.00    +0.000 C 
ENDBRANCH   6   9
BRANCH   1  11
ATOM     11  O   UNL     1       7.687   6.820  17.173  0.00  0.00    +0.000 OA
BRANCH  11  12
ATOM     12  C   UNL     1       7.222   8.111  17.552  0.00  0.00    +0.000 C 
BRANCH  12  13
ATOM     13  C   UNL     1       8.300   9.188  17.496  0.00  0.00    +0.000 C 
BRANCH  13  14
ATOM     14  C   UNL     1       8.918   9.311  18.896  0.00  0.00    +0.000 C 
BRANCH  14  15
ATOM     15  C   UNL     1       9.320  10.739  19.245  0.00  0.00    +0.000 C 
BRANCH  15  17
ATOM     16  C   UNL     1      11.605  11.583  18.609  0.00  0.00    +0.000 C 
ATOM     17  C   UNL     1      10.182  11.344  18.134  0.00  0.00    +0.000 C 
ENDBRANCH  15  17
ENDBRANCH  14  15
ENDBRANCH  13  14
ENDBRANCH  12  13
ENDBRANCH  11  12
ENDBRANCH   1  11
BRANCH   4  18
ATOM     18  C   UNL     1       3.967   2.451  17.226  0.00  0.00    +0.000 C 
BRANCH  18  19
ATOM     19  C   UNL     1       3.591   2.001  18.645  0.00  0.00    +0.000 C 
BRANCH  19  20
ATOM     20  C   UNL     1       2.084   1.780  18.753  0.00  0.00    +0.000 C 
BRANCH  20  21
ATOM     21  C   UNL     1       1.302   3.012  18.294  0.00  0.00    +0.000 C 
BRANCH  21  22
ATOM     22  C   UNL     1       1.661   4.212  19.113  0.00  0.00    +0.000 A 
ATOM     23  S   UNL     1       2.077   5.695  18.350  0.00  0.00    +0.000 S 
ATOM     24  C   UNL     1       2.331   6.394  19.891  0.00  0.00    +0.000 A 
ATOM     25  N   UNL     1       2.126   5.613  20.923  0.00  0.00    +0.000 NA
ATOM     26  C   UNL     1       1.737   4.360  20.489  0.00  0.00    +0.000 A 
ATOM     27  C   UNL     1       1.462   3.314  21.515  0.00  0.00    +0.000 C 
ENDBRANCH  21  22
ENDBRANCH  20  21
ENDBRANCH  19  20
ENDBRANCH  18  19
ENDBRANCH   4  18
TORSDOF 13
ENDMDL
