MODEL 1
REMARK VINA RESULT:      -9.3      0.000      0.000
REMARK  Name = 
REMARK  6 active torsions:
REMARK  status: ('A' for Active; 'I' for Inactive)
REMARK    1  A    between atoms: C_2  and  C_11
REMARK    2  A    between atoms: N_3  and  C_4
REMARK    3  A    between atoms: C_4  and  C_5
REMARK    4  A    between atoms: C_5  and  N_6
REMARK    5  A    between atoms: N_17  and  C_18
REMARK    6  A    between atoms: C_18  and  C_19
REMARK                            x       y       z     vdW  Elec       q    Type
REMARK                         _______ _______ _______ _____ _____    ______ ____
ROOT
ATOM      1  C   UNL     1       3.599   5.179  18.965  0.00  0.00    +0.000 A 
ATOM      2  C   UNL     1       3.569   5.781  17.699  0.00  0.00    +0.000 A 
ATOM      3  C   UNL     1       3.091   7.073  17.535  0.00  0.00    +0.000 A 
ATOM      4  C   UNL     1       2.461   7.695  18.603  0.00  0.00    +0.000 A 
ATOM      5  C   UNL     1       1.876   9.028  18.424  0.00  0.00    +0.000 A 
ATOM      6  O   UNL     1       2.047   9.609  17.354  0.00  0.00    +0.000 OA
ATOM      7  N   UNL     1       1.154   9.536  19.493  0.00  0.00    +0.000 N 
ATOM      8  C   UNL     1       0.949   8.862  20.685  0.00  0.00    +0.000 A 
ATOM      9  O   UNL     1       0.246   9.283  21.604  0.00  0.00    +0.000 OA
ATOM     10  N   UNL     1       1.581   7.655  20.830  0.00  0.00    +0.000 N 
ATOM     11  C   UNL     1       2.334   7.047  19.829  0.00  0.00    +0.000 A 
ATOM     12  C   UNL     1       2.936   5.799  20.032  0.00  0.00    +0.000 A 
ATOM     13  H   UNL     1       1.423   7.182  21.714  0.00  0.00    +0.000 HD
ENDROOT
BRANCH   1  15
ATOM     14  O   UNL     1       3.823   2.971  19.787  0.00  0.00    +0.000 OA
ATOM     15  C   UNL     1       4.359   3.908  19.206  0.00  0.00    +0.000 C 
ATOM     16  N   UNL     1       5.690   3.844  18.816  0.00  0.00    +0.000 N 
ATOM     17  H   UNL     1       6.125   2.931  18.907  0.00  0.00    +0.000 HD
BRANCH  16  18
ATOM     18  C   UNL     1       6.400   4.874  18.083  0.00  0.00    +0.000 C 
BRANCH  18  19
ATOM     19  C   UNL     1       7.080   4.513  16.764  0.00  0.00    +0.000 C 
BRANCH  19  20
ATOM     20  N   UNL     1       6.831   5.416  15.629  0.00  0.00    +0.000 NA
ATOM     21  C   UNL     1       5.415   5.268  15.216  0.00  0.00    +0.000 C 
ATOM     22  C   UNL     1       5.418   4.079  14.268  0.00  0.00    +0.000 C 
ATOM     23  C   UNL     1       6.698   4.276  13.485  0.00  0.00    +0.000 C 
ATOM     24  C   UNL     1       7.603   5.088  14.414  0.00  0.00    +0.000 C 
ENDBRANCH  19  20
ENDBRANCH  18  19
ENDBRANCH  16  18
ENDBRANCH   1  15
BRANCH   7  25
ATOM     25  C   UNL     1       0.639  10.892  19.356  0.00  0.00    +0.000 C 
BRANCH  25  26
ATOM     26  C   UNL     1      -0.812  10.850  18.914  0.00  0.00    +0.000 A 
ATOM     27  C   UNL     1      -1.215  10.020  17.855  0.00  0.00    +0.000 A 
ATOM     28  C   UNL     1      -2.508  10.108  17.337  0.00  0.00    +0.000 A 
ATOM     29  C   UNL     1      -3.409  11.020  17.882  0.00  0.00    +0.000 A 
ATOM     30 CL   UNL     1      -4.978  11.186  17.198  0.00  0.00    +0.000 Cl
ATOM     31  C   UNL     1      -3.035  11.821  18.959  0.00  0.00    +0.000 A 
ATOM     32  C   UNL     1      -1.742  11.738  19.474  0.00  0.00    +0.000 A 
ENDBRANCH  25  26
ENDBRANCH   7  25
TORSDOF 6
ENDMDL
MODEL 2
REMARK VINA RESULT:      -9.2      1.855      3.418
REMARK  Name = 
REMARK  6 active torsions:
REMARK  status: ('A' for Active; 'I' for Inactive)
REMARK    1  A    between atoms: C_2  and  C_11
REMARK    2  A    between atoms: N_3  and  C_4
REMARK    3  A    between atoms: C_4  and  C_5
REMARK    4  A    between atoms: C_5  and  N_6
REMARK    5  A    between atoms: N_17  and  C_18
REMARK    6  A    between atoms: C_18  and  C_19
REMARK                            x       y       z     vdW  Elec       q    Type
REMARK                         _______ _______ _______ _____ _____    ______ ____
ROOT
ATOM      1  C   UNL     1       4.248   5.621  18.349  0.00  0.00    +0.000 A 
ATOM      2  C   UNL     1       4.215   6.451  17.219  0.00  0.00    +0.000 A 
ATOM      3  C   UNL     1       3.590   7.689  17.260  0.00  0.00    +0.000 A 
ATOM      4  C   UNL     1       2.827   8.016  18.372  0.00  0.00    +0.000 A 
ATOM      5  C   UNL     1       2.091   9.285  18.397  0.00  0.00    +0.000 A 
ATOM      6  O   UNL     1       2.248  10.078  17.471  0.00  0.00    +0.000 OA
ATOM      7  N   UNL     1       1.250   9.492  19.480  0.00  0.00    +0.000 N 
ATOM      8  C   UNL     1       1.064   8.580  20.506  0.00  0.00    +0.000 A 
ATOM      9  O   UNL     1       0.262   8.734  21.428  0.00  0.00    +0.000 OA
ATOM     10  N   UNL     1       1.832   7.446  20.474  0.00  0.00    +0.000 N 
ATOM     11  C   UNL     1       2.711   7.132  19.441  0.00  0.00    +0.000 A 
ATOM     12  C   UNL     1       3.453   5.944  19.456  0.00  0.00    +0.000 A 
ATOM     13  H   UNL     1       1.684   6.796  21.239  0.00  0.00    +0.000 HD
ENDROOT
BRANCH   1  15
ATOM     14  O   UNL     1       6.198   4.470  19.037  0.00  0.00    +0.000 OA
ATOM     15  C   UNL     1       5.146   4.421  18.410  0.00  0.00    +0.000 C 
ATOM     16  N   UNL     1       4.790   3.287  17.692  0.00  0.00    +0.000 N 
ATOM     17  H   UNL     1       5.375   2.472  17.850  0.00  0.00    +0.000 HD
BRANCH  16  18
ATOM     18  C   UNL     1       3.551   3.112  16.959  0.00  0.00    +0.000 C 
BRANCH  18  19
ATOM     19  C   UNL     1       2.223   3.281  17.694  0.00  0.00    +0.000 C 
BRANCH  19  20
ATOM     20  N   UNL     1       1.864   2.223  18.652  0.00  0.00    +0.000 NA
ATOM     21  C   UNL     1       0.501   2.502  19.167  0.00  0.00    +0.000 C 
ATOM     22  C   UNL     1       0.722   3.470  20.320  0.00  0.00    +0.000 C 
ATOM     23  C   UNL     1       1.975   2.930  20.976  0.00  0.00    +0.000 C 
ATOM     24  C   UNL     1       2.711   2.186  19.860  0.00  0.00    +0.000 C 
ENDBRANCH  19  20
ENDBRANCH  18  19
ENDBRANCH  16  18
ENDBRANCH   1  15
BRANCH   7  25
ATOM     25  C   UNL     1       0.578  10.782  19.557  0.00  0.00    +0.000 C 
BRANCH  25  26
ATOM     26  C   UNL     1      -0.772  10.702  18.869  0.00  0.00    +0.000 A 
ATOM     27  C   UNL     1      -0.948   9.901  17.729  0.00  0.00    +0.000 A 
ATOM     28  C   UNL     1      -2.136   9.960  16.998  0.00  0.00    +0.000 A 
ATOM     29  C   UNL     1      -3.158  10.813  17.409  0.00  0.00    +0.000 A 
ATOM     30 CL   UNL     1      -4.593  10.946  16.471  0.00  0.00    +0.000 Cl
ATOM     31  C   UNL     1      -3.012  11.582  18.562  0.00  0.00    +0.000 A 
ATOM     32  C   UNL     1      -1.824  11.529  19.290  0.00  0.00    +0.000 A 
ENDBRANCH  25  26
ENDBRANCH   7  25
TORSDOF 6
ENDMDL
MODEL 3
REMARK VINA RESULT:      -9.0      0.984      1.303
REMARK  Name = 
REMARK  6 active torsions:
REMARK  status: ('A' for Active; 'I' for Inactive)
REMARK    1  A    between atoms: C_2  and  C_11
REMARK    2  A    between atoms: N_3  and  C_4
REMARK    3  A    between atoms: C_4  and  C_5
REMARK    4  A    between atoms: C_5  and  N_6
REMARK    5  A    between atoms: N_17  and  C_18
REMARK    6  A    between atoms: C_18  and  C_19
REMARK                            x       y       z     vdW  Elec       q    Type
REMARK                         _______ _______ _______ _____ _____    ______ ____
ROOT
ATOM      1  C   UNL     1       3.078   4.688  19.500  0.00  0.00    +0.000 A 
ATOM      2  C   UNL     1       3.043   5.091  18.157  0.00  0.00    +0.000 A 
ATOM      3  C   UNL     1       2.726   6.397  17.813  0.00  0.00    +0.000 A 
ATOM      4  C   UNL     1       2.254   7.253  18.797  0.00  0.00    +0.000 A 
ATOM      5  C   UNL     1       1.835   8.612  18.436  0.00  0.00    +0.000 A 
ATOM      6  O   UNL     1       2.008   8.997  17.281  0.00  0.00    +0.000 OA
ATOM      7  N   UNL     1       1.256   9.370  19.443  0.00  0.00    +0.000 N 
ATOM      8  C   UNL     1       1.045   8.917  20.734  0.00  0.00    +0.000 A 
ATOM      9  O   UNL     1       0.464   9.565  21.605  0.00  0.00    +0.000 OA
ATOM     10  N   UNL     1       1.523   7.671  21.040  0.00  0.00    +0.000 N 
ATOM     11  C   UNL     1       2.124   6.821  20.114  0.00  0.00    +0.000 A 
ATOM     12  C   UNL     1       2.572   5.547  20.484  0.00  0.00    +0.000 A 
ATOM     13  H   UNL     1       1.364   7.362  21.993  0.00  0.00    +0.000 HD
ENDROOT
BRANCH   1  15
ATOM     14  O   UNL     1       3.167   2.710  20.795  0.00  0.00    +0.000 OA
ATOM     15  C   UNL     1       3.681   3.375  19.904  0.00  0.00    +0.000 C 
ATOM     16  N   UNL     1       4.861   2.969  19.295  0.00  0.00    +0.000 N 
ATOM     17  H   UNL     1       5.169   2.030  19.529  0.00  0.00    +0.000 HD
BRANCH  16  18
ATOM     18  C   UNL     1       5.523   3.658  18.204  0.00  0.00    +0.000 C 
BRANCH  18  19
ATOM     19  C   UNL     1       6.672   4.614  18.516  0.00  0.00    +0.000 C 
BRANCH  19  20
ATOM     20  N   UNL     1       7.442   5.113  17.366  0.00  0.00    +0.000 NA
ATOM     21  C   UNL     1       7.288   6.586  17.303  0.00  0.00    +0.000 C 
ATOM     22  C   UNL     1       5.996   6.800  16.529  0.00  0.00    +0.000 C 
ATOM     23  C   UNL     1       6.064   5.730  15.460  0.00  0.00    +0.000 C 
ATOM     24  C   UNL     1       6.953   4.637  16.057  0.00  0.00    +0.000 C 
ENDBRANCH  19  20
ENDBRANCH  18  19
ENDBRANCH  16  18
ENDBRANCH   1  15
BRANCH   7  25
ATOM     25  C   UNL     1       0.913  10.748  19.116  0.00  0.00    +0.000 C 
BRANCH  25  26
ATOM     26  C   UNL     1      -0.575  10.856  18.836  0.00  0.00    +0.000 A 
ATOM     27  C   UNL     1      -1.163  10.117  17.796  0.00  0.00    +0.000 A 
ATOM     28  C   UNL     1      -2.491  10.344  17.429  0.00  0.00    +0.000 A 
ATOM     29  C   UNL     1      -3.240  11.305  18.105  0.00  0.00    +0.000 A 
ATOM     30 CL   UNL     1      -4.850  11.642  17.606  0.00  0.00    +0.000 Cl
ATOM     31  C   UNL     1      -2.681  12.015  19.165  0.00  0.00    +0.000 A 
ATOM     32  C   UNL     1      -1.353  11.793  19.531  0.00  0.00    +0.000 A 
ENDBRANCH  25  26
ENDBRANCH   7  25
TORSDOF 6
ENDMDL
MODEL 4
REMARK VINA RESULT:      -8.9      2.951      4.516
REMARK  Name = 
REMARK  6 active torsions:
REMARK  status: ('A' for Active; 'I' for Inactive)
REMARK    1  A    between atoms: C_2  and  C_11
REMARK    2  A    between atoms: N_3  and  C_4
REMARK    3  A    between atoms: C_4  and  C_5
REMARK    4  A    between atoms: C_5  and  N_6
REMARK    5  A    between atoms: N_17  and  C_18
REMARK    6  A    between atoms: C_18  and  C_19
REMARK                            x       y       z     vdW  Elec       q    Type
REMARK                         _______ _______ _______ _____ _____    ______ ____
ROOT
ATOM      1  C   UNL     1       4.675   5.339  18.505  0.00  0.00    +0.000 A 
ATOM      2  C   UNL     1       4.370   5.883  17.249  0.00  0.00    +0.000 A 
ATOM      3  C   UNL     1       3.563   7.005  17.133  0.00  0.00    +0.000 A 
ATOM      4  C   UNL     1       2.898   7.471  18.259  0.00  0.00    +0.000 A 
ATOM      5  C   UNL     1       1.976   8.605  18.139  0.00  0.00    +0.000 A 
ATOM      6  O   UNL     1       1.889   9.184  17.058  0.00  0.00    +0.000 OA
ATOM      7  N   UNL     1       1.251   8.937  19.274  0.00  0.00    +0.000 N 
ATOM      8  C   UNL     1       1.341   8.261  20.480  0.00  0.00    +0.000 A 
ATOM      9  O   UNL     1       0.644   8.511  21.463  0.00  0.00    +0.000 OA
ATOM     10  N   UNL     1       2.273   7.260  20.561  0.00  0.00    +0.000 N 
ATOM     11  C   UNL     1       3.058   6.841  19.490  0.00  0.00    +0.000 A 
ATOM     12  C   UNL     1       3.978   5.795  19.633  0.00  0.00    +0.000 A 
ATOM     13  H   UNL     1       2.326   6.784  21.456  0.00  0.00    +0.000 HD
ENDROOT
BRANCH   1  15
ATOM     14  O   UNL     1       6.883   4.531  18.244  0.00  0.00    +0.000 OA
ATOM     15  C   UNL     1       5.755   4.312  18.670  0.00  0.00    +0.000 C 
ATOM     16  N   UNL     1       5.431   3.093  19.252  0.00  0.00    +0.000 N 
ATOM     17  H   UNL     1       6.217   2.477  19.434  0.00  0.00    +0.000 HD
BRANCH  16  18
ATOM     18  C   UNL     1       4.144   2.753  19.827  0.00  0.00    +0.000 C 
BRANCH  18  19
ATOM     19  C   UNL     1       3.178   1.885  19.025  0.00  0.00    +0.000 C 
BRANCH  19  20
ATOM     20  N   UNL     1       1.797   1.801  19.528  0.00  0.00    +0.000 NA
ATOM     21  C   UNL     1       0.891   2.370  18.501  0.00  0.00    +0.000 C 
ATOM     22  C   UNL     1       0.899   3.867  18.775  0.00  0.00    +0.000 C 
ATOM     23  C   UNL     1       0.904   3.932  20.287  0.00  0.00    +0.000 C 
ATOM     24  C   UNL     1       1.542   2.614  20.733  0.00  0.00    +0.000 C 
ENDBRANCH  19  20
ENDBRANCH  18  19
ENDBRANCH  16  18
ENDBRANCH   1  15
BRANCH   7  25
ATOM     25  C   UNL     1       0.394  10.111  19.189  0.00  0.00    +0.000 C 
BRANCH  25  26
ATOM     26  C   UNL     1       1.199  11.360  19.499  0.00  0.00    +0.000 A 
ATOM     27  C   UNL     1       1.103  11.980  20.756  0.00  0.00    +0.000 A 
ATOM     28  C   UNL     1       1.707  13.218  20.983  0.00  0.00    +0.000 A 
ATOM     29  C   UNL     1       2.417  13.838  19.957  0.00  0.00    +0.000 A 
ATOM     30 CL   UNL     1       3.097  15.397  20.209  0.00  0.00    +0.000 Cl
ATOM     31  C   UNL     1       2.554  13.215  18.718  0.00  0.00    +0.000 A 
ATOM     32  C   UNL     1       1.947  11.981  18.488  0.00  0.00    +0.000 A 
ENDBRANCH  25  26
ENDBRANCH   7  25
TORSDOF 6
ENDMDL
MODEL 5
REMARK VINA RESULT:      -8.7      1.537      1.991
REMARK  Name = 
REMARK  6 active torsions:
REMARK  status: ('A' for Active; 'I' for Inactive)
REMARK    1  A    between atoms: C_2  and  C_11
REMARK    2  A    between atoms: N_3  and  C_4
REMARK    3  A    between atoms: C_4  and  C_5
REMARK    4  A    between atoms: C_5  and  N_6
REMARK    5  A    between atoms: N_17  and  C_18
REMARK    6  A    between atoms: C_18  and  C_19
REMARK                            x       y       z     vdW  Elec       q    Type
REMARK                         _______ _______ _______ _____ _____    ______ ____
ROOT
ATOM      1  C   UNL     1       2.865   4.628  19.125  0.00  0.00    +0.000 A 
ATOM      2  C   UNL     1       2.752   5.173  17.838  0.00  0.00    +0.000 A 
ATOM      3  C   UNL     1       2.462   6.517  17.654  0.00  0.00    +0.000 A 
ATOM      4  C   UNL     1       2.092   7.278  18.753  0.00  0.00    +0.000 A 
ATOM      5  C   UNL     1       1.701   8.680  18.566  0.00  0.00    +0.000 A 
ATOM      6  O   UNL     1       1.808   9.178  17.447  0.00  0.00    +0.000 OA
ATOM      7  N   UNL     1       1.222   9.344  19.685  0.00  0.00    +0.000 N 
ATOM      8  C   UNL     1       1.085   8.764  20.934  0.00  0.00    +0.000 A 
ATOM      9  O   UNL     1       0.590   9.334  21.908  0.00  0.00    +0.000 OA
ATOM     10  N   UNL     1       1.535   7.478  21.074  0.00  0.00    +0.000 N 
ATOM     11  C   UNL     1       2.037   6.713  20.024  0.00  0.00    +0.000 A 
ATOM     12  C   UNL     1       2.462   5.394  20.227  0.00  0.00    +0.000 A 
ATOM     13  H   UNL     1       1.431   7.076  21.999  0.00  0.00    +0.000 HD
ENDROOT
BRANCH   1  15
ATOM     14  O   UNL     1       3.019   2.553  20.251  0.00  0.00    +0.000 OA
ATOM     15  C   UNL     1       3.445   3.263  19.347  0.00  0.00    +0.000 C 
ATOM     16  N   UNL     1       4.508   2.855  18.554  0.00  0.00    +0.000 N 
ATOM     17  H   UNL     1       4.793   1.887  18.674  0.00  0.00    +0.000 HD
BRANCH  16  18
ATOM     18  C   UNL     1       5.054   3.597  17.434  0.00  0.00    +0.000 C 
BRANCH  18  19
ATOM     19  C   UNL     1       6.321   4.424  17.638  0.00  0.00    +0.000 C 
BRANCH  19  20
ATOM     20  N   UNL     1       6.206   5.596  18.520  0.00  0.00    +0.000 NA
ATOM     21  C   UNL     1       6.021   6.800  17.675  0.00  0.00    +0.000 C 
ATOM     22  C   UNL     1       7.434   7.222  17.301  0.00  0.00    +0.000 C 
ATOM     23  C   UNL     1       8.207   6.976  18.579  0.00  0.00    +0.000 C 
ATOM     24  C   UNL     1       7.420   5.884  19.307  0.00  0.00    +0.000 C 
ENDBRANCH  19  20
ENDBRANCH  18  19
ENDBRANCH  16  18
ENDBRANCH   1  15
BRANCH   7  25
ATOM     25  C   UNL     1       0.910  10.758  19.528  0.00  0.00    +0.000 C 
BRANCH  25  26
ATOM     26  C   UNL     1      -0.569  10.930  19.235  0.00  0.00    +0.000 A 
ATOM     27  C   UNL     1      -1.182  10.210  18.197  0.00  0.00    +0.000 A 
ATOM     28  C   UNL     1      -2.495  10.493  17.817  0.00  0.00    +0.000 A 
ATOM     29  C   UNL     1      -3.206  11.491  18.481  0.00  0.00    +0.000 A 
ATOM     30 CL   UNL     1      -4.796  11.895  17.967  0.00  0.00    +0.000 Cl
ATOM     31  C   UNL     1      -2.624  12.185  19.540  0.00  0.00    +0.000 A 
ATOM     32  C   UNL     1      -1.310  11.907  19.917  0.00  0.00    +0.000 A 
ENDBRANCH  25  26
ENDBRANCH   7  25
TORSDOF 6
ENDMDL
MODEL 6
REMARK VINA RESULT:      -8.6      1.438      2.552
REMARK  Name = 
REMARK  6 active torsions:
REMARK  status: ('A' for Active; 'I' for Inactive)
REMARK    1  A    between atoms: C_2  and  C_11
REMARK    2  A    between atoms: N_3  and  C_4
REMARK    3  A    between atoms: C_4  and  C_5
REMARK    4  A    between atoms: C_5  and  N_6
REMARK    5  A    between atoms: N_17  and  C_18
REMARK    6  A    between atoms: C_18  and  C_19
REMARK                            x       y       z     vdW  Elec       q    Type
REMARK                         _______ _______ _______ _____ _____    ______ ____
ROOT
ATOM      1  C   UNL     1       2.657   4.642  19.011  0.00  0.00    +0.000 A 
ATOM      2  C   UNL     1       2.290   4.848  20.349  0.00  0.00    +0.000 A 
ATOM      3  C   UNL     1       1.754   6.059  20.763  0.00  0.00    +0.000 A 
ATOM      4  C   UNL     1       1.765   7.132  19.883  0.00  0.00    +0.000 A 
ATOM      5  C   UNL     1       1.279   8.441  20.332  0.00  0.00    +0.000 A 
ATOM      6  O   UNL     1       0.777   8.534  21.450  0.00  0.00    +0.000 OA
ATOM      7  N   UNL     1       1.436   9.497  19.446  0.00  0.00    +0.000 N 
ATOM      8  C   UNL     1       2.024   9.383  18.197  0.00  0.00    +0.000 A 
ATOM      9  O   UNL     1       2.229  10.335  17.443  0.00  0.00    +0.000 OA
ATOM     10  N   UNL     1       2.391   8.126  17.796  0.00  0.00    +0.000 N 
ATOM     11  C   UNL     1       2.279   6.992  18.598  0.00  0.00    +0.000 A 
ATOM     12  C   UNL     1       2.694   5.736  18.137  0.00  0.00    +0.000 A 
ATOM     13  H   UNL     1       2.813   8.065  16.876  0.00  0.00    +0.000 HD
ENDROOT
BRANCH   1  15
ATOM     14  O   UNL     1       2.089   2.424  18.411  0.00  0.00    +0.000 OA
ATOM     15  C   UNL     1       2.972   3.270  18.491  0.00  0.00    +0.000 C 
ATOM     16  N   UNL     1       4.288   2.967  18.169  0.00  0.00    +0.000 N 
ATOM     17  H   UNL     1       4.429   2.064  17.725  0.00  0.00    +0.000 HD
BRANCH  16  18
ATOM     18  C   UNL     1       5.394   3.905  18.184  0.00  0.00    +0.000 C 
BRANCH  18  19
ATOM     19  C   UNL     1       5.806   4.590  16.883  0.00  0.00    +0.000 C 
BRANCH  19  20
ATOM     20  N   UNL     1       7.209   5.024  16.784  0.00  0.00    +0.000 NA
ATOM     21  C   UNL     1       7.885   4.712  18.067  0.00  0.00    +0.000 C 
ATOM     22  C   UNL     1       7.579   5.907  18.958  0.00  0.00    +0.000 C 
ATOM     23  C   UNL     1       7.684   7.075  18.001  0.00  0.00    +0.000 C 
ATOM     24  C   UNL     1       7.382   6.481  16.624  0.00  0.00    +0.000 C 
ENDBRANCH  19  20
ENDBRANCH  18  19
ENDBRANCH  16  18
ENDBRANCH   1  15
BRANCH   7  25
ATOM     25  C   UNL     1       0.883  10.783  19.848  0.00  0.00    +0.000 C 
BRANCH  25  26
ATOM     26  C   UNL     1      -0.552  10.899  19.368  0.00  0.00    +0.000 A 
ATOM     27  C   UNL     1      -1.002  10.154  18.266  0.00  0.00    +0.000 A 
ATOM     28  C   UNL     1      -2.265  10.388  17.720  0.00  0.00    +0.000 A 
ATOM     29  C   UNL     1      -3.090  11.362  18.280  0.00  0.00    +0.000 A 
ATOM     30 CL   UNL     1      -4.615  11.706  17.564  0.00  0.00    +0.000 Cl
ATOM     31  C   UNL     1      -2.672  12.080  19.399  0.00  0.00    +0.000 A 
ATOM     32  C   UNL     1      -1.408  11.851  19.942  0.00  0.00    +0.000 A 
ENDBRANCH  25  26
ENDBRANCH   7  25
TORSDOF 6
ENDMDL
MODEL 7
REMARK VINA RESULT:      -8.6      2.353      3.165
REMARK  Name = 
REMARK  6 active torsions:
REMARK  status: ('A' for Active; 'I' for Inactive)
REMARK    1  A    between atoms: C_2  and  C_11
REMARK    2  A    between atoms: N_3  and  C_4
REMARK    3  A    between atoms: C_4  and  C_5
REMARK    4  A    between atoms: C_5  and  N_6
REMARK    5  A    between atoms: N_17  and  C_18
REMARK    6  A    between atoms: C_18  and  C_19
REMARK                            x       y       z     vdW  Elec       q    Type
REMARK                         _______ _______ _______ _____ _____    ______ ____
ROOT
ATOM      1  C   UNL     1       3.482   5.165  19.096  0.00  0.00    +0.000 A 
ATOM      2  C   UNL     1       3.168   5.593  17.798  0.00  0.00    +0.000 A 
ATOM      3  C   UNL     1       2.601   6.839  17.575  0.00  0.00    +0.000 A 
ATOM      4  C   UNL     1       2.166   7.581  18.664  0.00  0.00    +0.000 A 
ATOM      5  C   UNL     1       1.488   8.863  18.443  0.00  0.00    +0.000 A 
ATOM      6  O   UNL     1       1.411   9.301  17.297  0.00  0.00    +0.000 OA
ATOM      7  N   UNL     1       0.968   9.490  19.566  0.00  0.00    +0.000 N 
ATOM      8  C   UNL     1       1.041   8.975  20.849  0.00  0.00    +0.000 A 
ATOM      9  O   UNL     1       0.515   9.497  21.832  0.00  0.00    +0.000 OA
ATOM     10  N   UNL     1       1.751   7.815  21.011  0.00  0.00    +0.000 N 
ATOM     11  C   UNL     1       2.319   7.098  19.961  0.00  0.00    +0.000 A 
ATOM     12  C   UNL     1       3.014   5.904  20.190  0.00  0.00    +0.000 A 
ATOM     13  H   UNL     1       1.797   7.459  21.960  0.00  0.00    +0.000 HD
ENDROOT
BRANCH   1  15
ATOM     14  O   UNL     1       3.877   2.976  19.904  0.00  0.00    +0.000 OA
ATOM     15  C   UNL     1       4.339   3.957  19.333  0.00  0.00    +0.000 C 
ATOM     16  N   UNL     1       5.674   4.003  18.952  0.00  0.00    +0.000 N 
ATOM     17  H   UNL     1       6.180   3.127  19.039  0.00  0.00    +0.000 HD
BRANCH  16  18
ATOM     18  C   UNL     1       6.304   5.092  18.232  0.00  0.00    +0.000 C 
BRANCH  18  19
ATOM     19  C   UNL     1       7.257   4.770  17.083  0.00  0.00    +0.000 C 
BRANCH  19  20
ATOM     20  N   UNL     1       7.058   5.524  15.835  0.00  0.00    +0.000 NA
ATOM     21  C   UNL     1       5.601   5.686  15.613  0.00  0.00    +0.000 C 
ATOM     22  C   UNL     1       5.181   4.407  14.905  0.00  0.00    +0.000 C 
ATOM     23  C   UNL     1       6.339   4.147  13.964  0.00  0.00    +0.000 C 
ATOM     24  C   UNL     1       7.539   4.829  14.625  0.00  0.00    +0.000 C 
ENDBRANCH  19  20
ENDBRANCH  18  19
ENDBRANCH  16  18
ENDBRANCH   1  15
BRANCH   7  25
ATOM     25  C   UNL     1       0.367  10.802  19.369  0.00  0.00    +0.000 C 
BRANCH  25  26
ATOM     26  C   UNL     1       1.430  11.879  19.482  0.00  0.00    +0.000 A 
ATOM     27  C   UNL     1       1.653  12.539  20.702  0.00  0.00    +0.000 A 
ATOM     28  C   UNL     1       2.505  13.642  20.765  0.00  0.00    +0.000 A 
ATOM     29  C   UNL     1       3.147  14.086  19.610  0.00  0.00    +0.000 A 
ATOM     30 CL   UNL     1       4.138  15.490  19.667  0.00  0.00    +0.000 Cl
ATOM     31  C   UNL     1       2.966  13.415  18.402  0.00  0.00    +0.000 A 
ATOM     32  C   UNL     1       2.111  12.315  18.337  0.00  0.00    +0.000 A 
ENDBRANCH  25  26
ENDBRANCH   7  25
TORSDOF 6
ENDMDL
MODEL 8
REMARK VINA RESULT:      -8.6      0.871      2.050
REMARK  Name = 
REMARK  6 active torsions:
REMARK  status: ('A' for Active; 'I' for Inactive)
REMARK    1  A    between atoms: C_2  and  C_11
REMARK    2  A    between atoms: N_3  and  C_4
REMARK    3  A    between atoms: C_4  and  C_5
REMARK    4  A    between atoms: C_5  and  N_6
REMARK    5  A    between atoms: N_17  and  C_18
REMARK    6  A    between atoms: C_18  and  C_19
REMARK                            x       y       z     vdW  Elec       q    Type
REMARK                         _______ _______ _______ _____ _____    ______ ____
ROOT
ATOM      1  C   UNL     1       2.932   4.954  19.030  0.00  0.00    +0.000 A 
ATOM      2  C   UNL     1       2.429   5.114  20.329  0.00  0.00    +0.000 A 
ATOM      3  C   UNL     1       1.779   6.281  20.704  0.00  0.00    +0.000 A 
ATOM      4  C   UNL     1       1.802   7.367  19.841  0.00  0.00    +0.000 A 
ATOM      5  C   UNL     1       1.192   8.635  20.255  0.00  0.00    +0.000 A 
ATOM      6  O   UNL     1       0.583   8.677  21.322  0.00  0.00    +0.000 OA
ATOM      7  N   UNL     1       1.360   9.713  19.399  0.00  0.00    +0.000 N 
ATOM      8  C   UNL     1       2.069   9.658  18.210  0.00  0.00    +0.000 A 
ATOM      9  O   UNL     1       2.280  10.633  17.488  0.00  0.00    +0.000 OA
ATOM     10  N   UNL     1       2.552   8.434  17.832  0.00  0.00    +0.000 N 
ATOM     11  C   UNL     1       2.441   7.282  18.608  0.00  0.00    +0.000 A 
ATOM     12  C   UNL     1       2.978   6.063  18.174  0.00  0.00    +0.000 A 
ATOM     13  H   UNL     1       3.061   8.416  16.955  0.00  0.00    +0.000 HD
ENDROOT
BRANCH   1  15
ATOM     14  O   UNL     1       2.578   2.698  18.411  0.00  0.00    +0.000 OA
ATOM     15  C   UNL     1       3.383   3.614  18.527  0.00  0.00    +0.000 C 
ATOM     16  N   UNL     1       4.732   3.423  18.263  0.00  0.00    +0.000 N 
ATOM     17  H   UNL     1       4.967   2.536  17.829  0.00  0.00    +0.000 HD
BRANCH  16  18
ATOM     18  C   UNL     1       5.754   4.450  18.325  0.00  0.00    +0.000 C 
BRANCH  18  19
ATOM     19  C   UNL     1       6.890   4.429  17.305  0.00  0.00    +0.000 C 
BRANCH  19  20
ATOM     20  N   UNL     1       6.811   5.414  16.214  0.00  0.00    +0.000 NA
ATOM     21  C   UNL     1       5.401   5.501  15.764  0.00  0.00    +0.000 C 
ATOM     22  C   UNL     1       5.254   4.373  14.755  0.00  0.00    +0.000 C 
ATOM     23  C   UNL     1       6.572   4.414  14.010  0.00  0.00    +0.000 C 
ATOM     24  C   UNL     1       7.560   5.035  15.000  0.00  0.00    +0.000 C 
ENDBRANCH  19  20
ENDBRANCH  18  19
ENDBRANCH  16  18
ENDBRANCH   1  15
BRANCH   7  25
ATOM     25  C   UNL     1       0.690  10.954  19.761  0.00  0.00    +0.000 C 
BRANCH  25  26
ATOM     26  C   UNL     1      -0.660  11.030  19.072  0.00  0.00    +0.000 A 
ATOM     27  C   UNL     1      -1.622  11.968  19.482  0.00  0.00    +0.000 A 
ATOM     28  C   UNL     1      -2.919  11.925  18.967  0.00  0.00    +0.000 A 
ATOM     29  C   UNL     1      -3.259  10.949  18.033  0.00  0.00    +0.000 A 
ATOM     30 CL   UNL     1      -4.874  10.844  17.455  0.00  0.00    +0.000 Cl
ATOM     31  C   UNL     1      -2.304  10.037  17.588  0.00  0.00    +0.000 A 
ATOM     32  C   UNL     1      -1.009  10.076  18.105  0.00  0.00    +0.000 A 
ENDBRANCH  25  26
ENDBRANCH   7  25
TORSDOF 6
ENDMDL
MODEL 9
REMARK VINA RESULT:      -8.5      0.789      1.437
REMARK  Name = 
REMARK  6 active torsions:
REMARK  status: ('A' for Active; 'I' for Inactive)
REMARK    1  A    between atoms: C_2  and  C_11
REMARK    2  A    between atoms: N_3  and  C_4
REMARK    3  A    between atoms: C_4  and  C_5
REMARK    4  A    between atoms: C_5  and  N_6
REMARK    5  A    between atoms: N_17  and  C_18
REMARK    6  A    between atoms: C_18  and  C_19
REMARK                            x       y       z     vdW  Elec       q    Type
REMARK                         _______ _______ _______ _____ _____    ______ ____
ROOT
ATOM      1  C   UNL     1       3.099   5.519  19.290  0.00  0.00    +0.000 A 
ATOM      2  C   UNL     1       3.158   6.106  18.017  0.00  0.00    +0.000 A 
ATOM      3  C   UNL     1       2.747   7.415  17.816  0.00  0.00    +0.000 A 
ATOM      4  C   UNL     1       2.094   8.078  18.845  0.00  0.00    +0.000 A 
ATOM      5  C   UNL     1       1.578   9.433  18.623  0.00  0.00    +0.000 A 
ATOM      6  O   UNL     1       1.827   9.992  17.557  0.00  0.00    +0.000 OA
ATOM      7  N   UNL     1       0.827   9.987  19.649  0.00  0.00    +0.000 N 
ATOM      8  C   UNL     1       0.535   9.337  20.837  0.00  0.00    +0.000 A 
ATOM      9  O   UNL     1      -0.193   9.801  21.715  0.00  0.00    +0.000 OA
ATOM     10  N   UNL     1       1.104   8.106  21.026  0.00  0.00    +0.000 N 
ATOM     11  C   UNL     1       1.877   7.452  20.070  0.00  0.00    +0.000 A 
ATOM     12  C   UNL     1       2.412   6.181  20.316  0.00  0.00    +0.000 A 
ATOM     13  H   UNL     1       0.882   7.651  21.906  0.00  0.00    +0.000 HD
ENDROOT
BRANCH   1  15
ATOM     14  O   UNL     1       3.132   3.226  19.876  0.00  0.00    +0.000 OA
ATOM     15  C   UNL     1       3.788   4.219  19.582  0.00  0.00    +0.000 C 
ATOM     16  N   UNL     1       5.176   4.185  19.575  0.00  0.00    +0.000 N 
ATOM     17  H   UNL     1       5.588   3.262  19.676  0.00  0.00    +0.000 HD
BRANCH  16  18
ATOM     18  C   UNL     1       6.041   5.286  19.197  0.00  0.00    +0.000 C 
BRANCH  18  19
ATOM     19  C   UNL     1       6.563   5.363  17.764  0.00  0.00    +0.000 C 
BRANCH  19  20
ATOM     20  N   UNL     1       6.302   4.195  16.908  0.00  0.00    +0.000 NA
ATOM     21  C   UNL     1       7.342   4.149  15.851  0.00  0.00    +0.000 C 
ATOM     22  C   UNL     1       6.814   5.066  14.759  0.00  0.00    +0.000 C 
ATOM     23  C   UNL     1       5.332   4.761  14.751  0.00  0.00    +0.000 C 
ATOM     24  C   UNL     1       5.029   4.260  16.165  0.00  0.00    +0.000 C 
ENDBRANCH  19  20
ENDBRANCH  18  19
ENDBRANCH  16  18
ENDBRANCH   1  15
BRANCH   7  25
ATOM     25  C   UNL     1       0.381  11.362  19.472  0.00  0.00    +0.000 C 
BRANCH  25  26
ATOM     26  C   UNL     1      -1.039  11.378  18.938  0.00  0.00    +0.000 A 
ATOM     27  C   UNL     1      -2.014  12.206  19.519  0.00  0.00    +0.000 A 
ATOM     28  C   UNL     1      -3.353  12.096  19.143  0.00  0.00    +0.000 A 
ATOM     29  C   UNL     1      -3.725  11.163  18.177  0.00  0.00    +0.000 A 
ATOM     30 CL   UNL     1      -5.383  10.971  17.766  0.00  0.00    +0.000 Cl
ATOM     31  C   UNL     1      -2.762  10.364  17.563  0.00  0.00    +0.000 A 
ATOM     32  C   UNL     1      -1.424  10.469  17.941  0.00  0.00    +0.000 A 
ENDBRANCH  25  26
ENDBRANCH   7  25
TORSDOF 6
ENDMDL
