MODEL 1
REMARK VINA RESULT:      -6.7      0.000      0.000
REMARK  Name = 
REMARK  5 active torsions:
REMARK  status: ('A' for Active; 'I' for Inactive)
REMARK    1  A    between atoms: C_3  and  O_4
REMARK    2  A    between atoms: C_5  and  C_6
REMARK    3  A    between atoms: C_16  and  C_17
REMARK    4  A    between atoms: C_17  and  N_18
REMARK    5  A    between atoms: C_23  and  O_24
REMARK                            x       y       z     vdW  Elec       q    Type
REMARK                         _______ _______ _______ _____ _____    ______ ____
ROOT
ATOM      1  O   UNL     1       0.263   9.982  19.261  0.00  0.00    +0.000 OA
ATOM      2  C   UNL     1      -0.724  10.708  19.289  0.00  0.00    +0.000 A 
ATOM      3  C   UNL     1      -0.784  11.832  20.242  0.00  0.00    +0.000 A 
ATOM      4  C   UNL     1      -1.925  12.533  20.324  0.00  0.00    +0.000 A 
ATOM      5  O   UNL     1      -3.074  12.274  19.586  0.00  0.00    +0.000 OA
ATOM      6  C   UNL     1      -2.980  11.410  18.509  0.00  0.00    +0.000 A 
ATOM      7  C   UNL     1      -4.000  11.424  17.529  0.00  0.00    +0.000 A 
ATOM      8  C   UNL     1      -3.711  10.736  16.337  0.00  0.00    +0.000 A 
ATOM      9  C   UNL     1      -2.624   9.871  16.205  0.00  0.00    +0.000 A 
ATOM     10  C   UNL     1      -1.696   9.776  17.228  0.00  0.00    +0.000 A 
ATOM     11  C   UNL     1      -1.842  10.599  18.341  0.00  0.00    +0.000 A 
ENDROOT
BRANCH   4  12
ATOM     12  C   UNL     1      -2.020  13.681  21.237  0.00  0.00    +0.000 A 
ATOM     13  C   UNL     1      -1.810  14.963  20.703  0.00  0.00    +0.000 A 
ATOM     14  C   UNL     1      -2.005  16.102  21.484  0.00  0.00    +0.000 A 
ATOM     15  C   UNL     1      -2.417  15.972  22.809  0.00  0.00    +0.000 A 
ATOM     16  C   UNL     1      -2.622  14.704  23.361  0.00  0.00    +0.000 A 
ATOM     17 CL   UNL     1      -3.144  14.637  25.011  0.00  0.00    +0.000 Cl
ATOM     18  C   UNL     1      -2.420  13.552  22.584  0.00  0.00    +0.000 A 
ATOM     19 CL   UNL     1      -2.663  11.971  23.269  0.00  0.00    +0.000 Cl
ENDBRANCH   4  12
BRANCH   3  20
ATOM     20  O   UNL     1       0.355  12.119  20.970  0.00  0.00    +0.000 OA
ATOM     21  H   UNL     1       1.098  11.791  20.419  0.00  0.00    +0.000 HD
ENDBRANCH   3  20
BRANCH   8  22
ATOM     22  O   UNL     1      -4.399  10.963  15.177  0.00  0.00    +0.000 OA
ATOM     23  H   UNL     1      -4.008  11.752  14.762  0.00  0.00    +0.000 HD
ENDBRANCH   8  22
BRANCH   7  24
ATOM     24  C   UNL     1      -5.274  12.234  17.718  0.00  0.00    +0.000 C 
BRANCH  24  25
ATOM     25  N   UNL     1      -6.540  11.566  18.054  0.00  0.00    +0.000 NA
ATOM     26  C   UNL     1      -7.577  12.377  18.684  0.00  0.00    +0.000 C 
ATOM     27  C   UNL     1      -7.524  12.011  20.156  0.00  0.00    +0.000 C 
ATOM     28  C   UNL     1      -7.085  10.555  20.164  0.00  0.00    +0.000 C 
ATOM     29  C   UNL     1      -6.502  10.300  18.776  0.00  0.00    +0.000 C 
ENDBRANCH  24  25
ENDBRANCH   7  24
TORSDOF 5
ENDMDL
MODEL 2
REMARK VINA RESULT:      -6.6      2.666      4.857
REMARK  Name = 
REMARK  5 active torsions:
REMARK  status: ('A' for Active; 'I' for Inactive)
REMARK    1  A    between atoms: C_3  and  O_4
REMARK    2  A    between atoms: C_5  and  C_6
REMARK    3  A    between atoms: C_16  and  C_17
REMARK    4  A    between atoms: C_17  and  N_18
REMARK    5  A    between atoms: C_23  and  O_24
REMARK                            x       y       z     vdW  Elec       q    Type
REMARK                         _______ _______ _______ _____ _____    ______ ____
ROOT
ATOM      1  O   UNL     1      -3.640  13.080  23.550  0.00  0.00    +0.000 OA
ATOM      2  C   UNL     1      -3.450  12.882  22.356  0.00  0.00    +0.000 A 
ATOM      3  C   UNL     1      -2.074  12.748  21.842  0.00  0.00    +0.000 A 
ATOM      4  C   UNL     1      -1.900  12.648  20.516  0.00  0.00    +0.000 A 
ATOM      5  O   UNL     1      -2.921  12.677  19.573  0.00  0.00    +0.000 OA
ATOM      6  C   UNL     1      -4.226  12.540  20.017  0.00  0.00    +0.000 A 
ATOM      7  C   UNL     1      -5.230  12.184  19.087  0.00  0.00    +0.000 A 
ATOM      8  C   UNL     1      -6.462  11.791  19.640  0.00  0.00    +0.000 A 
ATOM      9  C   UNL     1      -6.788  11.988  20.983  0.00  0.00    +0.000 A 
ATOM     10  C   UNL     1      -5.824  12.456  21.860  0.00  0.00    +0.000 A 
ATOM     11  C   UNL     1      -4.531  12.661  21.385  0.00  0.00    +0.000 A 
ENDROOT
BRANCH   4  12
ATOM     12  C   UNL     1      -0.549  12.481  19.961  0.00  0.00    +0.000 A 
ATOM     13  C   UNL     1      -0.073  11.172  19.778  0.00  0.00    +0.000 A 
ATOM     14  C   UNL     1       1.147  10.939  19.144  0.00  0.00    +0.000 A 
ATOM     15  C   UNL     1       1.905  12.013  18.682  0.00  0.00    +0.000 A 
ATOM     16  C   UNL     1       1.452  13.324  18.862  0.00  0.00    +0.000 A 
ATOM     17 CL   UNL     1       2.452  14.596  18.246  0.00  0.00    +0.000 Cl
ATOM     18  C   UNL     1       0.228  13.567  19.507  0.00  0.00    +0.000 A 
ATOM     19 CL   UNL     1      -0.335  15.196  19.745  0.00  0.00    +0.000 Cl
ENDBRANCH   4  12
BRANCH   3  20
ATOM     20  O   UNL     1      -1.045  12.695  22.764  0.00  0.00    +0.000 OA
ATOM     21  H   UNL     1      -1.279  11.954  23.363  0.00  0.00    +0.000 HD
ENDBRANCH   3  20
BRANCH   8  22
ATOM     22  O   UNL     1      -7.385  11.071  18.933  0.00  0.00    +0.000 OA
ATOM     23  H   UNL     1      -7.827  10.475  19.563  0.00  0.00    +0.000 HD
ENDBRANCH   8  22
BRANCH   7  24
ATOM     24  C   UNL     1      -4.946  12.117  17.594  0.00  0.00    +0.000 C 
BRANCH  24  25
ATOM     25  N   UNL     1      -4.617  10.835  16.954  0.00  0.00    +0.000 NA
ATOM     26  C   UNL     1      -3.888   9.856  17.753  0.00  0.00    +0.000 C 
ATOM     27  C   UNL     1      -2.452   9.943  17.270  0.00  0.00    +0.000 C 
ATOM     28  C   UNL     1      -2.573  10.318  15.801  0.00  0.00    +0.000 C 
ATOM     29  C   UNL     1      -3.996  10.843  15.633  0.00  0.00    +0.000 C 
ENDBRANCH  24  25
ENDBRANCH   7  24
TORSDOF 5
ENDMDL
MODEL 3
REMARK VINA RESULT:      -6.5      1.639      1.884
REMARK  Name = 
REMARK  5 active torsions:
REMARK  status: ('A' for Active; 'I' for Inactive)
REMARK    1  A    between atoms: C_3  and  O_4
REMARK    2  A    between atoms: C_5  and  C_6
REMARK    3  A    between atoms: C_16  and  C_17
REMARK    4  A    between atoms: C_17  and  N_18
REMARK    5  A    between atoms: C_23  and  O_24
REMARK                            x       y       z     vdW  Elec       q    Type
REMARK                         _______ _______ _______ _____ _____    ______ ____
ROOT
ATOM      1  O   UNL     1       0.646   9.923  18.908  0.00  0.00    +0.000 OA
ATOM      2  C   UNL     1      -0.318  10.638  19.156  0.00  0.00    +0.000 A 
ATOM      3  C   UNL     1      -0.202  11.708  20.164  0.00  0.00    +0.000 A 
ATOM      4  C   UNL     1      -1.307  12.393  20.491  0.00  0.00    +0.000 A 
ATOM      5  O   UNL     1      -2.572  12.164  19.963  0.00  0.00    +0.000 OA
ATOM      6  C   UNL     1      -2.678  11.360  18.840  0.00  0.00    +0.000 A 
ATOM      7  C   UNL     1      -3.861  11.417  18.067  0.00  0.00    +0.000 A 
ATOM      8  C   UNL     1      -3.796  10.798  16.806  0.00  0.00    +0.000 A 
ATOM      9  C   UNL     1      -2.752   9.951  16.430  0.00  0.00    +0.000 A 
ATOM     10  C   UNL     1      -1.652   9.809  17.259  0.00  0.00    +0.000 A 
ATOM     11  C   UNL     1      -1.591  10.569  18.424  0.00  0.00    +0.000 A 
ENDROOT
BRANCH   4  12
ATOM     12  C   UNL     1      -1.233  13.488  21.468  0.00  0.00    +0.000 A 
ATOM     13  C   UNL     1      -1.466  13.178  22.818  0.00  0.00    +0.000 A 
ATOM     14  C   UNL     1      -1.291  14.142  23.811  0.00  0.00    +0.000 A 
ATOM     15  C   UNL     1      -0.878  15.427  23.466  0.00  0.00    +0.000 A 
ATOM     16  C   UNL     1      -0.650  15.757  22.126  0.00  0.00    +0.000 A 
ATOM     17 CL   UNL     1      -0.128  17.373  21.789  0.00  0.00    +0.000 Cl
ATOM     18  C   UNL     1      -0.832  14.795  21.120  0.00  0.00    +0.000 A 
ATOM     19 CL   UNL     1      -0.561  15.202  19.450  0.00  0.00    +0.000 Cl
ENDBRANCH   4  12
BRANCH   3  20
ATOM     20  O   UNL     1       1.052  11.965  20.686  0.00  0.00    +0.000 OA
ATOM     21  H   UNL     1       1.455  12.614  20.070  0.00  0.00    +0.000 HD
ENDBRANCH   3  20
BRANCH   8  22
ATOM     22  O   UNL     1      -4.684  11.081  15.805  0.00  0.00    +0.000 OA
ATOM     23  H   UNL     1      -5.564  11.156  16.217  0.00  0.00    +0.000 HD
ENDBRANCH   8  22
BRANCH   7  24
ATOM     24  C   UNL     1      -5.078  12.204  18.529  0.00  0.00    +0.000 C 
BRANCH  24  25
ATOM     25  N   UNL     1      -6.411  11.585  18.528  0.00  0.00    +0.000 NA
ATOM     26  C   UNL     1      -7.490  12.319  19.182  0.00  0.00    +0.000 C 
ATOM     27  C   UNL     1      -7.676  11.634  20.524  0.00  0.00    +0.000 C 
ATOM     28  C   UNL     1      -7.316  10.181  20.255  0.00  0.00    +0.000 C 
ATOM     29  C   UNL     1      -6.545  10.191  18.938  0.00  0.00    +0.000 C 
ENDBRANCH  24  25
ENDBRANCH   7  24
TORSDOF 5
ENDMDL
MODEL 4
REMARK VINA RESULT:      -6.4      1.144      1.161
REMARK  Name = 
REMARK  5 active torsions:
REMARK  status: ('A' for Active; 'I' for Inactive)
REMARK    1  A    between atoms: C_3  and  O_4
REMARK    2  A    between atoms: C_5  and  C_6
REMARK    3  A    between atoms: C_16  and  C_17
REMARK    4  A    between atoms: C_17  and  N_18
REMARK    5  A    between atoms: C_23  and  O_24
REMARK                            x       y       z     vdW  Elec       q    Type
REMARK                         _______ _______ _______ _____ _____    ______ ____
ROOT
ATOM      1  O   UNL     1      -0.157  10.620  20.164  0.00  0.00    +0.000 OA
ATOM      2  C   UNL     1      -1.174  11.249  19.895  0.00  0.00    +0.000 A 
ATOM      3  C   UNL     1      -1.523  12.452  20.674  0.00  0.00    +0.000 A 
ATOM      4  C   UNL     1      -2.701  13.046  20.428  0.00  0.00    +0.000 A 
ATOM      5  O   UNL     1      -3.637  12.606  19.500  0.00  0.00    +0.000 OA
ATOM      6  C   UNL     1      -3.245  11.651  18.577  0.00  0.00    +0.000 A 
ATOM      7  C   UNL     1      -4.022  11.469  17.409  0.00  0.00    +0.000 A 
ATOM      8  C   UNL     1      -3.429  10.696  16.395  0.00  0.00    +0.000 A 
ATOM      9  C   UNL     1      -2.281   9.929  16.600  0.00  0.00    +0.000 A 
ATOM     10  C   UNL     1      -1.597  10.026  17.800  0.00  0.00    +0.000 A 
ATOM     11  C   UNL     1      -2.044  10.939  18.752  0.00  0.00    +0.000 A 
ENDROOT
BRANCH   4  12
ATOM     12  C   UNL     1      -3.077  14.265  21.158  0.00  0.00    +0.000 A 
ATOM     13  C   UNL     1      -2.534  15.484  20.720  0.00  0.00    +0.000 A 
ATOM     14  C   UNL     1      -2.943  16.691  21.288  0.00  0.00    +0.000 A 
ATOM     15  C   UNL     1      -3.903  16.693  22.298  0.00  0.00    +0.000 A 
ATOM     16  C   UNL     1      -4.448  15.488  22.753  0.00  0.00    +0.000 A 
ATOM     17 CL   UNL     1      -5.642  15.585  24.003  0.00  0.00    +0.000 Cl
ATOM     18  C   UNL     1      -4.035  14.268  22.193  0.00  0.00    +0.000 A 
ATOM     19 CL   UNL     1      -4.702  12.765  22.763  0.00  0.00    +0.000 Cl
ENDBRANCH   4  12
BRANCH   3  20
ATOM     20  O   UNL     1      -0.596  12.917  21.588  0.00  0.00    +0.000 OA
ATOM     21  H   UNL     1      -1.084  12.973  22.438  0.00  0.00    +0.000 HD
ENDBRANCH   3  20
BRANCH   8  22
ATOM     22  O   UNL     1      -3.857  10.739  15.097  0.00  0.00    +0.000 OA
ATOM     23  H   UNL     1      -3.879   9.822  14.772  0.00  0.00    +0.000 HD
ENDBRANCH   8  22
BRANCH   7  24
ATOM     24  C   UNL     1      -5.360  12.169  17.225  0.00  0.00    +0.000 C 
BRANCH  24  25
ATOM     25  N   UNL     1      -6.581  11.615  17.828  0.00  0.00    +0.000 NA
ATOM     26  C   UNL     1      -7.491  12.552  18.479  0.00  0.00    +0.000 C 
ATOM     27  C   UNL     1      -7.231  12.386  19.965  0.00  0.00    +0.000 C 
ATOM     28  C   UNL     1      -6.838  10.925  20.116  0.00  0.00    +0.000 C 
ATOM     29  C   UNL     1      -6.473  10.457  18.709  0.00  0.00    +0.000 C 
ENDBRANCH  24  25
ENDBRANCH   7  24
TORSDOF 5
ENDMDL
MODEL 5
REMARK VINA RESULT:      -6.4      2.586      4.662
REMARK  Name = 
REMARK  5 active torsions:
REMARK  status: ('A' for Active; 'I' for Inactive)
REMARK    1  A    between atoms: C_3  and  O_4
REMARK    2  A    between atoms: C_5  and  C_6
REMARK    3  A    between atoms: C_16  and  C_17
REMARK    4  A    between atoms: C_17  and  N_18
REMARK    5  A    between atoms: C_23  and  O_24
REMARK                            x       y       z     vdW  Elec       q    Type
REMARK                         _______ _______ _______ _____ _____    ______ ____
ROOT
ATOM      1  O   UNL     1      -6.198  11.171  18.366  0.00  0.00    +0.000 OA
ATOM      2  C   UNL     1      -5.167  11.565  18.899  0.00  0.00    +0.000 A 
ATOM      3  C   UNL     1      -5.228  12.243  20.207  0.00  0.00    +0.000 A 
ATOM      4  C   UNL     1      -4.095  12.762  20.705  0.00  0.00    +0.000 A 
ATOM      5  O   UNL     1      -2.857  12.727  20.074  0.00  0.00    +0.000 OA
ATOM      6  C   UNL     1      -2.701  11.886  18.985  0.00  0.00    +0.000 A 
ATOM      7  C   UNL     1      -1.394  11.538  18.571  0.00  0.00    +0.000 A 
ATOM      8  C   UNL     1      -1.306  10.477  17.653  0.00  0.00    +0.000 A 
ATOM      9  C   UNL     1      -2.415   9.965  16.977  0.00  0.00    +0.000 A 
ATOM     10  C   UNL     1      -3.684  10.407  17.310  0.00  0.00    +0.000 A 
ATOM     11  C   UNL     1      -3.823  11.311  18.360  0.00  0.00    +0.000 A 
ENDROOT
BRANCH   4  12
ATOM     12  C   UNL     1      -4.102  13.420  22.019  0.00  0.00    +0.000 A 
ATOM     13  C   UNL     1      -3.824  12.631  23.148  0.00  0.00    +0.000 A 
ATOM     14  C   UNL     1      -3.694  13.212  24.409  0.00  0.00    +0.000 A 
ATOM     15  C   UNL     1      -3.836  14.590  24.557  0.00  0.00    +0.000 A 
ATOM     16  C   UNL     1      -4.122  15.391  23.446  0.00  0.00    +0.000 A 
ATOM     17 CL   UNL     1      -4.270  17.094  23.719  0.00  0.00    +0.000 Cl
ATOM     18  C   UNL     1      -4.263  14.813  22.174  0.00  0.00    +0.000 A 
ATOM     19 CL   UNL     1      -4.630  15.802  20.791  0.00  0.00    +0.000 Cl
ENDBRANCH   4  12
BRANCH   3  20
ATOM     20  O   UNL     1      -6.445  12.271  20.861  0.00  0.00    +0.000 OA
ATOM     21  H   UNL     1      -6.867  13.110  20.577  0.00  0.00    +0.000 HD
ENDBRANCH   3  20
BRANCH   8  22
ATOM     22  O   UNL     1      -0.147   9.780  17.450  0.00  0.00    +0.000 OA
ATOM     23  H   UNL     1       0.199   9.539  18.328  0.00  0.00    +0.000 HD
ENDBRANCH   8  22
BRANCH   7  24
ATOM     24  C   UNL     1      -0.164  12.197  19.178  0.00  0.00    +0.000 C 
BRANCH  24  25
ATOM     25  N   UNL     1       0.423  11.678  20.422  0.00  0.00    +0.000 NA
ATOM     26  C   UNL     1       0.710  10.248  20.479  0.00  0.00    +0.000 C 
ATOM     27  C   UNL     1      -0.417   9.652  21.302  0.00  0.00    +0.000 C 
ATOM     28  C   UNL     1      -0.792  10.756  22.279  0.00  0.00    +0.000 C 
ATOM     29  C   UNL     1      -0.191  12.032  21.697  0.00  0.00    +0.000 C 
ENDBRANCH  24  25
ENDBRANCH   7  24
TORSDOF 5
ENDMDL
MODEL 6
REMARK VINA RESULT:      -6.3      2.672      4.013
REMARK  Name = 
REMARK  5 active torsions:
REMARK  status: ('A' for Active; 'I' for Inactive)
REMARK    1  A    between atoms: C_3  and  O_4
REMARK    2  A    between atoms: C_5  and  C_6
REMARK    3  A    between atoms: C_16  and  C_17
REMARK    4  A    between atoms: C_17  and  N_18
REMARK    5  A    between atoms: C_23  and  O_24
REMARK                            x       y       z     vdW  Elec       q    Type
REMARK                         _______ _______ _______ _____ _____    ______ ____
ROOT
ATOM      1  O   UNL     1       0.122  10.127  23.470  0.00  0.00    +0.000 OA
ATOM      2  C   UNL     1      -0.380  10.579  22.447  0.00  0.00    +0.000 A 
ATOM      3  C   UNL     1      -1.276  11.748  22.521  0.00  0.00    +0.000 A 
ATOM      4  C   UNL     1      -1.896  12.143  21.399  0.00  0.00    +0.000 A 
ATOM      5  O   UNL     1      -1.775  11.523  20.161  0.00  0.00    +0.000 OA
ATOM      6  C   UNL     1      -0.759  10.598  19.988  0.00  0.00    +0.000 A 
ATOM      7  C   UNL     1      -0.370  10.247  18.674  0.00  0.00    +0.000 A 
ATOM      8  C   UNL     1       0.834   9.529  18.566  0.00  0.00    +0.000 A 
ATOM      9  C   UNL     1       1.478   8.957  19.664  0.00  0.00    +0.000 A 
ATOM     10  C   UNL     1       1.009   9.212  20.942  0.00  0.00    +0.000 A 
ATOM     11  C   UNL     1      -0.061  10.088  21.099  0.00  0.00    +0.000 A 
ENDROOT
BRANCH   4  12
ATOM     12  C   UNL     1      -2.774  13.322  21.419  0.00  0.00    +0.000 A 
ATOM     13  C   UNL     1      -4.108  13.138  21.818  0.00  0.00    +0.000 A 
ATOM     14  C   UNL     1      -4.962  14.230  21.977  0.00  0.00    +0.000 A 
ATOM     15  C   UNL     1      -4.489  15.520  21.742  0.00  0.00    +0.000 A 
ATOM     16  C   UNL     1      -3.166  15.722  21.336  0.00  0.00    +0.000 A 
ATOM     17 CL   UNL     1      -2.661  17.357  21.079  0.00  0.00    +0.000 Cl
ATOM     18  C   UNL     1      -2.303  14.627  21.166  0.00  0.00    +0.000 A 
ATOM     19 CL   UNL     1      -0.659  14.871  20.650  0.00  0.00    +0.000 Cl
ENDBRANCH   4  12
BRANCH   3  20
ATOM     20  O   UNL     1      -1.393  12.391  23.739  0.00  0.00    +0.000 OA
ATOM     21  H   UNL     1      -1.719  13.291  23.521  0.00  0.00    +0.000 HD
ENDBRANCH   3  20
BRANCH   8  22
ATOM     22  O   UNL     1       1.533   9.447  17.393  0.00  0.00    +0.000 OA
ATOM     23  H   UNL     1       2.071   8.636  17.436  0.00  0.00    +0.000 HD
ENDBRANCH   8  22
BRANCH   7  24
ATOM     24  C   UNL     1      -1.149  10.725  17.458  0.00  0.00    +0.000 C 
BRANCH  24  25
ATOM     25  N   UNL     1      -2.396  10.054  17.060  0.00  0.00    +0.000 NA
ATOM     26  C   UNL     1      -2.612   9.838  15.633  0.00  0.00    +0.000 C 
ATOM     27  C   UNL     1      -3.597  10.915  15.216  0.00  0.00    +0.000 C 
ATOM     28  C   UNL     1      -4.451  11.140  16.454  0.00  0.00    +0.000 C 
ATOM     29  C   UNL     1      -3.661  10.529  17.608  0.00  0.00    +0.000 C 
ENDBRANCH  24  25
ENDBRANCH   7  24
TORSDOF 5
ENDMDL
MODEL 7
REMARK VINA RESULT:      -6.2      2.493      3.668
REMARK  Name = 
REMARK  5 active torsions:
REMARK  status: ('A' for Active; 'I' for Inactive)
REMARK    1  A    between atoms: C_3  and  O_4
REMARK    2  A    between atoms: C_5  and  C_6
REMARK    3  A    between atoms: C_16  and  C_17
REMARK    4  A    between atoms: C_17  and  N_18
REMARK    5  A    between atoms: C_23  and  O_24
REMARK                            x       y       z     vdW  Elec       q    Type
REMARK                         _______ _______ _______ _____ _____    ______ ____
ROOT
ATOM      1  O   UNL     1      -0.402  10.761  23.388  0.00  0.00    +0.000 OA
ATOM      2  C   UNL     1      -0.830  11.192  22.323  0.00  0.00    +0.000 A 
ATOM      3  C   UNL     1      -1.673  12.402  22.303  0.00  0.00    +0.000 A 
ATOM      4  C   UNL     1      -2.217  12.776  21.135  0.00  0.00    +0.000 A 
ATOM      5  O   UNL     1      -2.061  12.099  19.930  0.00  0.00    +0.000 OA
ATOM      6  C   UNL     1      -1.082  11.124  19.848  0.00  0.00    +0.000 A 
ATOM      7  C   UNL     1      -0.644  10.700  18.572  0.00  0.00    +0.000 A 
ATOM      8  C   UNL     1       0.529   9.925  18.556  0.00  0.00    +0.000 A 
ATOM      9  C   UNL     1       1.089   9.372  19.709  0.00  0.00    +0.000 A 
ATOM     10  C   UNL     1       0.569   9.702  20.948  0.00  0.00    +0.000 A 
ATOM     11  C   UNL     1      -0.467  10.630  21.014  0.00  0.00    +0.000 A 
ENDROOT
BRANCH   4  12
ATOM     12  C   UNL     1      -3.038  13.992  21.061  0.00  0.00    +0.000 A 
ATOM     13  C   UNL     1      -2.377  15.220  20.894  0.00  0.00    +0.000 A 
ATOM     14  C   UNL     1      -3.099  16.397  20.694  0.00  0.00    +0.000 A 
ATOM     15  C   UNL     1      -4.491  16.359  20.655  0.00  0.00    +0.000 A 
ATOM     16  C   UNL     1      -5.167  15.147  20.828  0.00  0.00    +0.000 A 
ATOM     17 CL   UNL     1      -6.896  15.191  20.754  0.00  0.00    +0.000 Cl
ATOM     18  C   UNL     1      -4.448  13.959  21.039  0.00  0.00    +0.000 A 
ATOM     19 CL   UNL     1      -5.284  12.450  21.267  0.00  0.00    +0.000 Cl
ENDBRANCH   4  12
BRANCH   3  20
ATOM     20  O   UNL     1      -1.822  13.101  23.486  0.00  0.00    +0.000 OA
ATOM     21  H   UNL     1      -2.635  13.637  23.363  0.00  0.00    +0.000 HD
ENDBRANCH   3  20
BRANCH   8  22
ATOM     22  O   UNL     1       1.282   9.762  17.426  0.00  0.00    +0.000 OA
ATOM     23  H   UNL     1       2.050  10.355  17.506  0.00  0.00    +0.000 HD
ENDBRANCH   8  22
BRANCH   7  24
ATOM     24  C   UNL     1      -1.338  11.160  17.299  0.00  0.00    +0.000 C 
BRANCH  24  25
ATOM     25  N   UNL     1      -2.511  10.437  16.785  0.00  0.00    +0.000 NA
ATOM     26  C   UNL     1      -3.416  11.171  15.906  0.00  0.00    +0.000 C 
ATOM     27  C   UNL     1      -4.600  11.543  16.780  0.00  0.00    +0.000 C 
ATOM     28  C   UNL     1      -4.696  10.405  17.785  0.00  0.00    +0.000 C 
ATOM     29  C   UNL     1      -3.348   9.692  17.720  0.00  0.00    +0.000 C 
ENDBRANCH  24  25
ENDBRANCH   7  24
TORSDOF 5
ENDMDL
MODEL 8
REMARK VINA RESULT:      -6.2      2.697      4.960
REMARK  Name = 
REMARK  5 active torsions:
REMARK  status: ('A' for Active; 'I' for Inactive)
REMARK    1  A    between atoms: C_3  and  O_4
REMARK    2  A    between atoms: C_5  and  C_6
REMARK    3  A    between atoms: C_16  and  C_17
REMARK    4  A    between atoms: C_17  and  N_18
REMARK    5  A    between atoms: C_23  and  O_24
REMARK                            x       y       z     vdW  Elec       q    Type
REMARK                         _______ _______ _______ _____ _____    ______ ____
ROOT
ATOM      1  O   UNL     1      -2.522  13.157  23.342  0.00  0.00    +0.000 OA
ATOM      2  C   UNL     1      -2.525  12.934  22.137  0.00  0.00    +0.000 A 
ATOM      3  C   UNL     1      -1.251  12.733  21.422  0.00  0.00    +0.000 A 
ATOM      4  C   UNL     1      -1.286  12.606  20.087  0.00  0.00    +0.000 A 
ATOM      5  O   UNL     1      -2.438  12.664  19.312  0.00  0.00    +0.000 OA
ATOM      6  C   UNL     1      -3.664  12.589  19.952  0.00  0.00    +0.000 A 
ATOM      7  C   UNL     1      -4.812  12.261  19.194  0.00  0.00    +0.000 A 
ATOM      8  C   UNL     1      -5.959  11.929  19.937  0.00  0.00    +0.000 A 
ATOM      9  C   UNL     1      -6.067  12.160  21.310  0.00  0.00    +0.000 A 
ATOM     10  C   UNL     1      -4.962  12.600  22.019  0.00  0.00    +0.000 A 
ATOM     11  C   UNL     1      -3.750  12.743  21.348  0.00  0.00    +0.000 A 
ENDROOT
BRANCH   4  12
ATOM     12  C   UNL     1      -0.044  12.374  19.336  0.00  0.00    +0.000 A 
ATOM     13  C   UNL     1       0.720  13.495  18.973  0.00  0.00    +0.000 A 
ATOM     14  C   UNL     1       1.968  13.340  18.368  0.00  0.00    +0.000 A 
ATOM     15  C   UNL     1       2.467  12.063  18.123  0.00  0.00    +0.000 A 
ATOM     16  C   UNL     1       1.717  10.935  18.470  0.00  0.00    +0.000 A 
ATOM     17 CL   UNL     1       2.420   9.388  18.140  0.00  0.00    +0.000 Cl
ATOM     18  C   UNL     1       0.456  11.082  19.071  0.00  0.00    +0.000 A 
ATOM     19 CL   UNL     1      -0.487   9.683  19.495  0.00  0.00    +0.000 Cl
ENDBRANCH   4  12
BRANCH   3  20
ATOM     20  O   UNL     1      -0.096  12.651  22.178  0.00  0.00    +0.000 OA
ATOM     21  H   UNL     1       0.595  13.086  21.633  0.00  0.00    +0.000 HD
ENDBRANCH   3  20
BRANCH   8  22
ATOM     22  O   UNL     1      -7.007  11.237  19.395  0.00  0.00    +0.000 OA
ATOM     23  H   UNL     1      -6.654  10.388  19.075  0.00  0.00    +0.000 HD
ENDBRANCH   8  22
BRANCH   7  24
ATOM     24  C   UNL     1      -4.763  12.160  17.677  0.00  0.00    +0.000 C 
BRANCH  24  25
ATOM     25  N   UNL     1      -4.567  10.858  17.022  0.00  0.00    +0.000 NA
ATOM     26  C   UNL     1      -3.675   9.907  17.678  0.00  0.00    +0.000 C 
ATOM     27  C   UNL     1      -2.377   9.981  16.895  0.00  0.00    +0.000 C 
ATOM     28  C   UNL     1      -2.813  10.306  15.475  0.00  0.00    +0.000 C 
ATOM     29  C   UNL     1      -4.244  10.823  15.600  0.00  0.00    +0.000 C 
ENDBRANCH  24  25
ENDBRANCH   7  24
TORSDOF 5
ENDMDL
MODEL 9
REMARK VINA RESULT:      -6.2      2.750      4.440
REMARK  Name = 
REMARK  5 active torsions:
REMARK  status: ('A' for Active; 'I' for Inactive)
REMARK    1  A    between atoms: C_3  and  O_4
REMARK    2  A    between atoms: C_5  and  C_6
REMARK    3  A    between atoms: C_16  and  C_17
REMARK    4  A    between atoms: C_17  and  N_18
REMARK    5  A    between atoms: C_23  and  O_24
REMARK                            x       y       z     vdW  Elec       q    Type
REMARK                         _______ _______ _______ _____ _____    ______ ____
ROOT
ATOM      1  O   UNL     1      -0.538  12.997  23.387  0.00  0.00    +0.000 OA
ATOM      2  C   UNL     1      -1.523  12.944  22.659  0.00  0.00    +0.000 A 
ATOM      3  C   UNL     1      -2.846  13.337  23.180  0.00  0.00    +0.000 A 
ATOM      4  C   UNL     1      -3.916  13.156  22.391  0.00  0.00    +0.000 A 
ATOM      5  O   UNL     1      -3.882  12.608  21.114  0.00  0.00    +0.000 OA
ATOM      6  C   UNL     1      -2.652  12.470  20.493  0.00  0.00    +0.000 A 
ATOM      7  C   UNL     1      -2.610  12.287  19.091  0.00  0.00    +0.000 A 
ATOM      8  C   UNL     1      -1.345  12.434  18.494  0.00  0.00    +0.000 A 
ATOM      9  C   UNL     1      -0.161  12.486  19.230  0.00  0.00    +0.000 A 
ATOM     10  C   UNL     1      -0.215  12.541  20.612  0.00  0.00    +0.000 A 
ATOM     11  C   UNL     1      -1.461  12.604  21.231  0.00  0.00    +0.000 A 
ENDROOT
BRANCH   4  12
ATOM     12  C   UNL     1      -5.250  13.561  22.856  0.00  0.00    +0.000 A 
ATOM     13  C   UNL     1      -6.001  12.626  23.587  0.00  0.00    +0.000 A 
ATOM     14  C   UNL     1      -7.220  12.984  24.162  0.00  0.00    +0.000 A 
ATOM     15  C   UNL     1      -7.702  14.283  24.016  0.00  0.00    +0.000 A 
ATOM     16  C   UNL     1      -6.973  15.226  23.284  0.00  0.00    +0.000 A 
ATOM     17 CL   UNL     1      -7.640  16.819  23.164  0.00  0.00    +0.000 Cl
ATOM     18  C   UNL     1      -5.748  14.871  22.695  0.00  0.00    +0.000 A 
ATOM     19 CL   UNL     1      -4.842  16.036  21.774  0.00  0.00    +0.000 Cl
ENDBRANCH   4  12
BRANCH   3  20
ATOM     20  O   UNL     1      -2.898  13.904  24.439  0.00  0.00    +0.000 OA
ATOM     21  H   UNL     1      -3.543  13.357  24.937  0.00  0.00    +0.000 HD
ENDBRANCH   3  20
BRANCH   8  22
ATOM     22  O   UNL     1      -1.192  12.666  17.155  0.00  0.00    +0.000 OA
ATOM     23  H   UNL     1      -0.846  11.846  16.760  0.00  0.00    +0.000 HD
ENDBRANCH   8  22
BRANCH   7  24
ATOM     24  C   UNL     1      -3.878  12.066  18.279  0.00  0.00    +0.000 C 
BRANCH  24  25
ATOM     25  N   UNL     1      -4.067  10.825  17.515  0.00  0.00    +0.000 NA
ATOM     26  C   UNL     1      -3.212   9.692  17.856  0.00  0.00    +0.000 C 
ATOM     27  C   UNL     1      -2.152   9.657  16.771  0.00  0.00    +0.000 C 
ATOM     28  C   UNL     1      -2.862  10.188  15.536  0.00  0.00    +0.000 C 
ATOM     29  C   UNL     1      -4.113  10.890  16.058  0.00  0.00    +0.000 C 
ENDBRANCH  24  25
ENDBRANCH   7  24
TORSDOF 5
ENDMDL
