MODEL 1
REMARK VINA RESULT:      -8.2      0.000      0.000
REMARK  Name = 
REMARK  14 active torsions:
REMARK  status: ('A' for Active; 'I' for Inactive)
REMARK    1  A    between atoms: C_1  and  C_2
REMARK    2  A    between atoms: C_2  and  C_3
REMARK    3  A    between atoms: C_3  and  C_4
REMARK    4  A    between atoms: C_4  and  C_5
REMARK    5  A    between atoms: C_6  and  C_7
REMARK    6  A    between atoms: C_11  and  O_12
REMARK    7  A    between atoms: O_12  and  C_13
REMARK    8  A    between atoms: C_13  and  C_14
REMARK    9  A    between atoms: C_19  and  C_20
REMARK   10  A    between atoms: C_20  and  C_24
REMARK   11  A    between atoms: C_21  and  O_22
REMARK   12  A    between atoms: O_22  and  C_23
REMARK   13  A    between atoms: C_24  and  O_26
REMARK   14  A    between atoms: O_26  and  C_27
REMARK                            x       y       z     vdW  Elec       q    Type
REMARK                         _______ _______ _______ _____ _____    ______ ____
ROOT
ATOM      1  C   UNL     1      -0.549  11.800  21.778  0.00  0.00    +0.000 A 
ATOM      2  C   UNL     1      -0.133  10.535  22.029  0.00  0.00    +0.000 A 
ATOM      3  C   UNL     1      -0.359   9.818  23.337  0.00  0.00    +0.000 C 
ATOM      4  C   UNL     1       0.580   9.800  20.987  0.00  0.00    +0.000 A 
ATOM      5  C   UNL     1       1.235   8.591  21.238  0.00  0.00    +0.000 A 
ATOM      6  C   UNL     1       1.847   7.878  20.213  0.00  0.00    +0.000 A 
ATOM      7  C   UNL     1       1.787   8.342  18.903  0.00  0.00    +0.000 A 
ATOM      8  C   UNL     1       1.219   9.593  18.644  0.00  0.00    +0.000 A 
ATOM      9  C   UNL     1       0.629  10.306  19.692  0.00  0.00    +0.000 A 
ATOM     10  O   UNL     1       0.097  11.574  19.408  0.00  0.00    +0.000 OA
ATOM     11  C   UNL     1      -0.397  12.399  20.415  0.00  0.00    +0.000 A 
ATOM     12  O   UNL     1      -0.731  13.554  20.173  0.00  0.00    +0.000 OA
ENDROOT
BRANCH   1  13
ATOM     13  C   UNL     1      -1.170  12.694  22.832  0.00  0.00    +0.000 C 
BRANCH  13  14
ATOM     14  C   UNL     1      -2.651  12.351  23.064  0.00  0.00    +0.000 C 
BRANCH  14  16
ATOM     15  C   UNL     1      -4.086  12.897  21.085  0.00  0.00    +0.000 C 
ATOM     16  C   UNL     1      -3.590  13.380  22.441  0.00  0.00    +0.000 C 
ENDBRANCH  14  16
ENDBRANCH  13  14
ENDBRANCH   1  13
BRANCH   7  17
ATOM     17  O   UNL     1       2.308   7.663  17.837  0.00  0.00    +0.000 OA
BRANCH  17  18
ATOM     18  C   UNL     1       3.417   6.784  18.127  0.00  0.00    +0.000 C 
BRANCH  18  19
ATOM     19  C   UNL     1       3.093   5.316  17.910  0.00  0.00    +0.000 A 
ATOM     20  C   UNL     1       1.844   4.796  18.307  0.00  0.00    +0.000 A 
ATOM     21  C   UNL     1       1.547   3.439  18.173  0.00  0.00    +0.000 A 
ATOM     22  C   UNL     1       2.497   2.572  17.648  0.00  0.00    +0.000 A 
ATOM     23  C   UNL     1       3.720   3.071  17.203  0.00  0.00    +0.000 A 
ATOM     24  C   UNL     1       4.019   4.443  17.293  0.00  0.00    +0.000 A 
BRANCH  24  25
ATOM     25  C   UNL     1       5.312   4.894  16.729  0.00  0.00    +0.000 C 
ATOM     26  C   UNL     1       6.433   4.924  17.470  0.00  0.00    +0.000 C 
BRANCH  26  27
ATOM     27  O   UNL     1       6.486   4.567  18.794  0.00  0.00    +0.000 OA
ATOM     28  C   UNL     1       7.297   5.466  19.550  0.00  0.00    +0.000 C 
ENDBRANCH  26  27
BRANCH  25  29
ATOM     29  C   UNL     1       5.496   5.235  15.284  0.00  0.00    +0.000 C 
ATOM     30  O   UNL     1       5.692   6.368  14.872  0.00  0.00    +0.000 OA
BRANCH  29  31
ATOM     31  O   UNL     1       5.447   4.120  14.511  0.00  0.00    +0.000 OA
ATOM     32  C   UNL     1       6.483   4.016  13.529  0.00  0.00    +0.000 C 
ENDBRANCH  29  31
ENDBRANCH  25  29
ENDBRANCH  24  25
ENDBRANCH  18  19
ENDBRANCH  17  18
ENDBRANCH   7  17
TORSDOF 10
ENDMDL
MODEL 2
REMARK VINA RESULT:      -8.0      1.244      1.851
REMARK  Name = 
REMARK  14 active torsions:
REMARK  status: ('A' for Active; 'I' for Inactive)
REMARK    1  A    between atoms: C_1  and  C_2
REMARK    2  A    between atoms: C_2  and  C_3
REMARK    3  A    between atoms: C_3  and  C_4
REMARK    4  A    between atoms: C_4  and  C_5
REMARK    5  A    between atoms: C_6  and  C_7
REMARK    6  A    between atoms: C_11  and  O_12
REMARK    7  A    between atoms: O_12  and  C_13
REMARK    8  A    between atoms: C_13  and  C_14
REMARK    9  A    between atoms: C_19  and  C_20
REMARK   10  A    between atoms: C_20  and  C_24
REMARK   11  A    between atoms: C_21  and  O_22
REMARK   12  A    between atoms: O_22  and  C_23
REMARK   13  A    between atoms: C_24  and  O_26
REMARK   14  A    between atoms: O_26  and  C_27
REMARK                            x       y       z     vdW  Elec       q    Type
REMARK                         _______ _______ _______ _____ _____    ______ ____
ROOT
ATOM      1  C   UNL     1      -0.388  11.359  22.030  0.00  0.00    +0.000 A 
ATOM      2  C   UNL     1       0.123  11.758  20.840  0.00  0.00    +0.000 A 
ATOM      3  C   UNL     1       0.142  13.191  20.369  0.00  0.00    +0.000 C 
ATOM      4  C   UNL     1       0.699  10.759  19.941  0.00  0.00    +0.000 A 
ATOM      5  C   UNL     1       1.036  11.050  18.616  0.00  0.00    +0.000 A 
ATOM      6  C   UNL     1       1.645  10.100  17.804  0.00  0.00    +0.000 A 
ATOM      7  C   UNL     1       1.964   8.845  18.311  0.00  0.00    +0.000 A 
ATOM      8  C   UNL     1       1.551   8.501  19.602  0.00  0.00    +0.000 A 
ATOM      9  C   UNL     1       0.919   9.463  20.396  0.00  0.00    +0.000 A 
ATOM     10  O   UNL     1       0.487   9.079  21.675  0.00  0.00    +0.000 OA
ATOM     11  C   UNL     1      -0.257   9.938  22.481  0.00  0.00    +0.000 A 
ATOM     12  O   UNL     1      -0.745   9.545  23.535  0.00  0.00    +0.000 OA
ENDROOT
BRANCH   1  13
ATOM     13  C   UNL     1      -1.128  12.289  22.968  0.00  0.00    +0.000 C 
BRANCH  13  14
ATOM     14  C   UNL     1      -2.651  12.178  22.792  0.00  0.00    +0.000 C 
BRANCH  14  16
ATOM     15  C   UNL     1      -4.560  12.787  21.289  0.00  0.00    +0.000 C 
ATOM     16  C   UNL     1      -3.204  13.222  21.827  0.00  0.00    +0.000 C 
ENDBRANCH  14  16
ENDBRANCH  13  14
ENDBRANCH   1  13
BRANCH   7  17
ATOM     17  O   UNL     1       2.619   7.884  17.592  0.00  0.00    +0.000 OA
BRANCH  17  18
ATOM     18  C   UNL     1       3.432   6.967  18.357  0.00  0.00    +0.000 C 
BRANCH  18  19
ATOM     19  C   UNL     1       3.203   5.511  17.990  0.00  0.00    +0.000 A 
ATOM     20  C   UNL     1       1.981   4.881  18.304  0.00  0.00    +0.000 A 
ATOM     21  C   UNL     1       1.770   3.529  18.032  0.00  0.00    +0.000 A 
ATOM     22  C   UNL     1       2.781   2.776  17.449  0.00  0.00    +0.000 A 
ATOM     23  C   UNL     1       3.980   3.387  17.085  0.00  0.00    +0.000 A 
ATOM     24  C   UNL     1       4.192   4.759  17.315  0.00  0.00    +0.000 A 
BRANCH  24  25
ATOM     25  C   UNL     1       5.465   5.338  16.830  0.00  0.00    +0.000 C 
ATOM     26  C   UNL     1       6.592   5.278  17.560  0.00  0.00    +0.000 C 
BRANCH  26  27
ATOM     27  O   UNL     1       6.668   4.705  18.805  0.00  0.00    +0.000 OA
ATOM     28  C   UNL     1       7.429   5.506  19.708  0.00  0.00    +0.000 C 
ENDBRANCH  26  27
BRANCH  25  29
ATOM     29  C   UNL     1       5.626   5.923  15.462  0.00  0.00    +0.000 C 
ATOM     30  O   UNL     1       5.019   6.907  15.068  0.00  0.00    +0.000 OA
BRANCH  29  31
ATOM     31  O   UNL     1       6.550   5.236  14.745  0.00  0.00    +0.000 OA
ATOM     32  C   UNL     1       6.046   4.102  14.032  0.00  0.00    +0.000 C 
ENDBRANCH  29  31
ENDBRANCH  25  29
ENDBRANCH  24  25
ENDBRANCH  18  19
ENDBRANCH  17  18
ENDBRANCH   7  17
TORSDOF 10
ENDMDL
MODEL 3
REMARK VINA RESULT:      -8.0      1.534      2.951
REMARK  Name = 
REMARK  14 active torsions:
REMARK  status: ('A' for Active; 'I' for Inactive)
REMARK    1  A    between atoms: C_1  and  C_2
REMARK    2  A    between atoms: C_2  and  C_3
REMARK    3  A    between atoms: C_3  and  C_4
REMARK    4  A    between atoms: C_4  and  C_5
REMARK    5  A    between atoms: C_6  and  C_7
REMARK    6  A    between atoms: C_11  and  O_12
REMARK    7  A    between atoms: O_12  and  C_13
REMARK    8  A    between atoms: C_13  and  C_14
REMARK    9  A    between atoms: C_19  and  C_20
REMARK   10  A    between atoms: C_20  and  C_24
REMARK   11  A    between atoms: C_21  and  O_22
REMARK   12  A    between atoms: O_22  and  C_23
REMARK   13  A    between atoms: C_24  and  O_26
REMARK   14  A    between atoms: O_26  and  C_27
REMARK                            x       y       z     vdW  Elec       q    Type
REMARK                         _______ _______ _______ _____ _____    ______ ____
ROOT
ATOM      1  C   UNL     1      -0.637  10.737  21.983  0.00  0.00    +0.000 A 
ATOM      2  C   UNL     1      -0.608  10.904  20.638  0.00  0.00    +0.000 A 
ATOM      3  C   UNL     1      -1.374  11.978  19.905  0.00  0.00    +0.000 C 
ATOM      4  C   UNL     1       0.208  10.003  19.826  0.00  0.00    +0.000 A 
ATOM      5  C   UNL     1       0.116   9.962  18.432  0.00  0.00    +0.000 A 
ATOM      6  C   UNL     1       0.953   9.144  17.681  0.00  0.00    +0.000 A 
ATOM      7  C   UNL     1       1.927   8.374  18.306  0.00  0.00    +0.000 A 
ATOM      8  C   UNL     1       1.974   8.328  19.703  0.00  0.00    +0.000 A 
ATOM      9  C   UNL     1       1.108   9.140  20.442  0.00  0.00    +0.000 A 
ATOM     10  O   UNL     1       1.155   9.048  21.842  0.00  0.00    +0.000 OA
ATOM     11  C   UNL     1       0.247   9.729  22.648  0.00  0.00    +0.000 A 
ATOM     12  O   UNL     1       0.210   9.534  23.858  0.00  0.00    +0.000 OA
ENDROOT
BRANCH   1  13
ATOM     13  C   UNL     1      -1.554  11.525  22.896  0.00  0.00    +0.000 C 
BRANCH  13  14
ATOM     14  C   UNL     1      -1.008  12.936  23.166  0.00  0.00    +0.000 C 
BRANCH  14  16
ATOM     15  C   UNL     1      -1.541  15.285  23.856  0.00  0.00    +0.000 C 
ATOM     16  C   UNL     1      -2.120  13.958  23.381  0.00  0.00    +0.000 C 
ENDBRANCH  14  16
ENDBRANCH  13  14
ENDBRANCH   1  13
BRANCH   7  17
ATOM     17  O   UNL     1       2.826   7.597  17.629  0.00  0.00    +0.000 OA
BRANCH  17  18
ATOM     18  C   UNL     1       3.558   6.638  18.424  0.00  0.00    +0.000 C 
BRANCH  18  19
ATOM     19  C   UNL     1       3.175   5.197  18.131  0.00  0.00    +0.000 A 
ATOM     20  C   UNL     1       1.837   4.773  18.269  0.00  0.00    +0.000 A 
ATOM     21  C   UNL     1       1.473   3.443  18.065  0.00  0.00    +0.000 A 
ATOM     22  C   UNL     1       2.440   2.505  17.727  0.00  0.00    +0.000 A 
ATOM     23  C   UNL     1       3.761   2.909  17.536  0.00  0.00    +0.000 A 
ATOM     24  C   UNL     1       4.137   4.255  17.698  0.00  0.00    +0.000 A 
BRANCH  24  25
ATOM     25  C   UNL     1       5.545   4.606  17.404  0.00  0.00    +0.000 C 
ATOM     26  C   UNL     1       6.032   4.579  16.151  0.00  0.00    +0.000 C 
BRANCH  26  27
ATOM     27  O   UNL     1       5.296   4.216  15.051  0.00  0.00    +0.000 OA
ATOM     28  C   UNL     1       6.130   3.956  13.923  0.00  0.00    +0.000 C 
ENDBRANCH  26  27
BRANCH  25  29
ATOM     29  C   UNL     1       6.491   5.121  18.442  0.00  0.00    +0.000 C 
ATOM     30  O   UNL     1       6.367   4.912  19.639  0.00  0.00    +0.000 OA
BRANCH  29  31
ATOM     31  O   UNL     1       7.507   5.816  17.872  0.00  0.00    +0.000 OA
ATOM     32  C   UNL     1       8.077   6.842  18.691  0.00  0.00    +0.000 C 
ENDBRANCH  29  31
ENDBRANCH  25  29
ENDBRANCH  24  25
ENDBRANCH  18  19
ENDBRANCH  17  18
ENDBRANCH   7  17
TORSDOF 10
ENDMDL
MODEL 4
REMARK VINA RESULT:      -8.0      1.214      1.850
REMARK  Name = 
REMARK  14 active torsions:
REMARK  status: ('A' for Active; 'I' for Inactive)
REMARK    1  A    between atoms: C_1  and  C_2
REMARK    2  A    between atoms: C_2  and  C_3
REMARK    3  A    between atoms: C_3  and  C_4
REMARK    4  A    between atoms: C_4  and  C_5
REMARK    5  A    between atoms: C_6  and  C_7
REMARK    6  A    between atoms: C_11  and  O_12
REMARK    7  A    between atoms: O_12  and  C_13
REMARK    8  A    between atoms: C_13  and  C_14
REMARK    9  A    between atoms: C_19  and  C_20
REMARK   10  A    between atoms: C_20  and  C_24
REMARK   11  A    between atoms: C_21  and  O_22
REMARK   12  A    between atoms: O_22  and  C_23
REMARK   13  A    between atoms: C_24  and  O_26
REMARK   14  A    between atoms: O_26  and  C_27
REMARK                            x       y       z     vdW  Elec       q    Type
REMARK                         _______ _______ _______ _____ _____    ______ ____
ROOT
ATOM      1  C   UNL     1      -0.901  11.748  21.136  0.00  0.00    +0.000 A 
ATOM      2  C   UNL     1      -0.270  11.596  19.945  0.00  0.00    +0.000 A 
ATOM      3  C   UNL     1      -0.284  12.630  18.847  0.00  0.00    +0.000 C 
ATOM      4  C   UNL     1       0.476  10.367  19.687  0.00  0.00    +0.000 A 
ATOM      5  C   UNL     1       0.958  10.037  18.416  0.00  0.00    +0.000 A 
ATOM      6  C   UNL     1       1.723   8.894  18.213  0.00  0.00    +0.000 A 
ATOM      7  C   UNL     1       2.056   8.072  19.283  0.00  0.00    +0.000 A 
ATOM      8  C   UNL     1       1.507   8.331  20.543  0.00  0.00    +0.000 A 
ATOM      9  C   UNL     1       0.720   9.473  20.724  0.00  0.00    +0.000 A 
ATOM     10  O   UNL     1       0.155   9.689  21.991  0.00  0.00    +0.000 OA
ATOM     11  C   UNL     1      -0.737  10.732  22.223  0.00  0.00    +0.000 A 
ATOM     12  O   UNL     1      -1.328  10.828  23.293  0.00  0.00    +0.000 OA
ENDROOT
BRANCH   1  13
ATOM     13  C   UNL     1      -1.811  12.917  21.449  0.00  0.00    +0.000 C 
BRANCH  13  14
ATOM     14  C   UNL     1      -3.232  12.690  20.908  0.00  0.00    +0.000 C 
BRANCH  14  16
ATOM     15  C   UNL     1      -5.661  12.548  21.501  0.00  0.00    +0.000 C 
ATOM     16  C   UNL     1      -4.308  13.121  21.900  0.00  0.00    +0.000 C 
ENDBRANCH  14  16
ENDBRANCH  13  14
ENDBRANCH   1  13
BRANCH   7  17
ATOM     17  O   UNL     1       2.857   6.970  19.170  0.00  0.00    +0.000 OA
BRANCH  17  18
ATOM     18  C   UNL     1       2.972   6.405  17.846  0.00  0.00    +0.000 C 
BRANCH  18  19
ATOM     19  C   UNL     1       2.906   4.888  17.831  0.00  0.00    +0.000 A 
ATOM     20  C   UNL     1       1.720   4.222  18.204  0.00  0.00    +0.000 A 
ATOM     21  C   UNL     1       1.654   2.830  18.257  0.00  0.00    +0.000 A 
ATOM     22  C   UNL     1       2.776   2.073  17.946  0.00  0.00    +0.000 A 
ATOM     23  C   UNL     1       3.945   2.706  17.526  0.00  0.00    +0.000 A 
ATOM     24  C   UNL     1       4.015   4.108  17.428  0.00  0.00    +0.000 A 
BRANCH  24  25
ATOM     25  C   UNL     1       5.272   4.690  16.904  0.00  0.00    +0.000 C 
ATOM     26  C   UNL     1       6.316   4.953  17.708  0.00  0.00    +0.000 C 
BRANCH  26  27
ATOM     27  O   UNL     1       6.315   4.733  19.063  0.00  0.00    +0.000 OA
ATOM     28  C   UNL     1       7.351   5.465  19.717  0.00  0.00    +0.000 C 
ENDBRANCH  26  27
BRANCH  25  29
ATOM     29  C   UNL     1       5.519   4.918  15.447  0.00  0.00    +0.000 C 
ATOM     30  O   UNL     1       5.465   6.014  14.911  0.00  0.00    +0.000 OA
BRANCH  29  31
ATOM     31  O   UNL     1       5.837   3.757  14.820  0.00  0.00    +0.000 OA
ATOM     32  C   UNL     1       6.294   3.900  13.471  0.00  0.00    +0.000 C 
ENDBRANCH  29  31
ENDBRANCH  25  29
ENDBRANCH  24  25
ENDBRANCH  18  19
ENDBRANCH  17  18
ENDBRANCH   7  17
TORSDOF 10
ENDMDL
MODEL 5
REMARK VINA RESULT:      -8.0      1.385      1.987
REMARK  Name = 
REMARK  14 active torsions:
REMARK  status: ('A' for Active; 'I' for Inactive)
REMARK    1  A    between atoms: C_1  and  C_2
REMARK    2  A    between atoms: C_2  and  C_3
REMARK    3  A    between atoms: C_3  and  C_4
REMARK    4  A    between atoms: C_4  and  C_5
REMARK    5  A    between atoms: C_6  and  C_7
REMARK    6  A    between atoms: C_11  and  O_12
REMARK    7  A    between atoms: O_12  and  C_13
REMARK    8  A    between atoms: C_13  and  C_14
REMARK    9  A    between atoms: C_19  and  C_20
REMARK   10  A    between atoms: C_20  and  C_24
REMARK   11  A    between atoms: C_21  and  O_22
REMARK   12  A    between atoms: O_22  and  C_23
REMARK   13  A    between atoms: C_24  and  O_26
REMARK   14  A    between atoms: O_26  and  C_27
REMARK                            x       y       z     vdW  Elec       q    Type
REMARK                         _______ _______ _______ _____ _____    ______ ____
ROOT
ATOM      1  C   UNL     1      -0.866  11.128  22.042  0.00  0.00    +0.000 A 
ATOM      2  C   UNL     1      -0.796  11.262  20.695  0.00  0.00    +0.000 A 
ATOM      3  C   UNL     1      -1.474  12.366  19.922  0.00  0.00    +0.000 C 
ATOM      4  C   UNL     1      -0.022  10.292  19.923  0.00  0.00    +0.000 A 
ATOM      5  C   UNL     1      -0.084  10.226  18.528  0.00  0.00    +0.000 A 
ATOM      6  C   UNL     1       0.715   9.339  17.814  0.00  0.00    +0.000 A 
ATOM      7  C   UNL     1       1.622   8.522  18.479  0.00  0.00    +0.000 A 
ATOM      8  C   UNL     1       1.634   8.505  19.877  0.00  0.00    +0.000 A 
ATOM      9  C   UNL     1       0.807   9.388  20.578  0.00  0.00    +0.000 A 
ATOM     10  O   UNL     1       0.816   9.324  21.980  0.00  0.00    +0.000 OA
ATOM     11  C   UNL     1      -0.065  10.080  22.750  0.00  0.00    +0.000 A 
ATOM     12  O   UNL     1      -0.141   9.915  23.962  0.00  0.00    +0.000 OA
ENDROOT
BRANCH   1  13
ATOM     13  C   UNL     1      -1.750  11.993  22.916  0.00  0.00    +0.000 C 
BRANCH  13  14
ATOM     14  C   UNL     1      -1.096  13.351  23.216  0.00  0.00    +0.000 C 
BRANCH  14  16
ATOM     15  C   UNL     1      -2.190  15.488  22.501  0.00  0.00    +0.000 C 
ATOM     16  C   UNL     1      -2.119  14.421  23.586  0.00  0.00    +0.000 C 
ENDBRANCH  14  16
ENDBRANCH  13  14
ENDBRANCH   1  13
BRANCH   7  17
ATOM     17  O   UNL     1       2.484   7.674  17.840  0.00  0.00    +0.000 OA
BRANCH  17  18
ATOM     18  C   UNL     1       3.189   6.737  18.682  0.00  0.00    +0.000 C 
BRANCH  18  19
ATOM     19  C   UNL     1       3.011   5.290  18.255  0.00  0.00    +0.000 A 
ATOM     20  C   UNL     1       1.851   4.577  18.622  0.00  0.00    +0.000 A 
ATOM     21  C   UNL     1       1.692   3.231  18.294  0.00  0.00    +0.000 A 
ATOM     22  C   UNL     1       2.694   2.566  17.598  0.00  0.00    +0.000 A 
ATOM     23  C   UNL     1       3.827   3.263  17.180  0.00  0.00    +0.000 A 
ATOM     24  C   UNL     1       3.984   4.631  17.468  0.00  0.00    +0.000 A 
BRANCH  24  25
ATOM     25  C   UNL     1       5.183   5.306  16.923  0.00  0.00    +0.000 C 
ATOM     26  C   UNL     1       6.300   5.460  17.655  0.00  0.00    +0.000 C 
BRANCH  26  27
ATOM     27  O   UNL     1       6.429   5.036  18.954  0.00  0.00    +0.000 OA
ATOM     28  C   UNL     1       7.643   5.504  19.542  0.00  0.00    +0.000 C 
ENDBRANCH  26  27
BRANCH  25  29
ATOM     29  C   UNL     1       5.289   5.757  15.501  0.00  0.00    +0.000 C 
ATOM     30  O   UNL     1       5.337   6.930  15.162  0.00  0.00    +0.000 OA
BRANCH  29  31
ATOM     31  O   UNL     1       5.356   4.696  14.657  0.00  0.00    +0.000 OA
ATOM     32  C   UNL     1       6.674   4.198  14.411  0.00  0.00    +0.000 C 
ENDBRANCH  29  31
ENDBRANCH  25  29
ENDBRANCH  24  25
ENDBRANCH  18  19
ENDBRANCH  17  18
ENDBRANCH   7  17
TORSDOF 10
ENDMDL
MODEL 6
REMARK VINA RESULT:      -7.9      1.283      2.876
REMARK  Name = 
REMARK  14 active torsions:
REMARK  status: ('A' for Active; 'I' for Inactive)
REMARK    1  A    between atoms: C_1  and  C_2
REMARK    2  A    between atoms: C_2  and  C_3
REMARK    3  A    between atoms: C_3  and  C_4
REMARK    4  A    between atoms: C_4  and  C_5
REMARK    5  A    between atoms: C_6  and  C_7
REMARK    6  A    between atoms: C_11  and  O_12
REMARK    7  A    between atoms: O_12  and  C_13
REMARK    8  A    between atoms: C_13  and  C_14
REMARK    9  A    between atoms: C_19  and  C_20
REMARK   10  A    between atoms: C_20  and  C_24
REMARK   11  A    between atoms: C_21  and  O_22
REMARK   12  A    between atoms: O_22  and  C_23
REMARK   13  A    between atoms: C_24  and  O_26
REMARK   14  A    between atoms: O_26  and  C_27
REMARK                            x       y       z     vdW  Elec       q    Type
REMARK                         _______ _______ _______ _____ _____    ______ ____
ROOT
ATOM      1  C   UNL     1      -1.288  11.933  20.463  0.00  0.00    +0.000 A 
ATOM      2  C   UNL     1      -0.686  11.606  19.293  0.00  0.00    +0.000 A 
ATOM      3  C   UNL     1      -0.819  12.411  18.024  0.00  0.00    +0.000 C 
ATOM      4  C   UNL     1       0.149  10.408  19.232  0.00  0.00    +0.000 A 
ATOM      5  C   UNL     1       0.615   9.882  18.024  0.00  0.00    +0.000 A 
ATOM      6  C   UNL     1       1.463   8.780  18.000  0.00  0.00    +0.000 A 
ATOM      7  C   UNL     1       1.896   8.201  19.188  0.00  0.00    +0.000 A 
ATOM      8  C   UNL     1       1.369   8.653  20.402  0.00  0.00    +0.000 A 
ATOM      9  C   UNL     1       0.498   9.747  20.405  0.00  0.00    +0.000 A 
ATOM     10  O   UNL     1      -0.041  10.155  21.635  0.00  0.00    +0.000 OA
ATOM     11  C   UNL     1      -1.007  11.155  21.711  0.00  0.00    +0.000 A 
ATOM     12  O   UNL     1      -1.569  11.407  22.772  0.00  0.00    +0.000 OA
ENDROOT
BRANCH   1  13
ATOM     13  C   UNL     1      -2.279  13.070  20.596  0.00  0.00    +0.000 C 
BRANCH  13  14
ATOM     14  C   UNL     1      -3.688  12.649  20.149  0.00  0.00    +0.000 C 
BRANCH  14  16
ATOM     15  C   UNL     1      -4.131  13.640  22.407  0.00  0.00    +0.000 C 
ATOM     16  C   UNL     1      -4.737  12.882  21.233  0.00  0.00    +0.000 C 
ENDBRANCH  14  16
ENDBRANCH  13  14
ENDBRANCH   1  13
BRANCH   7  17
ATOM     17  O   UNL     1       2.779   7.160  19.243  0.00  0.00    +0.000 OA
BRANCH  17  18
ATOM     18  C   UNL     1       3.179   6.601  17.973  0.00  0.00    +0.000 C 
BRANCH  18  19
ATOM     19  C   UNL     1       2.990   5.096  17.891  0.00  0.00    +0.000 A 
ATOM     20  C   UNL     1       1.704   4.531  18.019  0.00  0.00    +0.000 A 
ATOM     21  C   UNL     1       1.514   3.150  18.008  0.00  0.00    +0.000 A 
ATOM     22  C   UNL     1       2.607   2.302  17.879  0.00  0.00    +0.000 A 
ATOM     23  C   UNL     1       3.882   2.837  17.702  0.00  0.00    +0.000 A 
ATOM     24  C   UNL     1       4.086   4.229  17.670  0.00  0.00    +0.000 A 
BRANCH  24  25
ATOM     25  C   UNL     1       5.461   4.707  17.404  0.00  0.00    +0.000 C 
ATOM     26  C   UNL     1       5.927   4.858  16.152  0.00  0.00    +0.000 C 
BRANCH  26  27
ATOM     27  O   UNL     1       5.198   4.572  15.025  0.00  0.00    +0.000 OA
ATOM     28  C   UNL     1       6.028   4.078  13.973  0.00  0.00    +0.000 C 
ENDBRANCH  26  27
BRANCH  25  29
ATOM     29  C   UNL     1       6.388   5.166  18.485  0.00  0.00    +0.000 C 
ATOM     30  O   UNL     1       6.138   5.077  19.678  0.00  0.00    +0.000 OA
BRANCH  29  31
ATOM     31  O   UNL     1       7.540   5.656  17.963  0.00  0.00    +0.000 OA
ATOM     32  C   UNL     1       8.057   6.821  18.616  0.00  0.00    +0.000 C 
ENDBRANCH  29  31
ENDBRANCH  25  29
ENDBRANCH  24  25
ENDBRANCH  18  19
ENDBRANCH  17  18
ENDBRANCH   7  17
TORSDOF 10
ENDMDL
MODEL 7
REMARK VINA RESULT:      -7.8      0.845      2.182
REMARK  Name = 
REMARK  14 active torsions:
REMARK  status: ('A' for Active; 'I' for Inactive)
REMARK    1  A    between atoms: C_1  and  C_2
REMARK    2  A    between atoms: C_2  and  C_3
REMARK    3  A    between atoms: C_3  and  C_4
REMARK    4  A    between atoms: C_4  and  C_5
REMARK    5  A    between atoms: C_6  and  C_7
REMARK    6  A    between atoms: C_11  and  O_12
REMARK    7  A    between atoms: O_12  and  C_13
REMARK    8  A    between atoms: C_13  and  C_14
REMARK    9  A    between atoms: C_19  and  C_20
REMARK   10  A    between atoms: C_20  and  C_24
REMARK   11  A    between atoms: C_21  and  O_22
REMARK   12  A    between atoms: O_22  and  C_23
REMARK   13  A    between atoms: C_24  and  O_26
REMARK   14  A    between atoms: O_26  and  C_27
REMARK                            x       y       z     vdW  Elec       q    Type
REMARK                         _______ _______ _______ _____ _____    ______ ____
ROOT
ATOM      1  C   UNL     1      -0.753  12.011  20.984  0.00  0.00    +0.000 A 
ATOM      2  C   UNL     1      -0.313  10.790  21.376  0.00  0.00    +0.000 A 
ATOM      3  C   UNL     1      -0.604  10.183  22.727  0.00  0.00    +0.000 C 
ATOM      4  C   UNL     1       0.492   9.993  20.453  0.00  0.00    +0.000 A 
ATOM      5  C   UNL     1       1.168   8.838  20.856  0.00  0.00    +0.000 A 
ATOM      6  C   UNL     1       1.871   8.061  19.941  0.00  0.00    +0.000 A 
ATOM      7  C   UNL     1       1.884   8.404  18.593  0.00  0.00    +0.000 A 
ATOM      8  C   UNL     1       1.294   9.604  18.185  0.00  0.00    +0.000 A 
ATOM      9  C   UNL     1       0.611  10.384  19.124  0.00  0.00    +0.000 A 
ATOM     10  O   UNL     1       0.058  11.600  18.691  0.00  0.00    +0.000 OA
ATOM     11  C   UNL     1      -0.530  12.491  19.585  0.00  0.00    +0.000 A 
ATOM     12  O   UNL     1      -0.885  13.606  19.218  0.00  0.00    +0.000 OA
ENDROOT
BRANCH   1  13
ATOM     13  C   UNL     1      -1.473  12.969  21.910  0.00  0.00    +0.000 C 
BRANCH  13  14
ATOM     14  C   UNL     1      -2.931  12.542  22.146  0.00  0.00    +0.000 C 
BRANCH  14  16
ATOM     15  C   UNL     1      -5.317  12.706  21.399  0.00  0.00    +0.000 C 
ATOM     16  C   UNL     1      -3.898  13.213  21.175  0.00  0.00    +0.000 C 
ENDBRANCH  14  16
ENDBRANCH  13  14
ENDBRANCH   1  13
BRANCH   7  17
ATOM     17  O   UNL     1       2.498   7.654  17.629  0.00  0.00    +0.000 OA
BRANCH  17  18
ATOM     18  C   UNL     1       3.559   6.786  18.083  0.00  0.00    +0.000 C 
BRANCH  18  19
ATOM     19  C   UNL     1       3.266   5.312  17.863  0.00  0.00    +0.000 A 
ATOM     20  C   UNL     1       1.953   4.817  18.006  0.00  0.00    +0.000 A 
ATOM     21  C   UNL     1       1.670   3.459  17.869  0.00  0.00    +0.000 A 
ATOM     22  C   UNL     1       2.696   2.563  17.594  0.00  0.00    +0.000 A 
ATOM     23  C   UNL     1       3.993   3.034  17.398  0.00  0.00    +0.000 A 
ATOM     24  C   UNL     1       4.288   4.407  17.493  0.00  0.00    +0.000 A 
BRANCH  24  25
ATOM     25  C   UNL     1       5.677   4.824  17.199  0.00  0.00    +0.000 C 
ATOM     26  C   UNL     1       6.108   5.004  15.938  0.00  0.00    +0.000 C 
BRANCH  26  27
ATOM     27  O   UNL     1       5.327   4.805  14.827  0.00  0.00    +0.000 OA
ATOM     28  C   UNL     1       5.952   3.923  13.895  0.00  0.00    +0.000 C 
ENDBRANCH  26  27
BRANCH  25  29
ATOM     29  C   UNL     1       6.664   5.186  18.264  0.00  0.00    +0.000 C 
ATOM     30  O   UNL     1       6.510   4.930  19.448  0.00  0.00    +0.000 OA
BRANCH  29  31
ATOM     31  O   UNL     1       7.750   5.801  17.732  0.00  0.00    +0.000 OA
ATOM     32  C   UNL     1       7.884   7.188  18.058  0.00  0.00    +0.000 C 
ENDBRANCH  29  31
ENDBRANCH  25  29
ENDBRANCH  24  25
ENDBRANCH  18  19
ENDBRANCH  17  18
ENDBRANCH   7  17
TORSDOF 10
ENDMDL
MODEL 8
REMARK VINA RESULT:      -7.7      1.522      2.173
REMARK  Name = 
REMARK  14 active torsions:
REMARK  status: ('A' for Active; 'I' for Inactive)
REMARK    1  A    between atoms: C_1  and  C_2
REMARK    2  A    between atoms: C_2  and  C_3
REMARK    3  A    between atoms: C_3  and  C_4
REMARK    4  A    between atoms: C_4  and  C_5
REMARK    5  A    between atoms: C_6  and  C_7
REMARK    6  A    between atoms: C_11  and  O_12
REMARK    7  A    between atoms: O_12  and  C_13
REMARK    8  A    between atoms: C_13  and  C_14
REMARK    9  A    between atoms: C_19  and  C_20
REMARK   10  A    between atoms: C_20  and  C_24
REMARK   11  A    between atoms: C_21  and  O_22
REMARK   12  A    between atoms: O_22  and  C_23
REMARK   13  A    between atoms: C_24  and  O_26
REMARK   14  A    between atoms: O_26  and  C_27
REMARK                            x       y       z     vdW  Elec       q    Type
REMARK                         _______ _______ _______ _____ _____    ______ ____
ROOT
ATOM      1  C   UNL     1      -0.759  12.355  21.137  0.00  0.00    +0.000 A 
ATOM      2  C   UNL     1      -0.206  12.028  19.944  0.00  0.00    +0.000 A 
ATOM      3  C   UNL     1      -0.216  12.930  18.734  0.00  0.00    +0.000 C 
ATOM      4  C   UNL     1       0.445  10.728  19.793  0.00  0.00    +0.000 A 
ATOM      5  C   UNL     1       0.833  10.225  18.548  0.00  0.00    +0.000 A 
ATOM      6  C   UNL     1       1.512   9.016  18.442  0.00  0.00    +0.000 A 
ATOM      7  C   UNL     1       1.850   8.298  19.584  0.00  0.00    +0.000 A 
ATOM      8  C   UNL     1       1.390   8.735  20.830  0.00  0.00    +0.000 A 
ATOM      9  C   UNL     1       0.689   9.942  20.915  0.00  0.00    +0.000 A 
ATOM     10  O   UNL     1       0.210  10.337  22.174  0.00  0.00    +0.000 OA
ATOM     11  C   UNL     1      -0.600  11.460  22.325  0.00  0.00    +0.000 A 
ATOM     12  O   UNL     1      -1.122  11.716  23.405  0.00  0.00    +0.000 OA
ENDROOT
BRANCH   1  13
ATOM     13  C   UNL     1      -1.574  13.613  21.356  0.00  0.00    +0.000 C 
BRANCH  13  14
ATOM     14  C   UNL     1      -0.738  14.723  22.015  0.00  0.00    +0.000 C 
BRANCH  14  16
ATOM     15  C   UNL     1      -1.449  16.205  20.125  0.00  0.00    +0.000 C 
ATOM     16  C   UNL     1      -0.288  15.784  21.016  0.00  0.00    +0.000 C 
ENDBRANCH  14  16
ENDBRANCH  13  14
ENDBRANCH   1  13
BRANCH   7  17
ATOM     17  O   UNL     1       2.572   7.137  19.560  0.00  0.00    +0.000 OA
BRANCH  17  18
ATOM     18  C   UNL     1       3.199   6.808  18.302  0.00  0.00    +0.000 C 
BRANCH  18  19
ATOM     19  C   UNL     1       3.111   5.331  17.954  0.00  0.00    +0.000 A 
ATOM     20  C   UNL     1       1.933   4.605  18.225  0.00  0.00    +0.000 A 
ATOM     21  C   UNL     1       1.851   3.236  17.972  0.00  0.00    +0.000 A 
ATOM     22  C   UNL     1       2.947   2.562  17.450  0.00  0.00    +0.000 A 
ATOM     23  C   UNL     1       4.106   3.267  17.127  0.00  0.00    +0.000 A 
ATOM     24  C   UNL     1       4.191   4.656  17.339  0.00  0.00    +0.000 A 
BRANCH  24  25
ATOM     25  C   UNL     1       5.431   5.334  16.900  0.00  0.00    +0.000 C 
ATOM     26  C   UNL     1       6.533   5.357  17.669  0.00  0.00    +0.000 C 
BRANCH  26  27
ATOM     27  O   UNL     1       6.610   4.785  18.914  0.00  0.00    +0.000 OA
ATOM     28  C   UNL     1       7.550   5.463  19.747  0.00  0.00    +0.000 C 
ENDBRANCH  26  27
BRANCH  25  29
ATOM     29  C   UNL     1       5.593   5.936  15.540  0.00  0.00    +0.000 C 
ATOM     30  O   UNL     1       4.956   6.900  15.143  0.00  0.00    +0.000 OA
BRANCH  29  31
ATOM     31  O   UNL     1       6.556   5.291  14.834  0.00  0.00    +0.000 OA
ATOM     32  C   UNL     1       6.118   4.117  14.142  0.00  0.00    +0.000 C 
ENDBRANCH  29  31
ENDBRANCH  25  29
ENDBRANCH  24  25
ENDBRANCH  18  19
ENDBRANCH  17  18
ENDBRANCH   7  17
TORSDOF 10
ENDMDL
MODEL 9
REMARK VINA RESULT:      -7.5      1.725      2.350
REMARK  Name = 
REMARK  14 active torsions:
REMARK  status: ('A' for Active; 'I' for Inactive)
REMARK    1  A    between atoms: C_1  and  C_2
REMARK    2  A    between atoms: C_2  and  C_3
REMARK    3  A    between atoms: C_3  and  C_4
REMARK    4  A    between atoms: C_4  and  C_5
REMARK    5  A    between atoms: C_6  and  C_7
REMARK    6  A    between atoms: C_11  and  O_12
REMARK    7  A    between atoms: O_12  and  C_13
REMARK    8  A    between atoms: C_13  and  C_14
REMARK    9  A    between atoms: C_19  and  C_20
REMARK   10  A    between atoms: C_20  and  C_24
REMARK   11  A    between atoms: C_21  and  O_22
REMARK   12  A    between atoms: O_22  and  C_23
REMARK   13  A    between atoms: C_24  and  O_26
REMARK   14  A    between atoms: O_26  and  C_27
REMARK                            x       y       z     vdW  Elec       q    Type
REMARK                         _______ _______ _______ _____ _____    ______ ____
ROOT
ATOM      1  C   UNL     1      -0.165  11.001  21.953  0.00  0.00    +0.000 A 
ATOM      2  C   UNL     1       0.184  11.133  20.650  0.00  0.00    +0.000 A 
ATOM      3  C   UNL     1      -0.039  12.386  19.840  0.00  0.00    +0.000 C 
ATOM      4  C   UNL     1       0.818  10.008  19.966  0.00  0.00    +0.000 A 
ATOM      5  C   UNL     1       1.000   9.981  18.580  0.00  0.00    +0.000 A 
ATOM      6  C   UNL     1       1.667   8.928  17.963  0.00  0.00    +0.000 A 
ATOM      7  C   UNL     1       2.201   7.894  18.723  0.00  0.00    +0.000 A 
ATOM      8  C   UNL     1       1.950   7.853  20.099  0.00  0.00    +0.000 A 
ATOM      9  C   UNL     1       1.256   8.909  20.698  0.00  0.00    +0.000 A 
ATOM     10  O   UNL     1       0.990   8.824  22.074  0.00  0.00    +0.000 OA
ATOM     11  C   UNL     1       0.202   9.771  22.723  0.00  0.00    +0.000 A 
ATOM     12  O   UNL     1      -0.136   9.613  23.891  0.00  0.00    +0.000 OA
ENDROOT
BRANCH   1  13
ATOM     13  C   UNL     1      -0.949  12.052  22.711  0.00  0.00    +0.000 C 
BRANCH  13  14
ATOM     14  C   UNL     1      -2.465  11.831  22.584  0.00  0.00    +0.000 C 
BRANCH  14  16
ATOM     15  C   UNL     1      -4.079  12.418  24.408  0.00  0.00    +0.000 C 
ATOM     16  C   UNL     1      -3.273  12.951  23.230  0.00  0.00    +0.000 C 
ENDBRANCH  14  16
ENDBRANCH  13  14
ENDBRANCH   1  13
BRANCH   7  17
ATOM     17  O   UNL     1       2.924   6.861  18.194  0.00  0.00    +0.000 OA
BRANCH  17  18
ATOM     18  C   UNL     1       2.198   5.635  17.960  0.00  0.00    +0.000 C 
BRANCH  18  19
ATOM     19  C   UNL     1       2.628   4.498  18.872  0.00  0.00    +0.000 A 
ATOM     20  C   UNL     1       1.727   3.963  19.816  0.00  0.00    +0.000 A 
ATOM     21  C   UNL     1       2.117   2.962  20.705  0.00  0.00    +0.000 A 
ATOM     22  C   UNL     1       3.419   2.479  20.675  0.00  0.00    +0.000 A 
ATOM     23  C   UNL     1       4.313   2.957  19.717  0.00  0.00    +0.000 A 
ATOM     24  C   UNL     1       3.923   3.938  18.787  0.00  0.00    +0.000 A 
BRANCH  24  25
ATOM     25  C   UNL     1       4.915   4.333  17.762  0.00  0.00    +0.000 C 
ATOM     26  C   UNL     1       5.972   5.107  18.063  0.00  0.00    +0.000 C 
BRANCH  26  27
ATOM     27  O   UNL     1       6.220   5.611  19.316  0.00  0.00    +0.000 OA
ATOM     28  C   UNL     1       7.616   5.622  19.611  0.00  0.00    +0.000 C 
ENDBRANCH  26  27
BRANCH  25  29
ATOM     29  C   UNL     1       4.887   3.816  16.358  0.00  0.00    +0.000 C 
ATOM     30  O   UNL     1       3.863   3.504  15.769  0.00  0.00    +0.000 OA
BRANCH  29  31
ATOM     31  O   UNL     1       6.136   3.773  15.830  0.00  0.00    +0.000 OA
ATOM     32  C   UNL     1       6.227   4.152  14.453  0.00  0.00    +0.000 C 
ENDBRANCH  29  31
ENDBRANCH  25  29
ENDBRANCH  24  25
ENDBRANCH  18  19
ENDBRANCH  17  18
ENDBRANCH   7  17
TORSDOF 10
ENDMDL
