MODEL 1
REMARK VINA RESULT:      -6.7      0.000      0.000
REMARK  Name = 
REMARK  7 active torsions:
REMARK  status: ('A' for Active; 'I' for Inactive)
REMARK    1  A    between atoms: C_1  and  C_2
REMARK    2  A    between atoms: C_2  and  O_3
REMARK    3  A    between atoms: O_3  and  C_4
REMARK    4  A    between atoms: C_9  and  C_10
REMARK    5  A    between atoms: N_12  and  C_13
REMARK    6  A    between atoms: C_13  and  C_14
REMARK    7  A    between atoms: C_14  and  C_15
REMARK                            x       y       z     vdW  Elec       q    Type
REMARK                         _______ _______ _______ _____ _____    ______ ____
ROOT
ATOM      1  C   UNL     1       4.656   3.871  18.707  0.00  0.00    +0.000 C 
ATOM      2  O   UNL     1       5.668   3.519  19.308  0.00  0.00    +0.000 OA
ATOM      3  N   UNL     1       4.698   4.271  17.389  0.00  0.00    +0.000 N 
ATOM      4  H   UNL     1       3.830   4.556  16.943  0.00  0.00    +0.000 HD
ENDROOT
BRANCH   1  10
ATOM      5  C   UNL     1       2.601   4.974  19.829  0.00  0.00    +0.000 A 
ATOM      6  C   UNL     1       1.326   4.799  20.396  0.00  0.00    +0.000 A 
ATOM      7  C   UNL     1       0.812   3.523  20.631  0.00  0.00    +0.000 A 
ATOM      8  C   UNL     1       1.552   2.404  20.276  0.00  0.00    +0.000 A 
ATOM      9  C   UNL     1       2.790   2.564  19.653  0.00  0.00    +0.000 A 
ATOM     10  C   UNL     1       3.327   3.844  19.407  0.00  0.00    +0.000 A 
BRANCH   5  11
ATOM     11  O   UNL     1       3.157   6.221  19.670  0.00  0.00    +0.000 OA
BRANCH  11  13
ATOM     12  C   UNL     1       3.362   7.503  17.659  0.00  0.00    +0.000 C 
ATOM     13  C   UNL     1       2.441   7.100  18.794  0.00  0.00    +0.000 C 
ENDBRANCH  11  13
ENDBRANCH   5  11
ENDBRANCH   1  10
BRANCH   3  14
ATOM     14  C   UNL     1       5.956   4.299  16.661  0.00  0.00    +0.000 C 
BRANCH  14  15
ATOM     15  C   UNL     1       6.318   5.686  16.135  0.00  0.00    +0.000 C 
BRANCH  15  16
ATOM     16  C   UNL     1       7.104   6.475  17.128  0.00  0.00    +0.000 A 
ATOM     17  C   UNL     1       7.718   6.053  18.289  0.00  0.00    +0.000 A 
ATOM     18  N   UNL     1       8.292   7.172  18.823  0.00  0.00    +0.000 N 
ATOM     19  C   UNL     1       8.018   8.215  17.984  0.00  0.00    +0.000 A 
ATOM     20  N   UNL     1       7.308   7.825  16.951  0.00  0.00    +0.000 NA
ATOM     21  H   UNL     1       8.825   7.227  19.682  0.00  0.00    +0.000 HD
ENDBRANCH  15  16
ENDBRANCH  14  15
ENDBRANCH   3  14
TORSDOF 6
ENDMDL
MODEL 2
REMARK VINA RESULT:      -6.7      2.561      5.931
REMARK  Name = 
REMARK  7 active torsions:
REMARK  status: ('A' for Active; 'I' for Inactive)
REMARK    1  A    between atoms: C_1  and  C_2
REMARK    2  A    between atoms: C_2  and  O_3
REMARK    3  A    between atoms: O_3  and  C_4
REMARK    4  A    between atoms: C_9  and  C_10
REMARK    5  A    between atoms: N_12  and  C_13
REMARK    6  A    between atoms: C_13  and  C_14
REMARK    7  A    between atoms: C_14  and  C_15
REMARK                            x       y       z     vdW  Elec       q    Type
REMARK                         _______ _______ _______ _____ _____    ______ ____
ROOT
ATOM      1  C   UNL     1       4.549   4.377  17.637  0.00  0.00    +0.000 C 
ATOM      2  O   UNL     1       3.489   4.926  17.349  0.00  0.00    +0.000 OA
ATOM      3  N   UNL     1       4.652   3.006  17.735  0.00  0.00    +0.000 N 
ATOM      4  H   UNL     1       5.553   2.606  17.982  0.00  0.00    +0.000 HD
ENDROOT
BRANCH   1  10
ATOM      5  C   UNL     1       6.418   6.007  16.897  0.00  0.00    +0.000 A 
ATOM      6  C   UNL     1       7.517   6.799  17.276  0.00  0.00    +0.000 A 
ATOM      7  C   UNL     1       8.041   6.730  18.568  0.00  0.00    +0.000 A 
ATOM      8  C   UNL     1       7.457   5.891  19.507  0.00  0.00    +0.000 A 
ATOM      9  C   UNL     1       6.327   5.150  19.162  0.00  0.00    +0.000 A 
ATOM     10  C   UNL     1       5.781   5.206  17.864  0.00  0.00    +0.000 A 
BRANCH   5  11
ATOM     11  O   UNL     1       5.943   6.000  15.607  0.00  0.00    +0.000 OA
BRANCH  11  13
ATOM     12  C   UNL     1       5.752   4.096  14.170  0.00  0.00    +0.000 C 
ATOM     13  C   UNL     1       6.677   5.178  14.691  0.00  0.00    +0.000 C 
ENDBRANCH  11  13
ENDBRANCH   5  11
ENDBRANCH   1  10
BRANCH   3  14
ATOM     14  C   UNL     1       3.494   2.157  17.509  0.00  0.00    +0.000 C 
BRANCH  14  15
ATOM     15  C   UNL     1       2.939   1.540  18.790  0.00  0.00    +0.000 C 
BRANCH  15  16
ATOM     16  C   UNL     1       2.191   2.534  19.614  0.00  0.00    +0.000 A 
ATOM     17  C   UNL     1       0.855   2.876  19.569  0.00  0.00    +0.000 A 
ATOM     18  N   UNL     1       0.694   3.838  20.527  0.00  0.00    +0.000 N 
ATOM     19  C   UNL     1       1.912   4.039  21.114  0.00  0.00    +0.000 A 
ATOM     20  N   UNL     1       2.832   3.265  20.589  0.00  0.00    +0.000 NA
ATOM     21  H   UNL     1      -0.165   4.316  20.765  0.00  0.00    +0.000 HD
ENDBRANCH  15  16
ENDBRANCH  14  15
ENDBRANCH   3  14
TORSDOF 6
ENDMDL
MODEL 3
REMARK VINA RESULT:      -6.7      1.433      2.310
REMARK  Name = 
REMARK  7 active torsions:
REMARK  status: ('A' for Active; 'I' for Inactive)
REMARK    1  A    between atoms: C_1  and  C_2
REMARK    2  A    between atoms: C_2  and  O_3
REMARK    3  A    between atoms: O_3  and  C_4
REMARK    4  A    between atoms: C_9  and  C_10
REMARK    5  A    between atoms: N_12  and  C_13
REMARK    6  A    between atoms: C_13  and  C_14
REMARK    7  A    between atoms: C_14  and  C_15
REMARK                            x       y       z     vdW  Elec       q    Type
REMARK                         _______ _______ _______ _____ _____    ______ ____
ROOT
ATOM      1  C   UNL     1       5.087   4.299  19.247  0.00  0.00    +0.000 C 
ATOM      2  O   UNL     1       5.608   3.353  18.662  0.00  0.00    +0.000 OA
ATOM      3  N   UNL     1       5.748   5.495  19.422  0.00  0.00    +0.000 N 
ATOM      4  H   UNL     1       5.272   6.243  19.919  0.00  0.00    +0.000 HD
ENDROOT
BRANCH   1  10
ATOM      5  C   UNL     1       2.732   5.209  19.814  0.00  0.00    +0.000 A 
ATOM      6  C   UNL     1       1.425   4.923  20.250  0.00  0.00    +0.000 A 
ATOM      7  C   UNL     1       1.087   3.655  20.723  0.00  0.00    +0.000 A 
ATOM      8  C   UNL     1       2.040   2.646  20.741  0.00  0.00    +0.000 A 
ATOM      9  C   UNL     1       3.322   2.900  20.251  0.00  0.00    +0.000 A 
ATOM     10  C   UNL     1       3.684   4.173  19.768  0.00  0.00    +0.000 A 
BRANCH   5  11
ATOM     11  O   UNL     1       3.104   6.474  19.425  0.00  0.00    +0.000 OA
BRANCH  11  13
ATOM     12  C   UNL     1       2.245   8.330  18.182  0.00  0.00    +0.000 C 
ATOM     13  C   UNL     1       2.649   6.870  18.125  0.00  0.00    +0.000 C 
ENDBRANCH  11  13
ENDBRANCH   5  11
ENDBRANCH   1  10
BRANCH   3  14
ATOM     14  C   UNL     1       7.102   5.676  18.923  0.00  0.00    +0.000 C 
BRANCH  14  15
ATOM     15  C   UNL     1       7.172   6.540  17.666  0.00  0.00    +0.000 C 
BRANCH  15  16
ATOM     16  C   UNL     1       6.685   5.813  16.458  0.00  0.00    +0.000 A 
ATOM     17  C   UNL     1       5.471   5.911  15.810  0.00  0.00    +0.000 A 
ATOM     18  N   UNL     1       5.541   5.026  14.770  0.00  0.00    +0.000 N 
ATOM     19  C   UNL     1       6.772   4.436  14.817  0.00  0.00    +0.000 A 
ATOM     20  N   UNL     1       7.486   4.893  15.819  0.00  0.00    +0.000 NA
ATOM     21  H   UNL     1       4.819   4.838  14.087  0.00  0.00    +0.000 HD
ENDBRANCH  15  16
ENDBRANCH  14  15
ENDBRANCH   3  14
TORSDOF 6
ENDMDL
MODEL 4
REMARK VINA RESULT:      -6.7      2.445      5.865
REMARK  Name = 
REMARK  7 active torsions:
REMARK  status: ('A' for Active; 'I' for Inactive)
REMARK    1  A    between atoms: C_1  and  C_2
REMARK    2  A    between atoms: C_2  and  O_3
REMARK    3  A    between atoms: O_3  and  C_4
REMARK    4  A    between atoms: C_9  and  C_10
REMARK    5  A    between atoms: N_12  and  C_13
REMARK    6  A    between atoms: C_13  and  C_14
REMARK    7  A    between atoms: C_14  and  C_15
REMARK                            x       y       z     vdW  Elec       q    Type
REMARK                         _______ _______ _______ _____ _____    ______ ____
ROOT
ATOM      1  C   UNL     1       5.199   3.717  18.612  0.00  0.00    +0.000 C 
ATOM      2  O   UNL     1       5.127   3.345  19.780  0.00  0.00    +0.000 OA
ATOM      3  N   UNL     1       4.502   3.084  17.605  0.00  0.00    +0.000 N 
ATOM      4  H   UNL     1       4.603   3.431  16.655  0.00  0.00    +0.000 HD
ENDROOT
BRANCH   1  10
ATOM      5  C   UNL     1       5.911   5.690  17.095  0.00  0.00    +0.000 A 
ATOM      6  C   UNL     1       6.718   6.832  16.939  0.00  0.00    +0.000 A 
ATOM      7  C   UNL     1       7.707   7.146  17.871  0.00  0.00    +0.000 A 
ATOM      8  C   UNL     1       7.886   6.342  18.988  0.00  0.00    +0.000 A 
ATOM      9  C   UNL     1       7.049   5.243  19.188  0.00  0.00    +0.000 A 
ATOM     10  C   UNL     1       6.043   4.909  18.259  0.00  0.00    +0.000 A 
BRANCH   5  11
ATOM     11  O   UNL     1       4.990   5.320  16.145  0.00  0.00    +0.000 OA
BRANCH  11  13
ATOM     12  C   UNL     1       6.237   3.957  14.623  0.00  0.00    +0.000 C 
ATOM     13  C   UNL     1       5.488   5.263  14.802  0.00  0.00    +0.000 C 
ENDBRANCH  11  13
ENDBRANCH   5  11
ENDBRANCH   1  10
BRANCH   3  14
ATOM     14  C   UNL     1       3.658   1.936  17.895  0.00  0.00    +0.000 C 
BRANCH  14  15
ATOM     15  C   UNL     1       2.169   2.271  17.907  0.00  0.00    +0.000 C 
BRANCH  15  16
ATOM     16  C   UNL     1       1.760   2.965  19.163  0.00  0.00    +0.000 A 
ATOM     17  C   UNL     1       1.359   4.272  19.347  0.00  0.00    +0.000 A 
ATOM     18  N   UNL     1       1.106   4.389  20.685  0.00  0.00    +0.000 N 
ATOM     19  C   UNL     1       1.352   3.173  21.257  0.00  0.00    +0.000 A 
ATOM     20  N   UNL     1       1.742   2.294  20.365  0.00  0.00    +0.000 NA
ATOM     21  H   UNL     1       0.793   5.220  21.170  0.00  0.00    +0.000 HD
ENDBRANCH  15  16
ENDBRANCH  14  15
ENDBRANCH   3  14
TORSDOF 6
ENDMDL
MODEL 5
REMARK VINA RESULT:      -6.6      1.977      2.816
REMARK  Name = 
REMARK  7 active torsions:
REMARK  status: ('A' for Active; 'I' for Inactive)
REMARK    1  A    between atoms: C_1  and  C_2
REMARK    2  A    between atoms: C_2  and  O_3
REMARK    3  A    between atoms: O_3  and  C_4
REMARK    4  A    between atoms: C_9  and  C_10
REMARK    5  A    between atoms: N_12  and  C_13
REMARK    6  A    between atoms: C_13  and  C_14
REMARK    7  A    between atoms: C_14  and  C_15
REMARK                            x       y       z     vdW  Elec       q    Type
REMARK                         _______ _______ _______ _____ _____    ______ ____
ROOT
ATOM      1  C   UNL     1       4.032   5.127  18.129  0.00  0.00    +0.000 C 
ATOM      2  O   UNL     1       3.885   5.807  17.117  0.00  0.00    +0.000 OA
ATOM      3  N   UNL     1       5.252   5.022  18.760  0.00  0.00    +0.000 N 
ATOM      4  H   UNL     1       5.317   4.441  19.592  0.00  0.00    +0.000 HD
ENDROOT
BRANCH   1  10
ATOM      5  C   UNL     1       2.102   4.840  19.829  0.00  0.00    +0.000 A 
ATOM      6  C   UNL     1       0.968   4.104  20.221  0.00  0.00    +0.000 A 
ATOM      7  C   UNL     1       0.635   2.906  19.588  0.00  0.00    +0.000 A 
ATOM      8  C   UNL     1       1.413   2.440  18.537  0.00  0.00    +0.000 A 
ATOM      9  C   UNL     1       2.501   3.193  18.096  0.00  0.00    +0.000 A 
ATOM     10  C   UNL     1       2.853   4.407  18.720  0.00  0.00    +0.000 A 
BRANCH   5  11
ATOM     11  O   UNL     1       2.492   5.977  20.496  0.00  0.00    +0.000 OA
BRANCH  11  13
ATOM     12  C   UNL     1       1.343   7.996  21.070  0.00  0.00    +0.000 C 
ATOM     13  C   UNL     1       1.992   7.205  19.951  0.00  0.00    +0.000 C 
ENDBRANCH  11  13
ENDBRANCH   5  11
ENDBRANCH   1  10
BRANCH   3  14
ATOM     14  C   UNL     1       6.420   5.712  18.239  0.00  0.00    +0.000 C 
BRANCH  14  15
ATOM     15  C   UNL     1       7.410   4.782  17.543  0.00  0.00    +0.000 C 
BRANCH  15  16
ATOM     16  C   UNL     1       7.036   4.525  16.122  0.00  0.00    +0.000 A 
ATOM     17  C   UNL     1       6.193   3.566  15.601  0.00  0.00    +0.000 A 
ATOM     18  N   UNL     1       6.206   3.766  14.248  0.00  0.00    +0.000 N 
ATOM     19  C   UNL     1       7.036   4.823  13.999  0.00  0.00    +0.000 A 
ATOM     20  N   UNL     1       7.546   5.305  15.107  0.00  0.00    +0.000 NA
ATOM     21  H   UNL     1       5.698   3.235  13.554  0.00  0.00    +0.000 HD
ENDBRANCH  15  16
ENDBRANCH  14  15
ENDBRANCH   3  14
TORSDOF 6
ENDMDL
MODEL 6
REMARK VINA RESULT:      -6.6      3.673      5.930
REMARK  Name = 
REMARK  7 active torsions:
REMARK  status: ('A' for Active; 'I' for Inactive)
REMARK    1  A    between atoms: C_1  and  C_2
REMARK    2  A    between atoms: C_2  and  O_3
REMARK    3  A    between atoms: O_3  and  C_4
REMARK    4  A    between atoms: C_9  and  C_10
REMARK    5  A    between atoms: N_12  and  C_13
REMARK    6  A    between atoms: C_13  and  C_14
REMARK    7  A    between atoms: C_14  and  C_15
REMARK                            x       y       z     vdW  Elec       q    Type
REMARK                         _______ _______ _______ _____ _____    ______ ____
ROOT
ATOM      1  C   UNL     1       2.697   6.099  20.053  0.00  0.00    +0.000 C 
ATOM      2  O   UNL     1       3.785   5.656  19.697  0.00  0.00    +0.000 OA
ATOM      3  N   UNL     1       1.914   5.444  20.979  0.00  0.00    +0.000 N 
ATOM      4  H   UNL     1       1.020   5.854  21.233  0.00  0.00    +0.000 HD
ENDROOT
BRANCH   1  10
ATOM      5  C   UNL     1       1.455   8.366  20.198  0.00  0.00    +0.000 A 
ATOM      6  C   UNL     1       1.135   9.583  19.570  0.00  0.00    +0.000 A 
ATOM      7  C   UNL     1       1.467   9.811  18.234  0.00  0.00    +0.000 A 
ATOM      8  C   UNL     1       2.148   8.839  17.515  0.00  0.00    +0.000 A 
ATOM      9  C   UNL     1       2.528   7.654  18.145  0.00  0.00    +0.000 A 
ATOM     10  C   UNL     1       2.204   7.404  19.494  0.00  0.00    +0.000 A 
BRANCH   5  11
ATOM     11  O   UNL     1       1.062   8.091  21.487  0.00  0.00    +0.000 OA
BRANCH  11  13
ATOM     12  C   UNL     1      -0.140   9.426  23.068  0.00  0.00    +0.000 C 
ATOM     13  C   UNL     1       1.203   9.177  22.411  0.00  0.00    +0.000 C 
ENDBRANCH  11  13
ENDBRANCH   5  11
ENDBRANCH   1  10
BRANCH   3  14
ATOM     14  C   UNL     1       2.352   4.186  21.563  0.00  0.00    +0.000 C 
BRANCH  14  15
ATOM     15  C   UNL     1       1.553   2.982  21.071  0.00  0.00    +0.000 C 
BRANCH  15  16
ATOM     16  C   UNL     1       2.038   2.489  19.749  0.00  0.00    +0.000 A 
ATOM     17  C   UNL     1       1.329   2.269  18.586  0.00  0.00    +0.000 A 
ATOM     18  N   UNL     1       2.248   1.815  17.681  0.00  0.00    +0.000 N 
ATOM     19  C   UNL     1       3.460   1.779  18.311  0.00  0.00    +0.000 A 
ATOM     20  N   UNL     1       3.367   2.184  19.555  0.00  0.00    +0.000 NA
ATOM     21  H   UNL     1       2.071   1.552  16.721  0.00  0.00    +0.000 HD
ENDBRANCH  15  16
ENDBRANCH  14  15
ENDBRANCH   3  14
TORSDOF 6
ENDMDL
MODEL 7
REMARK VINA RESULT:      -6.5      1.250      1.515
REMARK  Name = 
REMARK  7 active torsions:
REMARK  status: ('A' for Active; 'I' for Inactive)
REMARK    1  A    between atoms: C_1  and  C_2
REMARK    2  A    between atoms: C_2  and  O_3
REMARK    3  A    between atoms: O_3  and  C_4
REMARK    4  A    between atoms: C_9  and  C_10
REMARK    5  A    between atoms: N_12  and  C_13
REMARK    6  A    between atoms: C_13  and  C_14
REMARK    7  A    between atoms: C_14  and  C_15
REMARK                            x       y       z     vdW  Elec       q    Type
REMARK                         _______ _______ _______ _____ _____    ______ ____
ROOT
ATOM      1  C   UNL     1       3.802   4.206  17.445  0.00  0.00    +0.000 C 
ATOM      2  O   UNL     1       3.986   3.198  16.768  0.00  0.00    +0.000 OA
ATOM      3  N   UNL     1       4.371   5.417  17.111  0.00  0.00    +0.000 N 
ATOM      4  H   UNL     1       4.189   6.218  17.710  0.00  0.00    +0.000 HD
ENDROOT
BRANCH   1  10
ATOM      5  C   UNL     1       2.588   5.226  19.491  0.00  0.00    +0.000 A 
ATOM      6  C   UNL     1       1.674   5.033  20.542  0.00  0.00    +0.000 A 
ATOM      7  C   UNL     1       1.161   3.767  20.826  0.00  0.00    +0.000 A 
ATOM      8  C   UNL     1       1.532   2.681  20.045  0.00  0.00    +0.000 A 
ATOM      9  C   UNL     1       2.387   2.870  18.960  0.00  0.00    +0.000 A 
ATOM     10  C   UNL     1       2.915   4.141  18.655  0.00  0.00    +0.000 A 
BRANCH   5  11
ATOM     11  O   UNL     1       3.167   6.450  19.251  0.00  0.00    +0.000 OA
BRANCH  11  13
ATOM     12  C   UNL     1       2.106   8.165  17.963  0.00  0.00    +0.000 C 
ATOM     13  C   UNL     1       2.283   7.572  19.348  0.00  0.00    +0.000 C 
ENDBRANCH  11  13
ENDBRANCH   5  11
ENDBRANCH   1  10
BRANCH   3  14
ATOM     14  C   UNL     1       5.224   5.539  15.940  0.00  0.00    +0.000 C 
BRANCH  14  15
ATOM     15  C   UNL     1       6.648   5.042  16.177  0.00  0.00    +0.000 C 
BRANCH  15  16
ATOM     16  C   UNL     1       7.249   5.630  17.410  0.00  0.00    +0.000 A 
ATOM     17  C   UNL     1       7.703   6.913  17.633  0.00  0.00    +0.000 A 
ATOM     18  N   UNL     1       8.160   6.917  18.922  0.00  0.00    +0.000 N 
ATOM     19  C   UNL     1       7.966   5.663  19.429  0.00  0.00    +0.000 A 
ATOM     20  N   UNL     1       7.415   4.867  18.544  0.00  0.00    +0.000 NA
ATOM     21  H   UNL     1       8.566   7.701  19.416  0.00  0.00    +0.000 HD
ENDBRANCH  15  16
ENDBRANCH  14  15
ENDBRANCH   3  14
TORSDOF 6
ENDMDL
MODEL 8
REMARK VINA RESULT:      -6.5      1.511      3.137
REMARK  Name = 
REMARK  7 active torsions:
REMARK  status: ('A' for Active; 'I' for Inactive)
REMARK    1  A    between atoms: C_1  and  C_2
REMARK    2  A    between atoms: C_2  and  O_3
REMARK    3  A    between atoms: O_3  and  C_4
REMARK    4  A    between atoms: C_9  and  C_10
REMARK    5  A    between atoms: N_12  and  C_13
REMARK    6  A    between atoms: C_13  and  C_14
REMARK    7  A    between atoms: C_14  and  C_15
REMARK                            x       y       z     vdW  Elec       q    Type
REMARK                         _______ _______ _______ _____ _____    ______ ____
ROOT
ATOM      1  C   UNL     1       3.307   5.084  17.670  0.00  0.00    +0.000 C 
ATOM      2  O   UNL     1       2.624   4.130  17.306  0.00  0.00    +0.000 OA
ATOM      3  N   UNL     1       4.628   5.213  17.301  0.00  0.00    +0.000 N 
ATOM      4  H   UNL     1       5.147   6.020  17.635  0.00  0.00    +0.000 HD
ENDROOT
BRANCH   1  10
ATOM      5  C   UNL     1       2.301   6.022  19.863  0.00  0.00    +0.000 A 
ATOM      6  C   UNL     1       1.816   7.145  20.558  0.00  0.00    +0.000 A 
ATOM      7  C   UNL     1       1.627   8.366  19.909  0.00  0.00    +0.000 A 
ATOM      8  C   UNL     1       1.948   8.491  18.564  0.00  0.00    +0.000 A 
ATOM      9  C   UNL     1       2.491   7.403  17.880  0.00  0.00    +0.000 A 
ATOM     10  C   UNL     1       2.691   6.162  18.517  0.00  0.00    +0.000 A 
BRANCH   5  11
ATOM     11  O   UNL     1       2.413   4.791  20.465  0.00  0.00    +0.000 OA
BRANCH  11  13
ATOM     12  C   UNL     1       1.435   2.845  21.457  0.00  0.00    +0.000 C 
ATOM     13  C   UNL     1       1.191   4.051  20.571  0.00  0.00    +0.000 C 
ENDBRANCH  11  13
ENDBRANCH   5  11
ENDBRANCH   1  10
BRANCH   3  14
ATOM     14  C   UNL     1       5.268   4.207  16.468  0.00  0.00    +0.000 C 
BRANCH  14  15
ATOM     15  C   UNL     1       6.773   4.414  16.322  0.00  0.00    +0.000 C 
BRANCH  15  16
ATOM     16  C   UNL     1       7.285   5.477  17.235  0.00  0.00    +0.000 A 
ATOM     17  C   UNL     1       7.736   5.369  18.534  0.00  0.00    +0.000 A 
ATOM     18  N   UNL     1       8.081   6.638  18.906  0.00  0.00    +0.000 N 
ATOM     19  C   UNL     1       7.838   7.458  17.840  0.00  0.00    +0.000 A 
ATOM     20  N   UNL     1       7.364   6.787  16.817  0.00  0.00    +0.000 NA
ATOM     21  H   UNL     1       8.449   6.926  19.803  0.00  0.00    +0.000 HD
ENDBRANCH  15  16
ENDBRANCH  14  15
ENDBRANCH   3  14
TORSDOF 6
ENDMDL
MODEL 9
REMARK VINA RESULT:      -6.5      2.667      5.942
REMARK  Name = 
REMARK  7 active torsions:
REMARK  status: ('A' for Active; 'I' for Inactive)
REMARK    1  A    between atoms: C_1  and  C_2
REMARK    2  A    between atoms: C_2  and  O_3
REMARK    3  A    between atoms: O_3  and  C_4
REMARK    4  A    between atoms: C_9  and  C_10
REMARK    5  A    between atoms: N_12  and  C_13
REMARK    6  A    between atoms: C_13  and  C_14
REMARK    7  A    between atoms: C_14  and  C_15
REMARK                            x       y       z     vdW  Elec       q    Type
REMARK                         _______ _______ _______ _____ _____    ______ ____
ROOT
ATOM      1  C   UNL     1       3.654   5.028  18.042  0.00  0.00    +0.000 C 
ATOM      2  O   UNL     1       3.063   6.055  18.366  0.00  0.00    +0.000 OA
ATOM      3  N   UNL     1       2.976   3.899  17.636  0.00  0.00    +0.000 N 
ATOM      4  H   UNL     1       3.515   3.076  17.384  0.00  0.00    +0.000 HD
ENDROOT
BRANCH   1  10
ATOM      5  C   UNL     1       5.975   4.518  17.016  0.00  0.00    +0.000 A 
ATOM      6  C   UNL     1       7.372   4.628  17.135  0.00  0.00    +0.000 A 
ATOM      7  C   UNL     1       7.958   5.115  18.304  0.00  0.00    +0.000 A 
ATOM      8  C   UNL     1       7.155   5.527  19.360  0.00  0.00    +0.000 A 
ATOM      9  C   UNL     1       5.767   5.483  19.229  0.00  0.00    +0.000 A 
ATOM     10  C   UNL     1       5.156   4.995  18.057  0.00  0.00    +0.000 A 
BRANCH   5  11
ATOM     11  O   UNL     1       5.385   3.962  15.906  0.00  0.00    +0.000 OA
BRANCH  11  13
ATOM     12  C   UNL     1       6.151   3.827  13.643  0.00  0.00    +0.000 C 
ATOM     13  C   UNL     1       5.526   4.718  14.697  0.00  0.00    +0.000 C 
ENDBRANCH  11  13
ENDBRANCH   5  11
ENDBRANCH   1  10
BRANCH   3  14
ATOM     14  C   UNL     1       1.523   3.883  17.587  0.00  0.00    +0.000 C 
BRANCH  14  15
ATOM     15  C   UNL     1       0.897   2.886  18.559  0.00  0.00    +0.000 C 
BRANCH  15  16
ATOM     16  C   UNL     1       1.571   2.902  19.890  0.00  0.00    +0.000 A 
ATOM     17  C   UNL     1       1.169   3.503  21.065  0.00  0.00    +0.000 A 
ATOM     18  N   UNL     1       2.148   3.215  21.974  0.00  0.00    +0.000 N 
ATOM     19  C   UNL     1       3.091   2.459  21.335  0.00  0.00    +0.000 A 
ATOM     20  N   UNL     1       2.769   2.249  20.081  0.00  0.00    +0.000 NA
ATOM     21  H   UNL     1       2.177   3.504  22.943  0.00  0.00    +0.000 HD
ENDBRANCH  15  16
ENDBRANCH  14  15
ENDBRANCH   3  14
TORSDOF 6
ENDMDL
