MODEL 1
REMARK VINA RESULT:      -6.9      0.000      0.000
REMARK  Name = 
REMARK  12 active torsions:
REMARK  status: ('A' for Active; 'I' for Inactive)
REMARK    1  A    between atoms: C_1  and  O_2
REMARK    2  A    between atoms: O_2  and  C_3
REMARK    3  A    between atoms: C_6  and  C_7
REMARK    4  A    between atoms: C_7  and  S_8
REMARK    5  A    between atoms: S_8  and  C_11
REMARK    6  A    between atoms: C_12  and  C_13
REMARK    7  A    between atoms: C_16  and  O_17
REMARK    8  A    between atoms: O_17  and  C_18
REMARK    9  A    between atoms: C_19  and  O_20
REMARK   10  A    between atoms: O_20  and  C_21
REMARK   11  A    between atoms: C_22  and  O_23
REMARK   12  A    between atoms: O_23  and  C_24
REMARK                            x       y       z     vdW  Elec       q    Type
REMARK                         _______ _______ _______ _____ _____    ______ ____
ROOT
ATOM      1  C   UNL     1       4.588   6.901  17.911  0.00  0.00    +0.000 C 
ATOM      2  C   UNL     1       3.378   7.410  17.640  0.00  0.00    +0.000 C 
ENDROOT
BRANCH   2   3
ATOM      3  C   UNL     1       2.462   7.932  18.663  0.00  0.00    +0.000 A 
ATOM      4  C   UNL     1       2.306   7.159  19.821  0.00  0.00    +0.000 A 
ATOM      5  C   UNL     1       1.409   7.545  20.813  0.00  0.00    +0.000 A 
ATOM      6  C   UNL     1       0.651   8.711  20.679  0.00  0.00    +0.000 A 
ATOM      7  C   UNL     1       0.787   9.513  19.525  0.00  0.00    +0.000 A 
ATOM      8  C   UNL     1       1.716   9.130  18.517  0.00  0.00    +0.000 A 
BRANCH   6   9
ATOM      9  O   UNL     1      -0.219   8.896  21.727  0.00  0.00    +0.000 OA
ATOM     10  C   UNL     1       0.312   9.409  22.942  0.00  0.00    +0.000 C 
ENDBRANCH   6   9
BRANCH   7  11
ATOM     11  O   UNL     1      -0.049  10.601  19.479  0.00  0.00    +0.000 OA
ATOM     12  C   UNL     1      -1.307  10.541  18.831  0.00  0.00    +0.000 C 
ENDBRANCH   7  11
BRANCH   8  13
ATOM     13  O   UNL     1       1.911  10.033  17.503  0.00  0.00    +0.000 OA
ATOM     14  C   UNL     1       2.521  11.290  17.752  0.00  0.00    +0.000 C 
ENDBRANCH   8  13
ENDBRANCH   2   3
BRANCH   1  15
ATOM     15  S   UNL     1       5.707   6.617  16.597  0.00  0.00    +0.000 S 
ATOM     16  O   UNL     1       6.924   7.334  16.920  0.00  0.00    +0.000 OA
ATOM     17  O   UNL     1       4.996   6.883  15.356  0.00  0.00    +0.000 OA
BRANCH  15  18
ATOM     18  C   UNL     1       6.038   4.860  16.683  0.00  0.00    +0.000 C 
BRANCH  18  22
ATOM     19  C   UNL     1       2.939   2.834  18.926  0.00  0.00    +0.000 A 
ATOM     20  C   UNL     1       2.741   3.177  17.589  0.00  0.00    +0.000 A 
ATOM     21  C   UNL     1       3.737   3.833  16.865  0.00  0.00    +0.000 A 
ATOM     22  C   UNL     1       4.950   4.173  17.473  0.00  0.00    +0.000 A 
ATOM     23  C   UNL     1       5.128   3.866  18.831  0.00  0.00    +0.000 A 
ATOM     24  C   UNL     1       4.129   3.197  19.552  0.00  0.00    +0.000 A 
BRANCH  19  26
ATOM     25  C   UNL     1       0.662   2.204  18.810  0.00  0.00    +0.000 C 
ATOM     26  O   UNL     1       1.893   2.184  19.523  0.00  0.00    +0.000 OA
ENDBRANCH  19  26
ENDBRANCH  18  22
ENDBRANCH  15  18
ENDBRANCH   1  15
TORSDOF 8
ENDMDL
MODEL 2
REMARK VINA RESULT:      -6.9      2.541      7.961
REMARK  Name = 
REMARK  12 active torsions:
REMARK  status: ('A' for Active; 'I' for Inactive)
REMARK    1  A    between atoms: C_1  and  O_2
REMARK    2  A    between atoms: O_2  and  C_3
REMARK    3  A    between atoms: C_6  and  C_7
REMARK    4  A    between atoms: C_7  and  S_8
REMARK    5  A    between atoms: S_8  and  C_11
REMARK    6  A    between atoms: C_12  and  C_13
REMARK    7  A    between atoms: C_16  and  O_17
REMARK    8  A    between atoms: O_17  and  C_18
REMARK    9  A    between atoms: C_19  and  O_20
REMARK   10  A    between atoms: O_20  and  C_21
REMARK   11  A    between atoms: C_22  and  O_23
REMARK   12  A    between atoms: O_23  and  C_24
REMARK                            x       y       z     vdW  Elec       q    Type
REMARK                         _______ _______ _______ _____ _____    ______ ____
ROOT
ATOM      1  C   UNL     1       1.686   8.220  20.148  0.00  0.00    +0.000 C 
ATOM      2  C   UNL     1       1.866   6.916  20.402  0.00  0.00    +0.000 C 
ENDROOT
BRANCH   2   3
ATOM      3  C   UNL     1       2.787   6.055  19.648  0.00  0.00    +0.000 A 
ATOM      4  C   UNL     1       3.436   6.636  18.551  0.00  0.00    +0.000 A 
ATOM      5  C   UNL     1       4.276   5.874  17.743  0.00  0.00    +0.000 A 
ATOM      6  C   UNL     1       4.493   4.520  18.010  0.00  0.00    +0.000 A 
ATOM      7  C   UNL     1       3.855   3.905  19.110  0.00  0.00    +0.000 A 
ATOM      8  C   UNL     1       3.010   4.686  19.948  0.00  0.00    +0.000 A 
BRANCH   6   9
ATOM      9  O   UNL     1       5.301   3.922  17.072  0.00  0.00    +0.000 OA
ATOM     10  C   UNL     1       5.181   4.361  15.724  0.00  0.00    +0.000 C 
ENDBRANCH   6   9
BRANCH   7  11
ATOM     11  O   UNL     1       4.099   2.561  19.239  0.00  0.00    +0.000 OA
ATOM     12  C   UNL     1       3.366   1.601  18.498  0.00  0.00    +0.000 C 
ENDBRANCH   7  11
BRANCH   8  13
ATOM     13  O   UNL     1       2.551   4.067  21.083  0.00  0.00    +0.000 OA
ATOM     14  C   UNL     1       1.342   3.323  21.071  0.00  0.00    +0.000 C 
ENDBRANCH   8  13
ENDBRANCH   2   3
BRANCH   1  15
ATOM     15  S   UNL     1       0.821   9.203  21.306  0.00  0.00    +0.000 S 
ATOM     16  O   UNL     1       1.650   9.281  22.492  0.00  0.00    +0.000 OA
ATOM     17  O   UNL     1      -0.537   8.689  21.384  0.00  0.00    +0.000 OA
BRANCH  15  18
ATOM     18  C   UNL     1       0.761  10.820  20.542  0.00  0.00    +0.000 C 
BRANCH  18  22
ATOM     19  C   UNL     1      -2.583  10.960  17.796  0.00  0.00    +0.000 A 
ATOM     20  C   UNL     1      -1.453  10.195  17.504  0.00  0.00    +0.000 A 
ATOM     21  C   UNL     1      -0.373  10.150  18.386  0.00  0.00    +0.000 A 
ATOM     22  C   UNL     1      -0.397  10.887  19.576  0.00  0.00    +0.000 A 
ATOM     23  C   UNL     1      -1.517  11.690  19.844  0.00  0.00    +0.000 A 
ATOM     24  C   UNL     1      -2.604  11.723  18.960  0.00  0.00    +0.000 A 
BRANCH  19  26
ATOM     25  C   UNL     1      -3.150  10.829  15.503  0.00  0.00    +0.000 C 
ATOM     26  O   UNL     1      -3.577  10.912  16.858  0.00  0.00    +0.000 OA
ENDBRANCH  19  26
ENDBRANCH  18  22
ENDBRANCH  15  18
ENDBRANCH   1  15
TORSDOF 8
ENDMDL
MODEL 3
REMARK VINA RESULT:      -6.9      0.951      1.361
REMARK  Name = 
REMARK  12 active torsions:
REMARK  status: ('A' for Active; 'I' for Inactive)
REMARK    1  A    between atoms: C_1  and  O_2
REMARK    2  A    between atoms: O_2  and  C_3
REMARK    3  A    between atoms: C_6  and  C_7
REMARK    4  A    between atoms: C_7  and  S_8
REMARK    5  A    between atoms: S_8  and  C_11
REMARK    6  A    between atoms: C_12  and  C_13
REMARK    7  A    between atoms: C_16  and  O_17
REMARK    8  A    between atoms: O_17  and  C_18
REMARK    9  A    between atoms: C_19  and  O_20
REMARK   10  A    between atoms: O_20  and  C_21
REMARK   11  A    between atoms: C_22  and  O_23
REMARK   12  A    between atoms: O_23  and  C_24
REMARK                            x       y       z     vdW  Elec       q    Type
REMARK                         _______ _______ _______ _____ _____    ______ ____
ROOT
ATOM      1  C   UNL     1       3.826   6.597  17.879  0.00  0.00    +0.000 C 
ATOM      2  C   UNL     1       3.200   7.782  17.838  0.00  0.00    +0.000 C 
ENDROOT
BRANCH   2   3
ATOM      3  C   UNL     1       2.253   8.243  18.861  0.00  0.00    +0.000 A 
ATOM      4  C   UNL     1       2.122   7.443  20.004  0.00  0.00    +0.000 A 
ATOM      5  C   UNL     1       1.200   7.771  20.994  0.00  0.00    +0.000 A 
ATOM      6  C   UNL     1       0.391   8.904  20.874  0.00  0.00    +0.000 A 
ATOM      7  C   UNL     1       0.501   9.732  19.735  0.00  0.00    +0.000 A 
ATOM      8  C   UNL     1       1.455   9.409  18.729  0.00  0.00    +0.000 A 
BRANCH   6   9
ATOM      9  O   UNL     1      -0.495   9.030  21.917  0.00  0.00    +0.000 OA
ATOM     10  C   UNL     1       0.018   9.473  23.168  0.00  0.00    +0.000 C 
ENDBRANCH   6   9
BRANCH   7  11
ATOM     11  O   UNL     1      -0.382  10.783  19.701  0.00  0.00    +0.000 OA
ATOM     12  C   UNL     1      -0.103  12.005  20.362  0.00  0.00    +0.000 C 
ENDBRANCH   7  11
BRANCH   8  13
ATOM     13  O   UNL     1       1.618  10.338  17.733  0.00  0.00    +0.000 OA
ATOM     14  C   UNL     1       2.455  11.469  17.919  0.00  0.00    +0.000 C 
ENDBRANCH   8  13
ENDBRANCH   2   3
BRANCH   1  15
ATOM     15  S   UNL     1       5.161   6.300  16.789  0.00  0.00    +0.000 S 
ATOM     16  O   UNL     1       6.373   6.634  17.510  0.00  0.00    +0.000 OA
ATOM     17  O   UNL     1       4.846   6.951  15.528  0.00  0.00    +0.000 OA
BRANCH  15  18
ATOM     18  C   UNL     1       5.120   4.531  16.528  0.00  0.00    +0.000 C 
BRANCH  18  22
ATOM     19  C   UNL     1       2.371   2.750  19.358  0.00  0.00    +0.000 A 
ATOM     20  C   UNL     1       3.647   3.146  19.758  0.00  0.00    +0.000 A 
ATOM     21  C   UNL     1       4.536   3.718  18.847  0.00  0.00    +0.000 A 
ATOM     22  C   UNL     1       4.168   3.890  17.508  0.00  0.00    +0.000 A 
ATOM     23  C   UNL     1       2.899   3.450  17.100  0.00  0.00    +0.000 A 
ATOM     24  C   UNL     1       2.005   2.886  18.022  0.00  0.00    +0.000 A 
BRANCH  19  26
ATOM     25  C   UNL     1       1.873   2.656  21.669  0.00  0.00    +0.000 C 
ATOM     26  O   UNL     1       1.590   2.215  20.346  0.00  0.00    +0.000 OA
ENDBRANCH  19  26
ENDBRANCH  18  22
ENDBRANCH  15  18
ENDBRANCH   1  15
TORSDOF 8
ENDMDL
MODEL 4
REMARK VINA RESULT:      -6.6      2.116      4.565
REMARK  Name = 
REMARK  12 active torsions:
REMARK  status: ('A' for Active; 'I' for Inactive)
REMARK    1  A    between atoms: C_1  and  O_2
REMARK    2  A    between atoms: O_2  and  C_3
REMARK    3  A    between atoms: C_6  and  C_7
REMARK    4  A    between atoms: C_7  and  S_8
REMARK    5  A    between atoms: S_8  and  C_11
REMARK    6  A    between atoms: C_12  and  C_13
REMARK    7  A    between atoms: C_16  and  O_17
REMARK    8  A    between atoms: O_17  and  C_18
REMARK    9  A    between atoms: C_19  and  O_20
REMARK   10  A    between atoms: O_20  and  C_21
REMARK   11  A    between atoms: C_22  and  O_23
REMARK   12  A    between atoms: O_23  and  C_24
REMARK                            x       y       z     vdW  Elec       q    Type
REMARK                         _______ _______ _______ _____ _____    ______ ____
ROOT
ATOM      1  C   UNL     1       3.080   5.199  17.643  0.00  0.00    +0.000 C 
ATOM      2  C   UNL     1       3.345   6.103  18.596  0.00  0.00    +0.000 C 
ENDROOT
BRANCH   2   3
ATOM      3  C   UNL     1       2.545   7.314  18.820  0.00  0.00    +0.000 A 
ATOM      4  C   UNL     1       2.465   8.221  17.755  0.00  0.00    +0.000 A 
ATOM      5  C   UNL     1       1.782   9.425  17.902  0.00  0.00    +0.000 A 
ATOM      6  C   UNL     1       1.158   9.753  19.110  0.00  0.00    +0.000 A 
ATOM      7  C   UNL     1       1.220   8.859  20.202  0.00  0.00    +0.000 A 
ATOM      8  C   UNL     1       1.903   7.619  20.048  0.00  0.00    +0.000 A 
BRANCH   6   9
ATOM      9  O   UNL     1       0.588  11.003  19.084  0.00  0.00    +0.000 OA
ATOM     10  C   UNL     1      -0.756  11.105  18.631  0.00  0.00    +0.000 C 
ENDBRANCH   6   9
BRANCH   7  11
ATOM     11  O   UNL     1       0.621   9.313  21.350  0.00  0.00    +0.000 OA
ATOM     12  C   UNL     1      -0.578   8.735  21.836  0.00  0.00    +0.000 C 
ENDBRANCH   7  11
BRANCH   8  13
ATOM     13  O   UNL     1       1.789   6.736  21.091  0.00  0.00    +0.000 OA
ATOM     14  C   UNL     1       1.399   5.389  20.869  0.00  0.00    +0.000 C 
ENDBRANCH   8  13
ENDBRANCH   2   3
BRANCH   1  15
ATOM     15  S   UNL     1       3.898   3.653  17.684  0.00  0.00    +0.000 S 
ATOM     16  O   UNL     1       3.005   2.690  17.070  0.00  0.00    +0.000 OA
ATOM     17  O   UNL     1       4.384   3.454  19.039  0.00  0.00    +0.000 OA
BRANCH  15  18
ATOM     18  C   UNL     1       5.313   3.885  16.613  0.00  0.00    +0.000 C 
BRANCH  18  22
ATOM     19  C   UNL     1       7.826   7.007  18.248  0.00  0.00    +0.000 A 
ATOM     20  C   UNL     1       7.063   7.235  17.103  0.00  0.00    +0.000 A 
ATOM     21  C   UNL     1       6.254   6.229  16.572  0.00  0.00    +0.000 A 
ATOM     22  C   UNL     1       6.206   4.965  17.172  0.00  0.00    +0.000 A 
ATOM     23  C   UNL     1       7.010   4.727  18.298  0.00  0.00    +0.000 A 
ATOM     24  C   UNL     1       7.813   5.744  18.834  0.00  0.00    +0.000 A 
BRANCH  19  26
ATOM     25  C   UNL     1       8.314   9.310  18.018  0.00  0.00    +0.000 C 
ATOM     26  O   UNL     1       8.568   8.075  18.676  0.00  0.00    +0.000 OA
ENDBRANCH  19  26
ENDBRANCH  18  22
ENDBRANCH  15  18
ENDBRANCH   1  15
TORSDOF 8
ENDMDL
MODEL 5
REMARK VINA RESULT:      -6.5      1.167      2.379
REMARK  Name = 
REMARK  12 active torsions:
REMARK  status: ('A' for Active; 'I' for Inactive)
REMARK    1  A    between atoms: C_1  and  O_2
REMARK    2  A    between atoms: O_2  and  C_3
REMARK    3  A    between atoms: C_6  and  C_7
REMARK    4  A    between atoms: C_7  and  S_8
REMARK    5  A    between atoms: S_8  and  C_11
REMARK    6  A    between atoms: C_12  and  C_13
REMARK    7  A    between atoms: C_16  and  O_17
REMARK    8  A    between atoms: O_17  and  C_18
REMARK    9  A    between atoms: C_19  and  O_20
REMARK   10  A    between atoms: O_20  and  C_21
REMARK   11  A    between atoms: C_22  and  O_23
REMARK   12  A    between atoms: O_23  and  C_24
REMARK                            x       y       z     vdW  Elec       q    Type
REMARK                         _______ _______ _______ _____ _____    ______ ____
ROOT
ATOM      1  C   UNL     1       4.821   7.229  17.901  0.00  0.00    +0.000 C 
ATOM      2  C   UNL     1       3.548   7.339  17.497  0.00  0.00    +0.000 C 
ENDROOT
BRANCH   2   3
ATOM      3  C   UNL     1       2.513   8.068  18.242  0.00  0.00    +0.000 A 
ATOM      4  C   UNL     1       1.905   9.145  17.585  0.00  0.00    +0.000 A 
ATOM      5  C   UNL     1       0.960   9.930  18.240  0.00  0.00    +0.000 A 
ATOM      6  C   UNL     1       0.594   9.660  19.561  0.00  0.00    +0.000 A 
ATOM      7  C   UNL     1       1.188   8.580  20.251  0.00  0.00    +0.000 A 
ATOM      8  C   UNL     1       2.141   7.764  19.578  0.00  0.00    +0.000 A 
BRANCH   6   9
ATOM      9  O   UNL     1      -0.303  10.576  20.056  0.00  0.00    +0.000 OA
ATOM     10  C   UNL     1       0.112  11.935  20.121  0.00  0.00    +0.000 C 
ENDBRANCH   6   9
BRANCH   7  11
ATOM     11  O   UNL     1       0.793   8.446  21.559  0.00  0.00    +0.000 OA
ATOM     12  C   UNL     1       1.391   9.208  22.594  0.00  0.00    +0.000 C 
ENDBRANCH   7  11
BRANCH   8  13
ATOM     13  O   UNL     1       2.557   6.644  20.252  0.00  0.00    +0.000 OA
ATOM     14  C   UNL     1       1.636   5.628  20.617  0.00  0.00    +0.000 C 
ENDBRANCH   8  13
ENDBRANCH   2   3
BRANCH   1  15
ATOM     15  S   UNL     1       6.021   6.623  16.783  0.00  0.00    +0.000 S 
ATOM     16  O   UNL     1       7.183   7.479  16.910  0.00  0.00    +0.000 OA
ATOM     17  O   UNL     1       5.366   6.447  15.496  0.00  0.00    +0.000 OA
BRANCH  15  18
ATOM     18  C   UNL     1       6.431   5.003  17.424  0.00  0.00    +0.000 C 
BRANCH  18  22
ATOM     19  C   UNL     1       2.832   2.756  18.284  0.00  0.00    +0.000 A 
ATOM     20  C   UNL     1       3.121   3.167  16.982  0.00  0.00    +0.000 A 
ATOM     21  C   UNL     1       4.278   3.894  16.703  0.00  0.00    +0.000 A 
ATOM     22  C   UNL     1       5.166   4.238  17.729  0.00  0.00    +0.000 A 
ATOM     23  C   UNL     1       4.849   3.860  19.044  0.00  0.00    +0.000 A 
ATOM     24  C   UNL     1       3.690   3.121  19.318  0.00  0.00    +0.000 A 
BRANCH  19  26
ATOM     25  C   UNL     1       0.791   2.486  19.448  0.00  0.00    +0.000 C 
ATOM     26  O   UNL     1       1.674   2.041  18.426  0.00  0.00    +0.000 OA
ENDBRANCH  19  26
ENDBRANCH  18  22
ENDBRANCH  15  18
ENDBRANCH   1  15
TORSDOF 8
ENDMDL
MODEL 6
REMARK VINA RESULT:      -6.5      2.628      8.208
REMARK  Name = 
REMARK  12 active torsions:
REMARK  status: ('A' for Active; 'I' for Inactive)
REMARK    1  A    between atoms: C_1  and  O_2
REMARK    2  A    between atoms: O_2  and  C_3
REMARK    3  A    between atoms: C_6  and  C_7
REMARK    4  A    between atoms: C_7  and  S_8
REMARK    5  A    between atoms: S_8  and  C_11
REMARK    6  A    between atoms: C_12  and  C_13
REMARK    7  A    between atoms: C_16  and  O_17
REMARK    8  A    between atoms: O_17  and  C_18
REMARK    9  A    between atoms: C_19  and  O_20
REMARK   10  A    between atoms: O_20  and  C_21
REMARK   11  A    between atoms: C_22  and  O_23
REMARK   12  A    between atoms: O_23  and  C_24
REMARK                            x       y       z     vdW  Elec       q    Type
REMARK                         _______ _______ _______ _____ _____    ______ ____
ROOT
ATOM      1  C   UNL     1       1.831   8.561  17.853  0.00  0.00    +0.000 C 
ATOM      2  C   UNL     1       2.188   7.474  18.551  0.00  0.00    +0.000 C 
ENDROOT
BRANCH   2   3
ATOM      3  C   UNL     1       3.015   6.389  18.008  0.00  0.00    +0.000 A 
ATOM      4  C   UNL     1       4.226   6.760  17.409  0.00  0.00    +0.000 A 
ATOM      5  C   UNL     1       5.041   5.802  16.811  0.00  0.00    +0.000 A 
ATOM      6  C   UNL     1       4.674   4.454  16.800  0.00  0.00    +0.000 A 
ATOM      7  C   UNL     1       3.460   4.048  17.398  0.00  0.00    +0.000 A 
ATOM      8  C   UNL     1       2.633   5.022  18.025  0.00  0.00    +0.000 A 
BRANCH   6   9
ATOM      9  O   UNL     1       5.571   3.670  16.115  0.00  0.00    +0.000 OA
ATOM     10  C   UNL     1       6.007   4.128  14.840  0.00  0.00    +0.000 C 
ENDBRANCH   6   9
BRANCH   7  11
ATOM     11  O   UNL     1       3.179   2.710  17.276  0.00  0.00    +0.000 OA
ATOM     12  C   UNL     1       3.543   1.783  18.284  0.00  0.00    +0.000 C 
ENDBRANCH   7  11
BRANCH   8  13
ATOM     13  O   UNL     1       1.554   4.538  18.720  0.00  0.00    +0.000 OA
ATOM     14  C   UNL     1       1.616   4.345  20.124  0.00  0.00    +0.000 C 
ENDBRANCH   8  13
ENDBRANCH   2   3
BRANCH   1  15
ATOM     15  S   UNL     1       1.128   9.923  18.696  0.00  0.00    +0.000 S 
ATOM     16  O   UNL     1      -0.264   9.988  18.300  0.00  0.00    +0.000 OA
ATOM     17  O   UNL     1       2.010  11.061  18.496  0.00  0.00    +0.000 OA
BRANCH  15  18
ATOM     18  C   UNL     1       1.209   9.452  20.421  0.00  0.00    +0.000 C 
BRANCH  18  22
ATOM     19  C   UNL     1      -1.065  12.282  22.779  0.00  0.00    +0.000 A 
ATOM     20  C   UNL     1      -0.195  12.723  21.781  0.00  0.00    +0.000 A 
ATOM     21  C   UNL     1       0.542  11.813  21.022  0.00  0.00    +0.000 A 
ATOM     22  C   UNL     1       0.432  10.438  21.258  0.00  0.00    +0.000 A 
ATOM     23  C   UNL     1      -0.411  10.001  22.293  0.00  0.00    +0.000 A 
ATOM     24  C   UNL     1      -1.156  10.919  23.046  0.00  0.00    +0.000 A 
BRANCH  19  26
ATOM     25  C   UNL     1      -1.279  14.597  23.213  0.00  0.00    +0.000 C 
ATOM     26  O   UNL     1      -1.737  13.270  23.445  0.00  0.00    +0.000 OA
ENDBRANCH  19  26
ENDBRANCH  18  22
ENDBRANCH  15  18
ENDBRANCH   1  15
TORSDOF 8
ENDMDL
MODEL 7
REMARK VINA RESULT:      -6.5      2.646      8.091
REMARK  Name = 
REMARK  12 active torsions:
REMARK  status: ('A' for Active; 'I' for Inactive)
REMARK    1  A    between atoms: C_1  and  O_2
REMARK    2  A    between atoms: O_2  and  C_3
REMARK    3  A    between atoms: C_6  and  C_7
REMARK    4  A    between atoms: C_7  and  S_8
REMARK    5  A    between atoms: S_8  and  C_11
REMARK    6  A    between atoms: C_12  and  C_13
REMARK    7  A    between atoms: C_16  and  O_17
REMARK    8  A    between atoms: O_17  and  C_18
REMARK    9  A    between atoms: C_19  and  O_20
REMARK   10  A    between atoms: O_20  and  C_21
REMARK   11  A    between atoms: C_22  and  O_23
REMARK   12  A    between atoms: O_23  and  C_24
REMARK                            x       y       z     vdW  Elec       q    Type
REMARK                         _______ _______ _______ _____ _____    ______ ____
ROOT
ATOM      1  C   UNL     1       1.085   8.201  20.441  0.00  0.00    +0.000 C 
ATOM      2  C   UNL     1       1.794   7.104  20.738  0.00  0.00    +0.000 C 
ENDROOT
BRANCH   2   3
ATOM      3  C   UNL     1       2.366   6.202  19.729  0.00  0.00    +0.000 A 
ATOM      4  C   UNL     1       3.210   6.782  18.772  0.00  0.00    +0.000 A 
ATOM      5  C   UNL     1       3.743   6.012  17.742  0.00  0.00    +0.000 A 
ATOM      6  C   UNL     1       3.456   4.649  17.642  0.00  0.00    +0.000 A 
ATOM      7  C   UNL     1       2.610   4.034  18.592  0.00  0.00    +0.000 A 
ATOM      8  C   UNL     1       2.077   4.814  19.657  0.00  0.00    +0.000 A 
BRANCH   6   9
ATOM      9  O   UNL     1       4.021   4.072  16.531  0.00  0.00    +0.000 OA
ATOM     10  C   UNL     1       5.438   4.127  16.409  0.00  0.00    +0.000 C 
ENDBRANCH   6   9
BRANCH   7  11
ATOM     11  O   UNL     1       2.355   2.706  18.360  0.00  0.00    +0.000 OA
ATOM     12  C   UNL     1       3.289   1.700  18.711  0.00  0.00    +0.000 C 
ENDBRANCH   7  11
BRANCH   8  13
ATOM     13  O   UNL     1       1.397   4.123  20.628  0.00  0.00    +0.000 OA
ATOM     14  C   UNL     1       2.090   3.455  21.670  0.00  0.00    +0.000 C 
ENDBRANCH   8  13
ENDBRANCH   2   3
BRANCH   1  15
ATOM     15  S   UNL     1       0.738   9.359  21.705  0.00  0.00    +0.000 S 
ATOM     16  O   UNL     1       1.837   9.293  22.648  0.00  0.00    +0.000 OA
ATOM     17  O   UNL     1      -0.629   9.129  22.143  0.00  0.00    +0.000 OA
BRANCH  15  18
ATOM     18  C   UNL     1       0.796  10.941  20.870  0.00  0.00    +0.000 C 
BRANCH  18  22
ATOM     19  C   UNL     1      -2.625  11.415  18.260  0.00  0.00    +0.000 A 
ATOM     20  C   UNL     1      -2.576  12.064  19.494  0.00  0.00    +0.000 A 
ATOM     21  C   UNL     1      -1.475  11.910  20.338  0.00  0.00    +0.000 A 
ATOM     22  C   UNL     1      -0.405  11.088  19.968  0.00  0.00    +0.000 A 
ATOM     23  C   UNL     1      -0.479  10.402  18.746  0.00  0.00    +0.000 A 
ATOM     24  C   UNL     1      -1.582  10.567  17.896  0.00  0.00    +0.000 A 
BRANCH  19  26
ATOM     25  C   UNL     1      -4.954  11.829  18.259  0.00  0.00    +0.000 C 
ATOM     26  O   UNL     1      -3.751  11.654  17.521  0.00  0.00    +0.000 OA
ENDBRANCH  19  26
ENDBRANCH  18  22
ENDBRANCH  15  18
ENDBRANCH   1  15
TORSDOF 8
ENDMDL
MODEL 8
REMARK VINA RESULT:      -6.5      2.459      7.910
REMARK  Name = 
REMARK  12 active torsions:
REMARK  status: ('A' for Active; 'I' for Inactive)
REMARK    1  A    between atoms: C_1  and  O_2
REMARK    2  A    between atoms: O_2  and  C_3
REMARK    3  A    between atoms: C_6  and  C_7
REMARK    4  A    between atoms: C_7  and  S_8
REMARK    5  A    between atoms: S_8  and  C_11
REMARK    6  A    between atoms: C_12  and  C_13
REMARK    7  A    between atoms: C_16  and  O_17
REMARK    8  A    between atoms: O_17  and  C_18
REMARK    9  A    between atoms: C_19  and  O_20
REMARK   10  A    between atoms: O_20  and  C_21
REMARK   11  A    between atoms: C_22  and  O_23
REMARK   12  A    between atoms: O_23  and  C_24
REMARK                            x       y       z     vdW  Elec       q    Type
REMARK                         _______ _______ _______ _____ _____    ______ ____
ROOT
ATOM      1  C   UNL     1       1.892   7.905  20.417  0.00  0.00    +0.000 C 
ATOM      2  C   UNL     1       2.162   7.826  19.107  0.00  0.00    +0.000 C 
ENDROOT
BRANCH   2   3
ATOM      3  C   UNL     1       2.819   6.674  18.475  0.00  0.00    +0.000 A 
ATOM      4  C   UNL     1       3.915   6.951  17.647  0.00  0.00    +0.000 A 
ATOM      5  C   UNL     1       4.556   5.926  16.958  0.00  0.00    +0.000 A 
ATOM      6  C   UNL     1       4.126   4.601  17.079  0.00  0.00    +0.000 A 
ATOM      7  C   UNL     1       3.024   4.290  17.907  0.00  0.00    +0.000 A 
ATOM      8  C   UNL     1       2.378   5.334  18.627  0.00  0.00    +0.000 A 
BRANCH   6   9
ATOM      9  O   UNL     1       4.840   3.741  16.280  0.00  0.00    +0.000 OA
ATOM     10  C   UNL     1       5.775   4.310  15.370  0.00  0.00    +0.000 C 
ENDBRANCH   6   9
BRANCH   7  11
ATOM     11  O   UNL     1       2.659   2.967  17.903  0.00  0.00    +0.000 OA
ATOM     12  C   UNL     1       3.354   2.005  18.678  0.00  0.00    +0.000 C 
ENDBRANCH   7  11
BRANCH   8  13
ATOM     13  O   UNL     1       1.423   4.941  19.530  0.00  0.00    +0.000 OA
ATOM     14  C   UNL     1       1.786   4.475  20.821  0.00  0.00    +0.000 C 
ENDBRANCH   8  13
ENDBRANCH   2   3
BRANCH   1  15
ATOM     15  S   UNL     1       0.827   9.167  20.993  0.00  0.00    +0.000 S 
ATOM     16  O   UNL     1       1.402   9.672  22.224  0.00  0.00    +0.000 OA
ATOM     17  O   UNL     1      -0.527   8.638  20.969  0.00  0.00    +0.000 OA
BRANCH  15  18
ATOM     18  C   UNL     1       0.948  10.440  19.741  0.00  0.00    +0.000 C 
BRANCH  18  22
ATOM     19  C   UNL     1      -3.023  11.376  18.292  0.00  0.00    +0.000 A 
ATOM     20  C   UNL     1      -2.210  10.471  17.608  0.00  0.00    +0.000 A 
ATOM     21  C   UNL     1      -0.929  10.171  18.071  0.00  0.00    +0.000 A 
ATOM     22  C   UNL     1      -0.428  10.784  19.225  0.00  0.00    +0.000 A 
ATOM     23  C   UNL     1      -1.232  11.727  19.885  0.00  0.00    +0.000 A 
ATOM     24  C   UNL     1      -2.523  12.018  19.422  0.00  0.00    +0.000 A 
BRANCH  19  26
ATOM     25  C   UNL     1      -5.318  10.803  18.295  0.00  0.00    +0.000 C 
ATOM     26  O   UNL     1      -4.260  11.578  17.744  0.00  0.00    +0.000 OA
ENDBRANCH  19  26
ENDBRANCH  18  22
ENDBRANCH  15  18
ENDBRANCH   1  15
TORSDOF 8
ENDMDL
MODEL 9
REMARK VINA RESULT:      -6.5      2.522      7.690
REMARK  Name = 
REMARK  12 active torsions:
REMARK  status: ('A' for Active; 'I' for Inactive)
REMARK    1  A    between atoms: C_1  and  O_2
REMARK    2  A    between atoms: O_2  and  C_3
REMARK    3  A    between atoms: C_6  and  C_7
REMARK    4  A    between atoms: C_7  and  S_8
REMARK    5  A    between atoms: S_8  and  C_11
REMARK    6  A    between atoms: C_12  and  C_13
REMARK    7  A    between atoms: C_16  and  O_17
REMARK    8  A    between atoms: O_17  and  C_18
REMARK    9  A    between atoms: C_19  and  O_20
REMARK   10  A    between atoms: O_20  and  C_21
REMARK   11  A    between atoms: C_22  and  O_23
REMARK   12  A    between atoms: O_23  and  C_24
REMARK                            x       y       z     vdW  Elec       q    Type
REMARK                         _______ _______ _______ _____ _____    ______ ____
ROOT
ATOM      1  C   UNL     1       0.739   8.173  20.900  0.00  0.00    +0.000 C 
ATOM      2  C   UNL     1       1.581   7.160  21.147  0.00  0.00    +0.000 C 
ENDROOT
BRANCH   2   3
ATOM      3  C   UNL     1       1.844   6.066  20.204  0.00  0.00    +0.000 A 
ATOM      4  C   UNL     1       1.247   4.831  20.490  0.00  0.00    +0.000 A 
ATOM      5  C   UNL     1       1.494   3.723  19.685  0.00  0.00    +0.000 A 
ATOM      6  C   UNL     1       2.337   3.817  18.574  0.00  0.00    +0.000 A 
ATOM      7  C   UNL     1       2.952   5.048  18.257  0.00  0.00    +0.000 A 
ATOM      8  C   UNL     1       2.687   6.188  19.069  0.00  0.00    +0.000 A 
BRANCH   6   9
ATOM      9  O   UNL     1       2.507   2.610  17.940  0.00  0.00    +0.000 OA
ATOM     10  C   UNL     1       3.434   1.692  18.508  0.00  0.00    +0.000 C 
ENDBRANCH   6   9
BRANCH   7  11
ATOM     11  O   UNL     1       3.801   5.006  17.179  0.00  0.00    +0.000 OA
ATOM     12  C   UNL     1       5.197   4.831  17.343  0.00  0.00    +0.000 C 
ENDBRANCH   7  11
BRANCH   8  13
ATOM     13  O   UNL     1       3.189   7.381  18.613  0.00  0.00    +0.000 OA
ATOM     14  C   UNL     1       2.465   8.170  17.682  0.00  0.00    +0.000 C 
ENDBRANCH   8  13
ENDBRANCH   2   3
BRANCH   1  15
ATOM     15  S   UNL     1       0.756   9.572  21.950  0.00  0.00    +0.000 S 
ATOM     16  O   UNL     1       1.963   9.483  22.747  0.00  0.00    +0.000 OA
ATOM     17  O   UNL     1      -0.549   9.653  22.586  0.00  0.00    +0.000 OA
BRANCH  15  18
ATOM     18  C   UNL     1       0.914  10.955  20.825  0.00  0.00    +0.000 C 
BRANCH  18  22
ATOM     19  C   UNL     1      -2.605  11.303  18.329  0.00  0.00    +0.000 A 
ATOM     20  C   UNL     1      -2.510  12.010  19.527  0.00  0.00    +0.000 A 
ATOM     21  C   UNL     1      -1.378  11.897  20.335  0.00  0.00    +0.000 A 
ATOM     22  C   UNL     1      -0.321  11.058  19.964  0.00  0.00    +0.000 A 
ATOM     23  C   UNL     1      -0.441  10.314  18.780  0.00  0.00    +0.000 A 
ATOM     24  C   UNL     1      -1.576  10.439  17.966  0.00  0.00    +0.000 A 
BRANCH  19  26
ATOM     25  C   UNL     1      -4.878  11.956  18.376  0.00  0.00    +0.000 C 
ATOM     26  O   UNL     1      -3.759  11.506  17.622  0.00  0.00    +0.000 OA
ENDBRANCH  19  26
ENDBRANCH  18  22
ENDBRANCH  15  18
ENDBRANCH   1  15
TORSDOF 8
ENDMDL
