MODEL 1
REMARK VINA RESULT:      -7.4      0.000      0.000
REMARK  Name = 
REMARK  6 active torsions:
REMARK  status: ('A' for Active; 'I' for Inactive)
REMARK    1  A    between atoms: C_1  and  C_2
REMARK    2  A    between atoms: C_2  and  O_3
REMARK    3  A    between atoms: O_3  and  C_4
REMARK    4  A    between atoms: N_15  and  C_16
REMARK    5  A    between atoms: C_16  and  C_17
REMARK    6  A    between atoms: C_16  and  C_18
REMARK                            x       y       z     vdW  Elec       q    Type
REMARK                         _______ _______ _______ _____ _____    ______ ____
ROOT
ATOM      1  C   UNL     1       3.889   4.571  19.118  0.00  0.00    +0.000 A 
ATOM      2  C   UNL     1       2.982   4.089  18.171  0.00  0.00    +0.000 A 
ATOM      3  C   UNL     1       3.364   3.934  16.828  0.00  0.00    +0.000 A 
ATOM      4  C   UNL     1       4.658   4.254  16.402  0.00  0.00    +0.000 A 
ATOM      5  C   UNL     1       5.524   4.762  17.356  0.00  0.00    +0.000 A 
ATOM      6  C   UNL     1       5.169   4.917  18.702  0.00  0.00    +0.000 A 
ATOM      7  S   UNL     1       7.114   5.237  16.854  0.00  0.00    +0.000 S 
ATOM      8  O   UNL     1       7.141   6.675  16.735  0.00  0.00    +0.000 OA
ATOM      9  O   UNL     1       8.070   4.533  17.687  0.00  0.00    +0.000 OA
ATOM     10  N   UNL     1       7.264   4.579  15.345  0.00  0.00    +0.000 N 
ATOM     11  C   UNL     1       6.187   4.120  14.609  0.00  0.00    +0.000 C 
ATOM     12  N   UNL     1       6.577   3.789  13.354  0.00  0.00    +0.000 N 
ATOM     13  N   UNL     1       4.988   3.998  15.064  0.00  0.00    +0.000 NA
ATOM     14  H   UNL     1       8.139   4.082  15.236  0.00  0.00    +0.000 HD
ATOM     15  H   UNL     1       7.532   4.001  13.095  0.00  0.00    +0.000 HD
ENDROOT
BRANCH  12  16
ATOM     16  C   UNL     1       5.865   2.869  12.487  0.00  0.00    +0.000 C 
ATOM     17  C   UNL     1       4.739   3.618  11.780  0.00  0.00    +0.000 C 
ATOM     18  C   UNL     1       6.844   2.298  11.464  0.00  0.00    +0.000 C 
ENDBRANCH  12  16
BRANCH   1  19
ATOM     19  O   UNL     1       3.420   4.660  20.400  0.00  0.00    +0.000 OA
BRANCH  19  21
ATOM     20  C   UNL     1       2.179   2.995  21.606  0.00  0.00    +0.000 C 
ATOM     21  C   UNL     1       2.103   4.150  20.625  0.00  0.00    +0.000 C 
ENDBRANCH  19  21
ENDBRANCH   1  19
TORSDOF 3
ENDMDL
MODEL 2
REMARK VINA RESULT:      -7.2      2.628      3.527
REMARK  Name = 
REMARK  6 active torsions:
REMARK  status: ('A' for Active; 'I' for Inactive)
REMARK    1  A    between atoms: C_1  and  C_2
REMARK    2  A    between atoms: C_2  and  O_3
REMARK    3  A    between atoms: O_3  and  C_4
REMARK    4  A    between atoms: N_15  and  C_16
REMARK    5  A    between atoms: C_16  and  C_17
REMARK    6  A    between atoms: C_16  and  C_18
REMARK                            x       y       z     vdW  Elec       q    Type
REMARK                         _______ _______ _______ _____ _____    ______ ____
ROOT
ATOM      1  C   UNL     1       2.259   6.548  19.811  0.00  0.00    +0.000 A 
ATOM      2  C   UNL     1       2.715   7.444  18.842  0.00  0.00    +0.000 A 
ATOM      3  C   UNL     1       3.583   7.016  17.823  0.00  0.00    +0.000 A 
ATOM      4  C   UNL     1       4.011   5.686  17.749  0.00  0.00    +0.000 A 
ATOM      5  C   UNL     1       3.570   4.829  18.745  0.00  0.00    +0.000 A 
ATOM      6  C   UNL     1       2.698   5.231  19.764  0.00  0.00    +0.000 A 
ATOM      7  S   UNL     1       4.135   3.190  18.729  0.00  0.00    +0.000 S 
ATOM      8  O   UNL     1       5.175   3.060  19.722  0.00  0.00    +0.000 OA
ATOM      9  O   UNL     1       2.974   2.322  18.738  0.00  0.00    +0.000 OA
ATOM     10  N   UNL     1       4.812   3.020  17.231  0.00  0.00    +0.000 N 
ATOM     11  C   UNL     1       5.139   4.093  16.421  0.00  0.00    +0.000 C 
ATOM     12  N   UNL     1       5.824   3.672  15.330  0.00  0.00    +0.000 N 
ATOM     13  N   UNL     1       4.812   5.316  16.660  0.00  0.00    +0.000 NA
ATOM     14  H   UNL     1       4.495   2.178  16.768  0.00  0.00    +0.000 HD
ATOM     15  H   UNL     1       6.084   2.696  15.295  0.00  0.00    +0.000 HD
ENDROOT
BRANCH  12  16
ATOM     16  C   UNL     1       5.916   4.408  14.083  0.00  0.00    +0.000 C 
ATOM     17  C   UNL     1       7.279   5.088  14.002  0.00  0.00    +0.000 C 
ATOM     18  C   UNL     1       5.742   3.431  12.922  0.00  0.00    +0.000 C 
ENDBRANCH  12  16
BRANCH   1  19
ATOM     19  O   UNL     1       1.399   7.065  20.742  0.00  0.00    +0.000 OA
BRANCH  19  21
ATOM     20  C   UNL     1       1.154   8.998  22.146  0.00  0.00    +0.000 C 
ATOM     21  C   UNL     1       1.228   8.485  20.720  0.00  0.00    +0.000 C 
ENDBRANCH  19  21
ENDBRANCH   1  19
TORSDOF 3
ENDMDL
MODEL 3
REMARK VINA RESULT:      -7.0      2.615      3.172
REMARK  Name = 
REMARK  6 active torsions:
REMARK  status: ('A' for Active; 'I' for Inactive)
REMARK    1  A    between atoms: C_1  and  C_2
REMARK    2  A    between atoms: C_2  and  O_3
REMARK    3  A    between atoms: O_3  and  C_4
REMARK    4  A    between atoms: N_15  and  C_16
REMARK    5  A    between atoms: C_16  and  C_17
REMARK    6  A    between atoms: C_16  and  C_18
REMARK                            x       y       z     vdW  Elec       q    Type
REMARK                         _______ _______ _______ _____ _____    ______ ____
ROOT
ATOM      1  C   UNL     1       2.542   6.724  19.493  0.00  0.00    +0.000 A 
ATOM      2  C   UNL     1       2.484   7.392  18.267  0.00  0.00    +0.000 A 
ATOM      3  C   UNL     1       3.446   7.146  17.272  0.00  0.00    +0.000 A 
ATOM      4  C   UNL     1       4.482   6.228  17.478  0.00  0.00    +0.000 A 
ATOM      5  C   UNL     1       4.532   5.608  18.716  0.00  0.00    +0.000 A 
ATOM      6  C   UNL     1       3.581   5.830  19.719  0.00  0.00    +0.000 A 
ATOM      7  S   UNL     1       5.842   4.517  19.035  0.00  0.00    +0.000 S 
ATOM      8  O   UNL     1       6.812   5.201  19.857  0.00  0.00    +0.000 OA
ATOM      9  O   UNL     1       5.271   3.249  19.445  0.00  0.00    +0.000 OA
ATOM     10  N   UNL     1       6.506   4.250  17.546  0.00  0.00    +0.000 N 
ATOM     11  C   UNL     1       6.249   5.051  16.447  0.00  0.00    +0.000 C 
ATOM     12  N   UNL     1       7.048   4.702  15.409  0.00  0.00    +0.000 N 
ATOM     13  N   UNL     1       5.355   5.978  16.411  0.00  0.00    +0.000 NA
ATOM     14  H   UNL     1       6.651   3.264  17.369  0.00  0.00    +0.000 HD
ATOM     15  H   UNL     1       7.761   4.008  15.587  0.00  0.00    +0.000 HD
ENDROOT
BRANCH  12  16
ATOM     16  C   UNL     1       6.754   4.981  14.016  0.00  0.00    +0.000 C 
ATOM     17  C   UNL     1       8.049   5.335  13.292  0.00  0.00    +0.000 C 
ATOM     18  C   UNL     1       6.121   3.740  13.390  0.00  0.00    +0.000 C 
ENDBRANCH  12  16
BRANCH   1  19
ATOM     19  O   UNL     1       1.543   7.020  20.380  0.00  0.00    +0.000 OA
BRANCH  19  21
ATOM     20  C   UNL     1       0.266   9.015  20.776  0.00  0.00    +0.000 C 
ATOM     21  C   UNL     1       1.598   8.318  20.978  0.00  0.00    +0.000 C 
ENDBRANCH  19  21
ENDBRANCH   1  19
TORSDOF 3
ENDMDL
MODEL 4
REMARK VINA RESULT:      -7.0      0.761      1.005
REMARK  Name = 
REMARK  6 active torsions:
REMARK  status: ('A' for Active; 'I' for Inactive)
REMARK    1  A    between atoms: C_1  and  C_2
REMARK    2  A    between atoms: C_2  and  O_3
REMARK    3  A    between atoms: O_3  and  C_4
REMARK    4  A    between atoms: N_15  and  C_16
REMARK    5  A    between atoms: C_16  and  C_17
REMARK    6  A    between atoms: C_16  and  C_18
REMARK                            x       y       z     vdW  Elec       q    Type
REMARK                         _______ _______ _______ _____ _____    ______ ____
ROOT
ATOM      1  C   UNL     1       3.828   4.609  19.204  0.00  0.00    +0.000 A 
ATOM      2  C   UNL     1       3.059   3.896  18.282  0.00  0.00    +0.000 A 
ATOM      3  C   UNL     1       3.468   3.786  16.943  0.00  0.00    +0.000 A 
ATOM      4  C   UNL     1       4.653   4.382  16.496  0.00  0.00    +0.000 A 
ATOM      5  C   UNL     1       5.375   5.112  17.426  0.00  0.00    +0.000 A 
ATOM      6  C   UNL     1       4.993   5.228  18.768  0.00  0.00    +0.000 A 
ATOM      7  S   UNL     1       6.812   5.925  16.895  0.00  0.00    +0.000 S 
ATOM      8  O   UNL     1       6.504   7.325  16.726  0.00  0.00    +0.000 OA
ATOM      9  O   UNL     1       7.904   5.493  17.746  0.00  0.00    +0.000 OA
ATOM     10  N   UNL     1       7.113   5.267  15.410  0.00  0.00    +0.000 N 
ATOM     11  C   UNL     1       6.173   4.543  14.698  0.00  0.00    +0.000 C 
ATOM     12  N   UNL     1       6.631   4.267  13.452  0.00  0.00    +0.000 N 
ATOM     13  N   UNL     1       5.035   4.162  15.166  0.00  0.00    +0.000 NA
ATOM     14  H   UNL     1       8.079   4.982  15.312  0.00  0.00    +0.000 HD
ATOM     15  H   UNL     1       7.510   4.685  13.179  0.00  0.00    +0.000 HD
ENDROOT
BRANCH  12  16
ATOM     16  C   UNL     1       6.153   3.176  12.624  0.00  0.00    +0.000 C 
ATOM     17  C   UNL     1       4.870   3.608  11.920  0.00  0.00    +0.000 C 
ATOM     18  C   UNL     1       7.228   2.831  11.596  0.00  0.00    +0.000 C 
ENDBRANCH  12  16
BRANCH   1  19
ATOM     19  O   UNL     1       3.350   4.633  20.486  0.00  0.00    +0.000 OA
BRANCH  19  21
ATOM     20  C   UNL     1       1.887   6.538  20.452  0.00  0.00    +0.000 C 
ATOM     21  C   UNL     1       1.986   5.036  20.642  0.00  0.00    +0.000 C 
ENDBRANCH  19  21
ENDBRANCH   1  19
TORSDOF 3
ENDMDL
MODEL 5
REMARK VINA RESULT:      -6.8      3.884      7.295
REMARK  Name = 
REMARK  6 active torsions:
REMARK  status: ('A' for Active; 'I' for Inactive)
REMARK    1  A    between atoms: C_1  and  C_2
REMARK    2  A    between atoms: C_2  and  O_3
REMARK    3  A    between atoms: O_3  and  C_4
REMARK    4  A    between atoms: N_15  and  C_16
REMARK    5  A    between atoms: C_16  and  C_17
REMARK    6  A    between atoms: C_16  and  C_18
REMARK                            x       y       z     vdW  Elec       q    Type
REMARK                         _______ _______ _______ _____ _____    ______ ____
ROOT
ATOM      1  C   UNL     1       4.983   4.347  16.680  0.00  0.00    +0.000 A 
ATOM      2  C   UNL     1       4.935   5.727  16.469  0.00  0.00    +0.000 A 
ATOM      3  C   UNL     1       4.108   6.543  17.258  0.00  0.00    +0.000 A 
ATOM      4  C   UNL     1       3.314   6.002  18.275  0.00  0.00    +0.000 A 
ATOM      5  C   UNL     1       3.357   4.626  18.437  0.00  0.00    +0.000 A 
ATOM      6  C   UNL     1       4.180   3.793  17.669  0.00  0.00    +0.000 A 
ATOM      7  S   UNL     1       2.334   3.908  19.640  0.00  0.00    +0.000 S 
ATOM      8  O   UNL     1       1.192   3.328  18.975  0.00  0.00    +0.000 OA
ATOM      9  O   UNL     1       3.173   3.118  20.519  0.00  0.00    +0.000 OA
ATOM     10  N   UNL     1       1.823   5.194  20.542  0.00  0.00    +0.000 N 
ATOM     11  C   UNL     1       1.930   6.507  20.119  0.00  0.00    +0.000 C 
ATOM     12  N   UNL     1       1.287   7.336  20.977  0.00  0.00    +0.000 N 
ATOM     13  N   UNL     1       2.576   6.888  19.072  0.00  0.00    +0.000 NA
ATOM     14  H   UNL     1       1.927   5.024  21.534  0.00  0.00    +0.000 HD
ATOM     15  H   UNL     1       0.754   6.908  21.722  0.00  0.00    +0.000 HD
ENDROOT
BRANCH  12  16
ATOM     16  C   UNL     1       1.569   8.752  21.120  0.00  0.00    +0.000 C 
ATOM     17  C   UNL     1       0.770   9.529  20.079  0.00  0.00    +0.000 C 
ATOM     18  C   UNL     1       1.174   9.193  22.527  0.00  0.00    +0.000 C 
ENDBRANCH  12  16
BRANCH   1  19
ATOM     19  O   UNL     1       5.840   3.651  15.872  0.00  0.00    +0.000 OA
BRANCH  19  21
ATOM     20  C   UNL     1       6.119   3.806  13.491  0.00  0.00    +0.000 C 
ATOM     21  C   UNL     1       6.481   4.404  14.838  0.00  0.00    +0.000 C 
ENDBRANCH  19  21
ENDBRANCH   1  19
TORSDOF 3
ENDMDL
MODEL 6
REMARK VINA RESULT:      -6.7      1.123      1.256
REMARK  Name = 
REMARK  6 active torsions:
REMARK  status: ('A' for Active; 'I' for Inactive)
REMARK    1  A    between atoms: C_1  and  C_2
REMARK    2  A    between atoms: C_2  and  O_3
REMARK    3  A    between atoms: O_3  and  C_4
REMARK    4  A    between atoms: N_15  and  C_16
REMARK    5  A    between atoms: C_16  and  C_17
REMARK    6  A    between atoms: C_16  and  C_18
REMARK                            x       y       z     vdW  Elec       q    Type
REMARK                         _______ _______ _______ _____ _____    ______ ____
ROOT
ATOM      1  C   UNL     1       3.683   4.510  19.436  0.00  0.00    +0.000 A 
ATOM      2  C   UNL     1       2.894   4.410  18.288  0.00  0.00    +0.000 A 
ATOM      3  C   UNL     1       3.457   4.600  17.015  0.00  0.00    +0.000 A 
ATOM      4  C   UNL     1       4.818   4.891  16.861  0.00  0.00    +0.000 A 
ATOM      5  C   UNL     1       5.565   5.019  18.020  0.00  0.00    +0.000 A 
ATOM      6  C   UNL     1       5.029   4.825  19.299  0.00  0.00    +0.000 A 
ATOM      7  S   UNL     1       7.239   5.449  17.875  0.00  0.00    +0.000 S 
ATOM      8  O   UNL     1       7.375   6.852  18.187  0.00  0.00    +0.000 OA
ATOM      9  O   UNL     1       8.016   4.445  18.575  0.00  0.00    +0.000 OA
ATOM     10  N   UNL     1       7.565   5.231  16.270  0.00  0.00    +0.000 N 
ATOM     11  C   UNL     1       6.580   5.110  15.306  0.00  0.00    +0.000 C 
ATOM     12  N   UNL     1       7.127   5.107  14.066  0.00  0.00    +0.000 N 
ATOM     13  N   UNL     1       5.323   4.989  15.557  0.00  0.00    +0.000 NA
ATOM     14  H   UNL     1       8.413   4.696  16.127  0.00  0.00    +0.000 HD
ATOM     15  H   UNL     1       8.121   5.284  13.999  0.00  0.00    +0.000 HD
ENDROOT
BRANCH  12  16
ATOM     16  C   UNL     1       6.492   4.547  12.889  0.00  0.00    +0.000 C 
ATOM     17  C   UNL     1       7.413   4.733  11.687  0.00  0.00    +0.000 C 
ATOM     18  C   UNL     1       6.231   3.062  13.130  0.00  0.00    +0.000 C 
ENDBRANCH  12  16
BRANCH   1  19
ATOM     19  O   UNL     1       3.038   4.282  20.622  0.00  0.00    +0.000 OA
BRANCH  19  21
ATOM     20  C   UNL     1       1.490   2.727  21.596  0.00  0.00    +0.000 C 
ATOM     21  C   UNL     1       1.702   3.780  20.526  0.00  0.00    +0.000 C 
ENDBRANCH  19  21
ENDBRANCH   1  19
TORSDOF 3
ENDMDL
MODEL 7
REMARK VINA RESULT:      -6.6      2.243      6.361
REMARK  Name = 
REMARK  6 active torsions:
REMARK  status: ('A' for Active; 'I' for Inactive)
REMARK    1  A    between atoms: C_1  and  C_2
REMARK    2  A    between atoms: C_2  and  O_3
REMARK    3  A    between atoms: O_3  and  C_4
REMARK    4  A    between atoms: N_15  and  C_16
REMARK    5  A    between atoms: C_16  and  C_17
REMARK    6  A    between atoms: C_16  and  C_18
REMARK                            x       y       z     vdW  Elec       q    Type
REMARK                         _______ _______ _______ _____ _____    ______ ____
ROOT
ATOM      1  C   UNL     1       6.634   4.422  14.089  0.00  0.00    +0.000 A 
ATOM      2  C   UNL     1       5.296   4.026  14.146  0.00  0.00    +0.000 A 
ATOM      3  C   UNL     1       4.574   4.115  15.348  0.00  0.00    +0.000 A 
ATOM      4  C   UNL     1       5.170   4.603  16.516  0.00  0.00    +0.000 A 
ATOM      5  C   UNL     1       6.508   4.954  16.437  0.00  0.00    +0.000 A 
ATOM      6  C   UNL     1       7.246   4.883  15.248  0.00  0.00    +0.000 A 
ATOM      7  S   UNL     1       7.302   5.495  17.880  0.00  0.00    +0.000 S 
ATOM      8  O   UNL     1       8.099   4.406  18.394  0.00  0.00    +0.000 OA
ATOM      9  O   UNL     1       7.891   6.790  17.601  0.00  0.00    +0.000 OA
ATOM     10  N   UNL     1       6.060   5.783  18.930  0.00  0.00    +0.000 N 
ATOM     11  C   UNL     1       4.776   5.306  18.735  0.00  0.00    +0.000 C 
ATOM     12  N   UNL     1       4.008   5.550  19.824  0.00  0.00    +0.000 N 
ATOM     13  N   UNL     1       4.364   4.736  17.655  0.00  0.00    +0.000 NA
ATOM     14  H   UNL     1       6.149   6.685  19.381  0.00  0.00    +0.000 HD
ATOM     15  H   UNL     1       4.468   5.938  20.637  0.00  0.00    +0.000 HD
ENDROOT
BRANCH  12  16
ATOM     16  C   UNL     1       2.559   5.622  19.809  0.00  0.00    +0.000 C 
ATOM     17  C   UNL     1       2.002   4.715  20.902  0.00  0.00    +0.000 C 
ATOM     18  C   UNL     1       2.136   7.068  20.056  0.00  0.00    +0.000 C 
ENDBRANCH  12  16
BRANCH   1  19
ATOM     19  O   UNL     1       7.235   4.316  12.864  0.00  0.00    +0.000 OA
BRANCH  19  21
ATOM     20  C   UNL     1       7.321   2.415  11.399  0.00  0.00    +0.000 C 
ATOM     21  C   UNL     1       6.502   3.604  11.864  0.00  0.00    +0.000 C 
ENDBRANCH  19  21
ENDBRANCH   1  19
TORSDOF 3
ENDMDL
MODEL 8
REMARK VINA RESULT:      -6.5      4.146      7.392
REMARK  Name = 
REMARK  6 active torsions:
REMARK  status: ('A' for Active; 'I' for Inactive)
REMARK    1  A    between atoms: C_1  and  C_2
REMARK    2  A    between atoms: C_2  and  O_3
REMARK    3  A    between atoms: O_3  and  C_4
REMARK    4  A    between atoms: N_15  and  C_16
REMARK    5  A    between atoms: C_16  and  C_17
REMARK    6  A    between atoms: C_16  and  C_18
REMARK                            x       y       z     vdW  Elec       q    Type
REMARK                         _______ _______ _______ _____ _____    ______ ____
ROOT
ATOM      1  C   UNL     1       4.843   4.839  16.896  0.00  0.00    +0.000 A 
ATOM      2  C   UNL     1       4.756   6.223  16.729  0.00  0.00    +0.000 A 
ATOM      3  C   UNL     1       3.887   6.987  17.527  0.00  0.00    +0.000 A 
ATOM      4  C   UNL     1       3.090   6.387  18.509  0.00  0.00    +0.000 A 
ATOM      5  C   UNL     1       3.173   5.009  18.626  0.00  0.00    +0.000 A 
ATOM      6  C   UNL     1       4.037   4.228  17.849  0.00  0.00    +0.000 A 
ATOM      7  S   UNL     1       2.149   4.220  19.782  0.00  0.00    +0.000 S 
ATOM      8  O   UNL     1       1.039   3.628  19.074  0.00  0.00    +0.000 OA
ATOM      9  O   UNL     1       2.994   3.427  20.653  0.00  0.00    +0.000 OA
ATOM     10  N   UNL     1       1.579   5.459  20.715  0.00  0.00    +0.000 N 
ATOM     11  C   UNL     1       1.654   6.788  20.338  0.00  0.00    +0.000 C 
ATOM     12  N   UNL     1       0.968   7.568  21.209  0.00  0.00    +0.000 N 
ATOM     13  N   UNL     1       2.309   7.223  19.318  0.00  0.00    +0.000 NA
ATOM     14  H   UNL     1       1.668   5.258  21.703  0.00  0.00    +0.000 HD
ATOM     15  H   UNL     1       0.434   7.098  21.928  0.00  0.00    +0.000 HD
ENDROOT
BRANCH  12  16
ATOM     16  C   UNL     1       1.203   8.986  21.404  0.00  0.00    +0.000 C 
ATOM     17  C   UNL     1       0.419   9.772  20.358  0.00  0.00    +0.000 C 
ATOM     18  C   UNL     1       0.743   9.372  22.809  0.00  0.00    +0.000 C 
ENDBRANCH  12  16
BRANCH   1  19
ATOM     19  O   UNL     1       5.737   4.197  16.084  0.00  0.00    +0.000 OA
BRANCH  19  21
ATOM     20  C   UNL     1       7.657   4.511  17.492  0.00  0.00    +0.000 C 
ATOM     21  C   UNL     1       7.077   4.698  16.103  0.00  0.00    +0.000 C 
ENDBRANCH  19  21
ENDBRANCH   1  19
TORSDOF 3
ENDMDL
MODEL 9
REMARK VINA RESULT:      -6.4      3.375      6.817
REMARK  Name = 
REMARK  6 active torsions:
REMARK  status: ('A' for Active; 'I' for Inactive)
REMARK    1  A    between atoms: C_1  and  C_2
REMARK    2  A    between atoms: C_2  and  O_3
REMARK    3  A    between atoms: O_3  and  C_4
REMARK    4  A    between atoms: N_15  and  C_16
REMARK    5  A    between atoms: C_16  and  C_17
REMARK    6  A    between atoms: C_16  and  C_18
REMARK                            x       y       z     vdW  Elec       q    Type
REMARK                         _______ _______ _______ _____ _____    ______ ____
ROOT
ATOM      1  C   UNL     1       6.290   4.973  16.047  0.00  0.00    +0.000 A 
ATOM      2  C   UNL     1       5.855   6.288  15.865  0.00  0.00    +0.000 A 
ATOM      3  C   UNL     1       4.834   6.821  16.669  0.00  0.00    +0.000 A 
ATOM      4  C   UNL     1       4.228   6.057  17.672  0.00  0.00    +0.000 A 
ATOM      5  C   UNL     1       4.656   4.746  17.805  0.00  0.00    +0.000 A 
ATOM      6  C   UNL     1       5.678   4.195  17.021  0.00  0.00    +0.000 A 
ATOM      7  S   UNL     1       3.881   3.744  18.989  0.00  0.00    +0.000 S 
ATOM      8  O   UNL     1       2.946   2.879  18.308  0.00  0.00    +0.000 OA
ATOM      9  O   UNL     1       4.911   3.203  19.854  0.00  0.00    +0.000 OA
ATOM     10  N   UNL     1       3.031   4.814  19.917  0.00  0.00    +0.000 N 
ATOM     11  C   UNL     1       2.764   6.113  19.522  0.00  0.00    +0.000 C 
ATOM     12  N   UNL     1       1.916   6.709  20.396  0.00  0.00    +0.000 N 
ATOM     13  N   UNL     1       3.273   6.682  18.485  0.00  0.00    +0.000 NA
ATOM     14  H   UNL     1       3.182   4.659  20.905  0.00  0.00    +0.000 HD
ATOM     15  H   UNL     1       1.527   6.132  21.130  0.00  0.00    +0.000 HD
ENDROOT
BRANCH  12  16
ATOM     16  C   UNL     1       1.789   8.143  20.570  0.00  0.00    +0.000 C 
ATOM     17  C   UNL     1       1.389   8.775  19.240  0.00  0.00    +0.000 C 
ATOM     18  C   UNL     1       0.722   8.419  21.627  0.00  0.00    +0.000 C 
ENDBRANCH  12  16
BRANCH   1  19
ATOM     19  O   UNL     1       7.305   4.563  15.226  0.00  0.00    +0.000 OA
BRANCH  19  21
ATOM     20  C   UNL     1       6.154   3.721  13.294  0.00  0.00    +0.000 C 
ATOM     21  C   UNL     1       7.106   4.775  13.825  0.00  0.00    +0.000 C 
ENDBRANCH  19  21
ENDBRANCH   1  19
TORSDOF 3
ENDMDL
