MODEL 1
REMARK VINA RESULT:      -6.8      0.000      0.000
REMARK  Name = 
REMARK  9 active torsions:
REMARK  status: ('A' for Active; 'I' for Inactive)
REMARK    1  A    between atoms: C_1  and  N_2
REMARK    2  A    between atoms: N_2  and  C_3
REMARK    3  A    between atoms: C_3  and  C_4
REMARK    4  A    between atoms: C_4  and  N_5
REMARK    5  A    between atoms: N_5  and  C_6
REMARK    6  A    between atoms: N_11  and  C_12
REMARK    7  A    between atoms: C_12  and  C_13
REMARK    8  A    between atoms: C_18  and  O_19
REMARK    9  A    between atoms: O_19  and  C_20
REMARK                            x       y       z     vdW  Elec       q    Type
REMARK                         _______ _______ _______ _____ _____    ______ ____
ROOT
ATOM      1  N   UNL     1       6.605   6.175  16.629  0.00  0.00    +0.000 N 
ATOM      2  C   UNL     1       7.509   7.323  16.708  0.00  0.00    +0.000 C 
ATOM      3  C   UNL     1       6.405   5.449  17.859  0.00  0.00    +0.000 A 
ATOM      4  N   UNL     1       7.017   5.817  19.006  0.00  0.00    +0.000 NA
ATOM      5  N   UNL     1       6.637   4.944  19.922  0.00  0.00    +0.000 NA
ATOM      6  N   UNL     1       5.816   4.060  19.378  0.00  0.00    +0.000 NA
ATOM      7  N   UNL     1       5.633   4.343  18.098  0.00  0.00    +0.000 N 
ENDROOT
BRANCH   1   8
ATOM      8  C   UNL     1       5.945   5.758  15.386  0.00  0.00    +0.000 C 
BRANCH   8   9
ATOM      9  C   UNL     1       6.740   4.796  14.465  0.00  0.00    +0.000 C 
BRANCH   9  11
ATOM     10  C   UNL     1       6.452   3.560  12.359  0.00  0.00    +0.000 C 
ATOM     11  N   UNL     1       5.889   3.890  13.670  0.00  0.00    +0.000 NA
ATOM     12  H   UNL     1       5.790   2.997  14.209  0.00  0.00    +0.000 HD
ENDBRANCH   9  11
ENDBRANCH   8   9
ENDBRANCH   1   8
BRANCH   7  13
ATOM     13  C   UNL     1       4.731   3.517  17.272  0.00  0.00    +0.000 C 
BRANCH  13  14
ATOM     14  C   UNL     1       3.374   3.262  17.918  0.00  0.00    +0.000 A 
ATOM     15  C   UNL     1       3.015   1.963  18.338  0.00  0.00    +0.000 A 
ATOM     16  C   UNL     1       1.779   1.719  18.931  0.00  0.00    +0.000 A 
ATOM     17  C   UNL     1       0.883   2.761  19.133  0.00  0.00    +0.000 A 
ATOM     18  C   UNL     1       1.201   4.049  18.713  0.00  0.00    +0.000 A 
ATOM     19  C   UNL     1       2.432   4.322  18.075  0.00  0.00    +0.000 A 
BRANCH  19  20
ATOM     20  O   UNL     1       2.745   5.565  17.614  0.00  0.00    +0.000 OA
BRANCH  20  21
ATOM     21  C   UNL     1       3.007   6.737  18.332  0.00  0.00    +0.000 C 
ATOM     22  F   UNL     1       3.949   7.554  17.731  0.00  0.00    +0.000 F 
ATOM     23  F   UNL     1       1.835   7.448  18.504  0.00  0.00    +0.000 F 
ATOM     24  F   UNL     1       3.505   6.398  19.575  0.00  0.00    +0.000 F 
ENDBRANCH  20  21
ENDBRANCH  19  20
ENDBRANCH  13  14
ENDBRANCH   7  13
TORSDOF 7
ENDMDL
MODEL 2
REMARK VINA RESULT:      -6.7      1.329      1.352
REMARK  Name = 
REMARK  9 active torsions:
REMARK  status: ('A' for Active; 'I' for Inactive)
REMARK    1  A    between atoms: C_1  and  N_2
REMARK    2  A    between atoms: N_2  and  C_3
REMARK    3  A    between atoms: C_3  and  C_4
REMARK    4  A    between atoms: C_4  and  N_5
REMARK    5  A    between atoms: N_5  and  C_6
REMARK    6  A    between atoms: N_11  and  C_12
REMARK    7  A    between atoms: C_12  and  C_13
REMARK    8  A    between atoms: C_18  and  O_19
REMARK    9  A    between atoms: O_19  and  C_20
REMARK                            x       y       z     vdW  Elec       q    Type
REMARK                         _______ _______ _______ _____ _____    ______ ____
ROOT
ATOM      1  N   UNL     1       6.464   4.842  16.349  0.00  0.00    +0.000 N 
ATOM      2  C   UNL     1       7.440   5.739  15.726  0.00  0.00    +0.000 C 
ATOM      3  C   UNL     1       6.425   4.863  17.790  0.00  0.00    +0.000 A 
ATOM      4  N   UNL     1       7.239   5.667  18.509  0.00  0.00    +0.000 NA
ATOM      5  N   UNL     1       6.961   5.430  19.780  0.00  0.00    +0.000 NA
ATOM      6  N   UNL     1       6.008   4.515  19.861  0.00  0.00    +0.000 NA
ATOM      7  N   UNL     1       5.635   4.143  18.647  0.00  0.00    +0.000 N 
ENDROOT
BRANCH   1   8
ATOM      8  C   UNL     1       5.585   3.955  15.578  0.00  0.00    +0.000 C 
BRANCH   8   9
ATOM      9  C   UNL     1       5.515   4.200  14.049  0.00  0.00    +0.000 C 
BRANCH   9  11
ATOM     10  C   UNL     1       6.941   3.840  12.078  0.00  0.00    +0.000 C 
ATOM     11  N   UNL     1       6.305   3.241  13.253  0.00  0.00    +0.000 NA
ATOM     12  H   UNL     1       7.064   2.868  13.871  0.00  0.00    +0.000 HD
ENDBRANCH   9  11
ENDBRANCH   8   9
ENDBRANCH   1   8
BRANCH   7  13
ATOM     13  C   UNL     1       4.560   3.148  18.468  0.00  0.00    +0.000 C 
BRANCH  13  14
ATOM     14  C   UNL     1       3.397   3.324  19.438  0.00  0.00    +0.000 A 
ATOM     15  C   UNL     1       3.253   2.461  20.546  0.00  0.00    +0.000 A 
ATOM     16  C   UNL     1       2.196   2.615  21.439  0.00  0.00    +0.000 A 
ATOM     17  C   UNL     1       1.272   3.636  21.260  0.00  0.00    +0.000 A 
ATOM     18  C   UNL     1       1.378   4.491  20.168  0.00  0.00    +0.000 A 
ATOM     19  C   UNL     1       2.417   4.339  19.223  0.00  0.00    +0.000 A 
BRANCH  19  20
ATOM     20  O   UNL     1       2.513   5.135  18.122  0.00  0.00    +0.000 OA
BRANCH  20  21
ATOM     21  C   UNL     1       2.950   6.461  18.021  0.00  0.00    +0.000 C 
ATOM     22  F   UNL     1       3.846   6.670  16.988  0.00  0.00    +0.000 F 
ATOM     23  F   UNL     1       1.863   7.296  17.854  0.00  0.00    +0.000 F 
ATOM     24  F   UNL     1       3.599   6.808  19.191  0.00  0.00    +0.000 F 
ENDBRANCH  20  21
ENDBRANCH  19  20
ENDBRANCH  13  14
ENDBRANCH   7  13
TORSDOF 7
ENDMDL
MODEL 3
REMARK VINA RESULT:      -6.5      0.745      1.130
REMARK  Name = 
REMARK  9 active torsions:
REMARK  status: ('A' for Active; 'I' for Inactive)
REMARK    1  A    between atoms: C_1  and  N_2
REMARK    2  A    between atoms: N_2  and  C_3
REMARK    3  A    between atoms: C_3  and  C_4
REMARK    4  A    between atoms: C_4  and  N_5
REMARK    5  A    between atoms: N_5  and  C_6
REMARK    6  A    between atoms: N_11  and  C_12
REMARK    7  A    between atoms: C_12  and  C_13
REMARK    8  A    between atoms: C_18  and  O_19
REMARK    9  A    between atoms: O_19  and  C_20
REMARK                            x       y       z     vdW  Elec       q    Type
REMARK                         _______ _______ _______ _____ _____    ______ ____
ROOT
ATOM      1  N   UNL     1       6.541   6.366  16.733  0.00  0.00    +0.000 N 
ATOM      2  C   UNL     1       7.447   7.512  16.831  0.00  0.00    +0.000 C 
ATOM      3  C   UNL     1       6.389   5.583  17.934  0.00  0.00    +0.000 A 
ATOM      4  N   UNL     1       7.044   5.898  19.073  0.00  0.00    +0.000 NA
ATOM      5  N   UNL     1       6.700   4.981  19.961  0.00  0.00    +0.000 NA
ATOM      6  N   UNL     1       5.861   4.122  19.407  0.00  0.00    +0.000 NA
ATOM      7  N   UNL     1       5.628   4.465  18.150  0.00  0.00    +0.000 N 
ENDROOT
BRANCH   1   8
ATOM      8  C   UNL     1       5.835   6.006  15.498  0.00  0.00    +0.000 C 
BRANCH   8   9
ATOM      9  C   UNL     1       6.539   4.988  14.564  0.00  0.00    +0.000 C 
BRANCH   9  11
ATOM     10  C   UNL     1       7.884   5.282  12.527  0.00  0.00    +0.000 C 
ATOM     11  N   UNL     1       7.796   5.488  13.974  0.00  0.00    +0.000 NA
ATOM     12  H   UNL     1       7.840   6.519  14.152  0.00  0.00    +0.000 HD
ENDBRANCH   9  11
ENDBRANCH   8   9
ENDBRANCH   1   8
BRANCH   7  13
ATOM     13  C   UNL     1       4.696   3.676  17.321  0.00  0.00    +0.000 C 
BRANCH  13  14
ATOM     14  C   UNL     1       3.354   3.414  17.993  0.00  0.00    +0.000 A 
ATOM     15  C   UNL     1       3.032   2.125  18.471  0.00  0.00    +0.000 A 
ATOM     16  C   UNL     1       1.810   1.874  19.089  0.00  0.00    +0.000 A 
ATOM     17  C   UNL     1       0.890   2.900  19.258  0.00  0.00    +0.000 A 
ATOM     18  C   UNL     1       1.170   4.177  18.782  0.00  0.00    +0.000 A 
ATOM     19  C   UNL     1       2.386   4.455  18.118  0.00  0.00    +0.000 A 
BRANCH  19  20
ATOM     20  O   UNL     1       2.662   5.685  17.602  0.00  0.00    +0.000 OA
BRANCH  20  21
ATOM     21  C   UNL     1       2.804   6.912  18.261  0.00  0.00    +0.000 C 
ATOM     22  F   UNL     1       2.948   6.789  19.632  0.00  0.00    +0.000 F 
ATOM     23  F   UNL     1       3.894   7.590  17.750  0.00  0.00    +0.000 F 
ATOM     24  F   UNL     1       1.670   7.670  18.044  0.00  0.00    +0.000 F 
ENDBRANCH  20  21
ENDBRANCH  19  20
ENDBRANCH  13  14
ENDBRANCH   7  13
TORSDOF 7
ENDMDL
MODEL 4
REMARK VINA RESULT:      -6.5      2.618      3.660
REMARK  Name = 
REMARK  9 active torsions:
REMARK  status: ('A' for Active; 'I' for Inactive)
REMARK    1  A    between atoms: C_1  and  N_2
REMARK    2  A    between atoms: N_2  and  C_3
REMARK    3  A    between atoms: C_3  and  C_4
REMARK    4  A    between atoms: C_4  and  N_5
REMARK    5  A    between atoms: N_5  and  C_6
REMARK    6  A    between atoms: N_11  and  C_12
REMARK    7  A    between atoms: C_12  and  C_13
REMARK    8  A    between atoms: C_18  and  O_19
REMARK    9  A    between atoms: O_19  and  C_20
REMARK                            x       y       z     vdW  Elec       q    Type
REMARK                         _______ _______ _______ _____ _____    ______ ____
ROOT
ATOM      1  N   UNL     1       6.517   4.736  14.034  0.00  0.00    +0.000 N 
ATOM      2  C   UNL     1       7.627   5.052  13.132  0.00  0.00    +0.000 C 
ATOM      3  C   UNL     1       6.623   5.272  15.369  0.00  0.00    +0.000 A 
ATOM      4  N   UNL     1       7.682   6.020  15.750  0.00  0.00    +0.000 NA
ATOM      5  N   UNL     1       7.475   6.330  17.018  0.00  0.00    +0.000 NA
ATOM      6  N   UNL     1       6.332   5.801  17.422  0.00  0.00    +0.000 NA
ATOM      7  N   UNL     1       5.761   5.145  16.425  0.00  0.00    +0.000 N 
ENDROOT
BRANCH   1   8
ATOM      8  C   UNL     1       5.369   3.913  13.635  0.00  0.00    +0.000 C 
BRANCH   8   9
ATOM      9  C   UNL     1       5.386   3.347  12.192  0.00  0.00    +0.000 C 
BRANCH   9  11
ATOM     10  C   UNL     1       7.115   1.965  11.122  0.00  0.00    +0.000 C 
ATOM     11  N   UNL     1       6.008   2.014  12.080  0.00  0.00    +0.000 NA
ATOM     12  H   UNL     1       6.391   1.764  13.022  0.00  0.00    +0.000 HD
ENDBRANCH   9  11
ENDBRANCH   8   9
ENDBRANCH   1   8
BRANCH   7  13
ATOM     13  C   UNL     1       4.454   4.487  16.616  0.00  0.00    +0.000 C 
BRANCH  13  14
ATOM     14  C   UNL     1       3.646   5.057  17.776  0.00  0.00    +0.000 A 
ATOM     15  C   UNL     1       3.270   6.418  17.786  0.00  0.00    +0.000 A 
ATOM     16  C   UNL     1       2.530   6.949  18.839  0.00  0.00    +0.000 A 
ATOM     17  C   UNL     1       2.136   6.137  19.895  0.00  0.00    +0.000 A 
ATOM     18  C   UNL     1       2.507   4.796  19.923  0.00  0.00    +0.000 A 
ATOM     19  C   UNL     1       3.289   4.237  18.887  0.00  0.00    +0.000 A 
BRANCH  19  20
ATOM     20  O   UNL     1       3.702   2.939  18.916  0.00  0.00    +0.000 OA
BRANCH  20  21
ATOM     21  C   UNL     1       3.026   1.783  18.511  0.00  0.00    +0.000 C 
ATOM     22  F   UNL     1       2.384   1.917  17.293  0.00  0.00    +0.000 F 
ATOM     23  F   UNL     1       3.914   0.727  18.441  0.00  0.00    +0.000 F 
ATOM     24  F   UNL     1       2.054   1.482  19.446  0.00  0.00    +0.000 F 
ENDBRANCH  20  21
ENDBRANCH  19  20
ENDBRANCH  13  14
ENDBRANCH   7  13
TORSDOF 7
ENDMDL
MODEL 5
REMARK VINA RESULT:      -6.5      3.613      6.131
REMARK  Name = 
REMARK  9 active torsions:
REMARK  status: ('A' for Active; 'I' for Inactive)
REMARK    1  A    between atoms: C_1  and  N_2
REMARK    2  A    between atoms: N_2  and  C_3
REMARK    3  A    between atoms: C_3  and  C_4
REMARK    4  A    between atoms: C_4  and  N_5
REMARK    5  A    between atoms: N_5  and  C_6
REMARK    6  A    between atoms: N_11  and  C_12
REMARK    7  A    between atoms: C_12  and  C_13
REMARK    8  A    between atoms: C_18  and  O_19
REMARK    9  A    between atoms: O_19  and  C_20
REMARK                            x       y       z     vdW  Elec       q    Type
REMARK                         _______ _______ _______ _____ _____    ______ ____
ROOT
ATOM      1  N   UNL     1       1.873   6.739  20.204  0.00  0.00    +0.000 N 
ATOM      2  C   UNL     1       1.152   7.579  21.163  0.00  0.00    +0.000 C 
ATOM      3  C   UNL     1       2.278   7.391  18.983  0.00  0.00    +0.000 A 
ATOM      4  N   UNL     1       2.006   8.694  18.750  0.00  0.00    +0.000 NA
ATOM      5  N   UNL     1       2.492   8.963  17.551  0.00  0.00    +0.000 NA
ATOM      6  N   UNL     1       3.050   7.875  17.046  0.00  0.00    +0.000 NA
ATOM      7  N   UNL     1       2.952   6.876  17.907  0.00  0.00    +0.000 N 
ENDROOT
BRANCH   1   8
ATOM      8  C   UNL     1       2.162   5.320  20.439  0.00  0.00    +0.000 C 
BRANCH   8   9
ATOM      9  C   UNL     1       1.021   4.317  20.132  0.00  0.00    +0.000 C 
BRANCH   9  11
ATOM     10  C   UNL     1       2.325   2.816  21.579  0.00  0.00    +0.000 C 
ATOM     11  N   UNL     1       1.011   3.134  21.015  0.00  0.00    +0.000 NA
ATOM     12  H   UNL     1       0.363   3.340  21.811  0.00  0.00    +0.000 HD
ENDBRANCH   9  11
ENDBRANCH   8   9
ENDBRANCH   1   8
BRANCH   7  13
ATOM     13  C   UNL     1       3.528   5.555  17.588  0.00  0.00    +0.000 C 
BRANCH  13  14
ATOM     14  C   UNL     1       5.023   5.457  17.869  0.00  0.00    +0.000 A 
ATOM     15  C   UNL     1       5.510   5.555  19.190  0.00  0.00    +0.000 A 
ATOM     16  C   UNL     1       6.874   5.464  19.459  0.00  0.00    +0.000 A 
ATOM     17  C   UNL     1       7.777   5.258  18.425  0.00  0.00    +0.000 A 
ATOM     18  C   UNL     1       7.329   5.174  17.111  0.00  0.00    +0.000 A 
ATOM     19  C   UNL     1       5.956   5.300  16.801  0.00  0.00    +0.000 A 
BRANCH  19  20
ATOM     20  O   UNL     1       5.500   5.268  15.518  0.00  0.00    +0.000 OA
BRANCH  20  21
ATOM     21  C   UNL     1       5.831   4.389  14.481  0.00  0.00    +0.000 C 
ATOM     22  F   UNL     1       6.230   3.140  14.921  0.00  0.00    +0.000 F 
ATOM     23  F   UNL     1       4.751   4.245  13.631  0.00  0.00    +0.000 F 
ATOM     24  F   UNL     1       6.888   4.919  13.765  0.00  0.00    +0.000 F 
ENDBRANCH  20  21
ENDBRANCH  19  20
ENDBRANCH  13  14
ENDBRANCH   7  13
TORSDOF 7
ENDMDL
MODEL 6
REMARK VINA RESULT:      -6.5      2.436      3.330
REMARK  Name = 
REMARK  9 active torsions:
REMARK  status: ('A' for Active; 'I' for Inactive)
REMARK    1  A    between atoms: C_1  and  N_2
REMARK    2  A    between atoms: N_2  and  C_3
REMARK    3  A    between atoms: C_3  and  C_4
REMARK    4  A    between atoms: C_4  and  N_5
REMARK    5  A    between atoms: N_5  and  C_6
REMARK    6  A    between atoms: N_11  and  C_12
REMARK    7  A    between atoms: C_12  and  C_13
REMARK    8  A    between atoms: C_18  and  O_19
REMARK    9  A    between atoms: O_19  and  C_20
REMARK                            x       y       z     vdW  Elec       q    Type
REMARK                         _______ _______ _______ _____ _____    ______ ____
ROOT
ATOM      1  N   UNL     1       6.493   4.724  16.277  0.00  0.00    +0.000 N 
ATOM      2  C   UNL     1       7.742   4.959  15.548  0.00  0.00    +0.000 C 
ATOM      3  C   UNL     1       6.576   4.831  17.712  0.00  0.00    +0.000 A 
ATOM      4  N   UNL     1       7.737   5.132  18.335  0.00  0.00    +0.000 NA
ATOM      5  N   UNL     1       7.471   5.133  19.629  0.00  0.00    +0.000 NA
ATOM      6  N   UNL     1       6.194   4.846  19.819  0.00  0.00    +0.000 NA
ATOM      7  N   UNL     1       5.595   4.663  18.653  0.00  0.00    +0.000 N 
ENDROOT
BRANCH   1   8
ATOM      8  C   UNL     1       5.230   4.384  15.613  0.00  0.00    +0.000 C 
BRANCH   8   9
ATOM      9  C   UNL     1       5.243   4.355  14.062  0.00  0.00    +0.000 C 
BRANCH   9  11
ATOM     10  C   UNL     1       6.536   3.480  12.163  0.00  0.00    +0.000 C 
ATOM     11  N   UNL     1       5.982   3.213  13.492  0.00  0.00    +0.000 NA
ATOM     12  H   UNL     1       6.782   3.002  14.134  0.00  0.00    +0.000 HD
ENDBRANCH   9  11
ENDBRANCH   8   9
ENDBRANCH   1   8
BRANCH   7  13
ATOM     13  C   UNL     1       4.152   4.359  18.594  0.00  0.00    +0.000 C 
BRANCH  13  14
ATOM     14  C   UNL     1       3.265   5.516  19.040  0.00  0.00    +0.000 A 
ATOM     15  C   UNL     1       3.285   6.743  18.342  0.00  0.00    +0.000 A 
ATOM     16  C   UNL     1       2.478   7.806  18.738  0.00  0.00    +0.000 A 
ATOM     17  C   UNL     1       1.624   7.666  19.824  0.00  0.00    +0.000 A 
ATOM     18  C   UNL     1       1.594   6.476  20.543  0.00  0.00    +0.000 A 
ATOM     19  C   UNL     1       2.429   5.392  20.188  0.00  0.00    +0.000 A 
BRANCH  19  20
ATOM     20  O   UNL     1       2.450   4.234  20.906  0.00  0.00    +0.000 OA
BRANCH  20  21
ATOM     21  C   UNL     1       1.600   3.125  20.826  0.00  0.00    +0.000 C 
ATOM     22  F   UNL     1       0.399   3.394  20.195  0.00  0.00    +0.000 F 
ATOM     23  F   UNL     1       2.241   2.096  20.163  0.00  0.00    +0.000 F 
ATOM     24  F   UNL     1       1.295   2.702  22.106  0.00  0.00    +0.000 F 
ENDBRANCH  20  21
ENDBRANCH  19  20
ENDBRANCH  13  14
ENDBRANCH   7  13
TORSDOF 7
ENDMDL
MODEL 7
REMARK VINA RESULT:      -6.5      4.214      6.517
REMARK  Name = 
REMARK  9 active torsions:
REMARK  status: ('A' for Active; 'I' for Inactive)
REMARK    1  A    between atoms: C_1  and  N_2
REMARK    2  A    between atoms: N_2  and  C_3
REMARK    3  A    between atoms: C_3  and  C_4
REMARK    4  A    between atoms: C_4  and  N_5
REMARK    5  A    between atoms: N_5  and  C_6
REMARK    6  A    between atoms: N_11  and  C_12
REMARK    7  A    between atoms: C_12  and  C_13
REMARK    8  A    between atoms: C_18  and  O_19
REMARK    9  A    between atoms: O_19  and  C_20
REMARK                            x       y       z     vdW  Elec       q    Type
REMARK                         _______ _______ _______ _____ _____    ______ ____
ROOT
ATOM      1  N   UNL     1       0.995   9.239  19.998  0.00  0.00    +0.000 N 
ATOM      2  C   UNL     1       0.448  10.572  19.734  0.00  0.00    +0.000 C 
ATOM      3  C   UNL     1       1.815   8.681  18.952  0.00  0.00    +0.000 A 
ATOM      4  N   UNL     1       2.059   9.355  17.806  0.00  0.00    +0.000 NA
ATOM      5  N   UNL     1       2.817   8.563  17.068  0.00  0.00    +0.000 NA
ATOM      6  N   UNL     1       3.046   7.435  17.721  0.00  0.00    +0.000 NA
ATOM      7  N   UNL     1       2.452   7.469  18.903  0.00  0.00    +0.000 N 
ENDROOT
BRANCH   1   8
ATOM      8  C   UNL     1       0.726   8.492  21.232  0.00  0.00    +0.000 C 
BRANCH   8   9
ATOM      9  C   UNL     1       0.797   9.291  22.560  0.00  0.00    +0.000 C 
BRANCH   9  11
ATOM     10  C   UNL     1      -1.125  10.718  23.120  0.00  0.00    +0.000 C 
ATOM     11  N   UNL     1      -0.496   9.402  23.260  0.00  0.00    +0.000 NA
ATOM     12  H   UNL     1      -1.144   8.693  22.843  0.00  0.00    +0.000 HD
ENDBRANCH   9  11
ENDBRANCH   8   9
ENDBRANCH   1   8
BRANCH   7  13
ATOM     13  C   UNL     1       2.583   6.334  19.837  0.00  0.00    +0.000 C 
BRANCH  13  14
ATOM     14  C   UNL     1       2.722   4.985  19.143  0.00  0.00    +0.000 A 
ATOM     15  C   UNL     1       1.581   4.304  18.665  0.00  0.00    +0.000 A 
ATOM     16  C   UNL     1       1.697   3.072  18.027  0.00  0.00    +0.000 A 
ATOM     17  C   UNL     1       2.948   2.499  17.836  0.00  0.00    +0.000 A 
ATOM     18  C   UNL     1       4.090   3.137  18.311  0.00  0.00    +0.000 A 
ATOM     19  C   UNL     1       4.002   4.371  18.995  0.00  0.00    +0.000 A 
BRANCH  19  20
ATOM     20  O   UNL     1       5.101   4.990  19.509  0.00  0.00    +0.000 OA
BRANCH  20  21
ATOM     21  C   UNL     1       6.295   5.350  18.874  0.00  0.00    +0.000 C 
ATOM     22  F   UNL     1       6.860   4.324  18.138  0.00  0.00    +0.000 F 
ATOM     23  F   UNL     1       6.071   6.433  18.046  0.00  0.00    +0.000 F 
ATOM     24  F   UNL     1       7.221   5.712  19.834  0.00  0.00    +0.000 F 
ENDBRANCH  20  21
ENDBRANCH  19  20
ENDBRANCH  13  14
ENDBRANCH   7  13
TORSDOF 7
ENDMDL
MODEL 8
REMARK VINA RESULT:      -6.4      2.856      5.569
REMARK  Name = 
REMARK  9 active torsions:
REMARK  status: ('A' for Active; 'I' for Inactive)
REMARK    1  A    between atoms: C_1  and  N_2
REMARK    2  A    between atoms: N_2  and  C_3
REMARK    3  A    between atoms: C_3  and  C_4
REMARK    4  A    between atoms: C_4  and  N_5
REMARK    5  A    between atoms: N_5  and  C_6
REMARK    6  A    between atoms: N_11  and  C_12
REMARK    7  A    between atoms: C_12  and  C_13
REMARK    8  A    between atoms: C_18  and  O_19
REMARK    9  A    between atoms: O_19  and  C_20
REMARK                            x       y       z     vdW  Elec       q    Type
REMARK                         _______ _______ _______ _____ _____    ______ ____
ROOT
ATOM      1  N   UNL     1       2.841   2.625  20.701  0.00  0.00    +0.000 N 
ATOM      2  C   UNL     1       1.854   2.476  21.773  0.00  0.00    +0.000 C 
ATOM      3  C   UNL     1       2.302   2.811  19.376  0.00  0.00    +0.000 A 
ATOM      4  N   UNL     1       0.970   2.847  19.151  0.00  0.00    +0.000 NA
ATOM      5  N   UNL     1       0.821   3.010  17.848  0.00  0.00    +0.000 NA
ATOM      6  N   UNL     1       2.010   3.077  17.272  0.00  0.00    +0.000 NA
ATOM      7  N   UNL     1       2.961   2.970  18.186  0.00  0.00    +0.000 N 
ENDROOT
BRANCH   1   8
ATOM      8  C   UNL     1       4.289   2.575  20.931  0.00  0.00    +0.000 C 
BRANCH   8   9
ATOM      9  C   UNL     1       4.939   1.167  20.970  0.00  0.00    +0.000 C 
BRANCH   9  11
ATOM     10  C   UNL     1       6.396  -0.365  22.225  0.00  0.00    +0.000 C 
ATOM     11  N   UNL     1       5.994   1.024  21.992  0.00  0.00    +0.000 NA
ATOM     12  H   UNL     1       6.835   1.547  21.652  0.00  0.00    +0.000 HD
ENDBRANCH   9  11
ENDBRANCH   8   9
ENDBRANCH   1   8
BRANCH   7  13
ATOM     13  C   UNL     1       4.383   3.045  17.798  0.00  0.00    +0.000 C 
BRANCH  13  14
ATOM     14  C   UNL     1       4.721   4.267  16.952  0.00  0.00    +0.000 A 
ATOM     15  C   UNL     1       5.337   4.117  15.691  0.00  0.00    +0.000 A 
ATOM     16  C   UNL     1       5.649   5.226  14.909  0.00  0.00    +0.000 A 
ATOM     17  C   UNL     1       5.341   6.504  15.356  0.00  0.00    +0.000 A 
ATOM     18  C   UNL     1       4.750   6.686  16.602  0.00  0.00    +0.000 A 
ATOM     19  C   UNL     1       4.455   5.583  17.435  0.00  0.00    +0.000 A 
BRANCH  19  20
ATOM     20  O   UNL     1       3.920   5.741  18.678  0.00  0.00    +0.000 OA
BRANCH  20  21
ATOM     21  C   UNL     1       2.724   6.360  19.056  0.00  0.00    +0.000 C 
ATOM     22  F   UNL     1       2.828   7.734  19.180  0.00  0.00    +0.000 F 
ATOM     23  F   UNL     1       1.736   6.062  18.138  0.00  0.00    +0.000 F 
ATOM     24  F   UNL     1       2.339   5.874  20.292  0.00  0.00    +0.000 F 
ENDBRANCH  20  21
ENDBRANCH  19  20
ENDBRANCH  13  14
ENDBRANCH   7  13
TORSDOF 7
ENDMDL
MODEL 9
REMARK VINA RESULT:      -6.4      1.121      1.467
REMARK  Name = 
REMARK  9 active torsions:
REMARK  status: ('A' for Active; 'I' for Inactive)
REMARK    1  A    between atoms: C_1  and  N_2
REMARK    2  A    between atoms: N_2  and  C_3
REMARK    3  A    between atoms: C_3  and  C_4
REMARK    4  A    between atoms: C_4  and  N_5
REMARK    5  A    between atoms: N_5  and  C_6
REMARK    6  A    between atoms: N_11  and  C_12
REMARK    7  A    between atoms: C_12  and  C_13
REMARK    8  A    between atoms: C_18  and  O_19
REMARK    9  A    between atoms: O_19  and  C_20
REMARK                            x       y       z     vdW  Elec       q    Type
REMARK                         _______ _______ _______ _____ _____    ______ ____
ROOT
ATOM      1  N   UNL     1       6.582   4.622  15.487  0.00  0.00    +0.000 N 
ATOM      2  C   UNL     1       7.799   5.335  15.092  0.00  0.00    +0.000 C 
ATOM      3  C   UNL     1       6.336   4.543  16.905  0.00  0.00    +0.000 A 
ATOM      4  N   UNL     1       7.179   5.099  17.803  0.00  0.00    +0.000 NA
ATOM      5  N   UNL     1       6.675   4.832  18.995  0.00  0.00    +0.000 NA
ATOM      6  N   UNL     1       5.557   4.137  18.858  0.00  0.00    +0.000 NA
ATOM      7  N   UNL     1       5.301   3.946  17.574  0.00  0.00    +0.000 N 
ENDROOT
BRANCH   1   8
ATOM      8  C   UNL     1       5.667   4.003  14.522  0.00  0.00    +0.000 C 
BRANCH   8   9
ATOM      9  C   UNL     1       6.205   3.800  13.082  0.00  0.00    +0.000 C 
BRANCH   9  11
ATOM     10  C   UNL     1       4.391   3.196  11.537  0.00  0.00    +0.000 C 
ATOM     11  N   UNL     1       5.525   2.725  12.335  0.00  0.00    +0.000 NA
ATOM     12  H   UNL     1       6.225   2.306  11.678  0.00  0.00    +0.000 HD
ENDBRANCH   9  11
ENDBRANCH   8   9
ENDBRANCH   1   8
BRANCH   7  13
ATOM     13  C   UNL     1       4.086   3.219  17.156  0.00  0.00    +0.000 C 
BRANCH  13  14
ATOM     14  C   UNL     1       2.984   3.214  18.208  0.00  0.00    +0.000 A 
ATOM     15  C   UNL     1       2.687   2.037  18.928  0.00  0.00    +0.000 A 
ATOM     16  C   UNL     1       1.684   2.021  19.894  0.00  0.00    +0.000 A 
ATOM     17  C   UNL     1       0.968   3.177  20.175  0.00  0.00    +0.000 A 
ATOM     18  C   UNL     1       1.225   4.349  19.470  0.00  0.00    +0.000 A 
ATOM     19  C   UNL     1       2.211   4.387  18.458  0.00  0.00    +0.000 A 
BRANCH  19  20
ATOM     20  O   UNL     1       2.447   5.509  17.723  0.00  0.00    +0.000 OA
BRANCH  20  21
ATOM     21  C   UNL     1       3.009   6.728  18.121  0.00  0.00    +0.000 C 
ATOM     22  F   UNL     1       2.127   7.792  18.050  0.00  0.00    +0.000 F 
ATOM     23  F   UNL     1       3.485   6.620  19.413  0.00  0.00    +0.000 F 
ATOM     24  F   UNL     1       4.067   7.027  17.284  0.00  0.00    +0.000 F 
ENDBRANCH  20  21
ENDBRANCH  19  20
ENDBRANCH  13  14
ENDBRANCH   7  13
TORSDOF 7
ENDMDL
