MODEL 1
REMARK VINA RESULT:      -8.1      0.000      0.000
REMARK  Name = 
REMARK  1 active torsions:
REMARK  status: ('A' for Active; 'I' for Inactive)
REMARK    1  A    between atoms: N_12  and  C_13
REMARK                            x       y       z     vdW  Elec       q    Type
REMARK                         _______ _______ _______ _____ _____    ______ ____
ROOT
ATOM      1  O   UNL     1       2.500   5.485  17.716  0.00  0.00    +0.000 OA
ATOM      2  C   UNL     1       3.683   5.509  18.015  0.00  0.00    +0.000 C 
ATOM      3  C   UNL     1       4.650   6.390  17.296  0.00  0.00    +0.000 C 
ATOM      4  C   UNL     1       5.030   5.908  15.897  0.00  0.00    +0.000 C 
ATOM      5  C   UNL     1       5.362   4.414  15.801  0.00  0.00    +0.000 C 
ATOM      6  C   UNL     1       6.707   4.329  16.527  0.00  0.00    +0.000 C 
ATOM      7  C   UNL     1       6.919   5.781  16.963  0.00  0.00    +0.000 C 
ATOM      8  O   UNL     1       6.366   6.470  15.808  0.00  0.00    +0.000 OA
ATOM      9  C   UNL     1       5.956   6.234  18.058  0.00  0.00    +0.000 C 
ATOM     10  C   UNL     1       5.658   5.189  19.085  0.00  0.00    +0.000 C 
ATOM     11  O   UNL     1       6.495   4.758  19.869  0.00  0.00    +0.000 OA
ATOM     12  N   UNL     1       4.359   4.764  18.947  0.00  0.00    +0.000 N 
ENDROOT
BRANCH  12  13
ATOM     13  C   UNL     1       3.870   3.574  19.666  0.00  0.00    +0.000 C 
ATOM     14  C   UNL     1       2.611   3.774  20.510  0.00  0.00    +0.000 C 
ATOM     15  C   UNL     1       1.311   3.789  19.719  0.00  0.00    +0.000 C 
ATOM     16  C   UNL     1       1.199   2.674  18.678  0.00  0.00    +0.000 C 
ATOM     17  C   UNL     1       2.471   2.359  17.892  0.00  0.00    +0.000 C 
ATOM     18  C   UNL     1       3.726   2.345  18.756  0.00  0.00    +0.000 C 
ENDBRANCH  12  13
TORSDOF 1
ENDMDL
MODEL 2
REMARK VINA RESULT:      -8.0      1.518      4.746
REMARK  Name = 
REMARK  1 active torsions:
REMARK  status: ('A' for Active; 'I' for Inactive)
REMARK    1  A    between atoms: N_12  and  C_13
REMARK                            x       y       z     vdW  Elec       q    Type
REMARK                         _______ _______ _______ _____ _____    ______ ____
ROOT
ATOM      1  O   UNL     1       5.718   3.429  19.135  0.00  0.00    +0.000 OA
ATOM      2  C   UNL     1       4.709   4.105  19.255  0.00  0.00    +0.000 C 
ATOM      3  C   UNL     1       3.474   3.555  19.886  0.00  0.00    +0.000 C 
ATOM      4  C   UNL     1       2.694   2.575  19.011  0.00  0.00    +0.000 C 
ATOM      5  C   UNL     1       2.499   3.028  17.559  0.00  0.00    +0.000 C 
ATOM      6  C   UNL     1       1.494   4.172  17.703  0.00  0.00    +0.000 C 
ATOM      7  C   UNL     1       1.297   4.227  19.221  0.00  0.00    +0.000 C 
ATOM      8  O   UNL     1       1.358   2.807  19.529  0.00  0.00    +0.000 OA
ATOM      9  C   UNL     1       2.524   4.738  19.974  0.00  0.00    +0.000 C 
ATOM     10  C   UNL     1       3.252   5.845  19.281  0.00  0.00    +0.000 C 
ATOM     11  O   UNL     1       2.777   6.961  19.110  0.00  0.00    +0.000 OA
ATOM     12  N   UNL     1       4.465   5.385  18.826  0.00  0.00    +0.000 N 
ENDROOT
BRANCH  12  13
ATOM     13  C   UNL     1       5.283   6.191  17.902  0.00  0.00    +0.000 C 
ATOM     14  C   UNL     1       6.798   6.052  18.058  0.00  0.00    +0.000 C 
ATOM     15  C   UNL     1       7.388   4.796  17.433  0.00  0.00    +0.000 C 
ATOM     16  C   UNL     1       6.871   4.494  16.026  0.00  0.00    +0.000 C 
ATOM     17  C   UNL     1       5.380   4.734  15.793  0.00  0.00    +0.000 C 
ATOM     18  C   UNL     1       4.868   6.018  16.434  0.00  0.00    +0.000 C 
ENDBRANCH  12  13
TORSDOF 1
ENDMDL
MODEL 3
REMARK VINA RESULT:      -7.7      1.628      4.912
REMARK  Name = 
REMARK  1 active torsions:
REMARK  status: ('A' for Active; 'I' for Inactive)
REMARK    1  A    between atoms: N_12  and  C_13
REMARK                            x       y       z     vdW  Elec       q    Type
REMARK                         _______ _______ _______ _____ _____    ______ ____
ROOT
ATOM      1  O   UNL     1       2.737   3.991  16.806  0.00  0.00    +0.000 OA
ATOM      2  C   UNL     1       3.014   3.448  17.863  0.00  0.00    +0.000 C 
ATOM      3  C   UNL     1       1.969   2.781  18.693  0.00  0.00    +0.000 C 
ATOM      4  C   UNL     1       1.047   3.740  19.447  0.00  0.00    +0.000 C 
ATOM      5  C   UNL     1       1.766   4.891  20.160  0.00  0.00    +0.000 C 
ATOM      6  C   UNL     1       2.467   4.174  21.316  0.00  0.00    +0.000 C 
ATOM      7  C   UNL     1       2.077   2.715  21.063  0.00  0.00    +0.000 C 
ATOM      8  O   UNL     1       0.717   2.903  20.586  0.00  0.00    +0.000 OA
ATOM      9  C   UNL     1       2.738   2.116  19.823  0.00  0.00    +0.000 C 
ATOM     10  C   UNL     1       4.152   2.552  19.610  0.00  0.00    +0.000 C 
ATOM     11  O   UNL     1       5.071   2.248  20.361  0.00  0.00    +0.000 OA
ATOM     12  N   UNL     1       4.220   3.378  18.514  0.00  0.00    +0.000 N 
ENDROOT
BRANCH  12  13
ATOM     13  C   UNL     1       5.443   4.143  18.215  0.00  0.00    +0.000 C 
ATOM     14  C   UNL     1       5.954   4.051  16.777  0.00  0.00    +0.000 C 
ATOM     15  C   UNL     1       5.205   4.923  15.780  0.00  0.00    +0.000 C 
ATOM     16  C   UNL     1       4.949   6.350  16.265  0.00  0.00    +0.000 C 
ATOM     17  C   UNL     1       4.550   6.499  17.733  0.00  0.00    +0.000 C 
ATOM     18  C   UNL     1       5.356   5.608  18.670  0.00  0.00    +0.000 C 
ENDBRANCH  12  13
TORSDOF 1
ENDMDL
MODEL 4
REMARK VINA RESULT:      -7.6      0.986      1.614
REMARK  Name = 
REMARK  1 active torsions:
REMARK  status: ('A' for Active; 'I' for Inactive)
REMARK    1  A    between atoms: N_12  and  C_13
REMARK                            x       y       z     vdW  Elec       q    Type
REMARK                         _______ _______ _______ _____ _____    ______ ____
ROOT
ATOM      1  O   UNL     1       2.509   6.389  17.757  0.00  0.00    +0.000 OA
ATOM      2  C   UNL     1       3.562   5.840  18.038  0.00  0.00    +0.000 C 
ATOM      3  C   UNL     1       4.875   6.513  17.814  0.00  0.00    +0.000 C 
ATOM      4  C   UNL     1       5.317   6.575  16.353  0.00  0.00    +0.000 C 
ATOM      5  C   UNL     1       5.152   5.263  15.577  0.00  0.00    +0.000 C 
ATOM      6  C   UNL     1       6.244   4.381  16.186  0.00  0.00    +0.000 C 
ATOM      7  C   UNL     1       6.840   5.309  17.248  0.00  0.00    +0.000 C 
ATOM      8  O   UNL     1       6.756   6.578  16.541  0.00  0.00    +0.000 OA
ATOM      9  C   UNL     1       5.901   5.571  18.423  0.00  0.00    +0.000 C 
ATOM     10  C   UNL     1       5.101   4.381  18.846  0.00  0.00    +0.000 C 
ATOM     11  O   UNL     1       5.597   3.378  19.345  0.00  0.00    +0.000 OA
ATOM     12  N   UNL     1       3.780   4.574  18.521  0.00  0.00    +0.000 N 
ENDROOT
BRANCH  12  13
ATOM     13  C   UNL     1       2.809   3.469  18.603  0.00  0.00    +0.000 C 
ATOM     14  C   UNL     1       3.143   2.360  19.601  0.00  0.00    +0.000 C 
ATOM     15  C   UNL     1       2.833   2.696  21.053  0.00  0.00    +0.000 C 
ATOM     16  C   UNL     1       1.464   3.342  21.267  0.00  0.00    +0.000 C 
ATOM     17  C   UNL     1       1.037   4.373  20.223  0.00  0.00    +0.000 C 
ATOM     18  C   UNL     1       1.365   3.957  18.795  0.00  0.00    +0.000 C 
ENDBRANCH  12  13
TORSDOF 1
ENDMDL
MODEL 5
REMARK VINA RESULT:      -7.5      1.762      4.995
REMARK  Name = 
REMARK  1 active torsions:
REMARK  status: ('A' for Active; 'I' for Inactive)
REMARK    1  A    between atoms: N_12  and  C_13
REMARK                            x       y       z     vdW  Elec       q    Type
REMARK                         _______ _______ _______ _____ _____    ______ ____
ROOT
ATOM      1  O   UNL     1       2.751   5.943  17.616  0.00  0.00    +0.000 OA
ATOM      2  C   UNL     1       2.656   4.757  17.886  0.00  0.00    +0.000 C 
ATOM      3  C   UNL     1       1.468   4.215  18.608  0.00  0.00    +0.000 C 
ATOM      4  C   UNL     1       1.429   4.540  20.101  0.00  0.00    +0.000 C 
ATOM      5  C   UNL     1       2.756   4.325  20.839  0.00  0.00    +0.000 C 
ATOM      6  C   UNL     1       2.874   2.800  20.864  0.00  0.00    +0.000 C 
ATOM      7  C   UNL     1       1.617   2.375  20.100  0.00  0.00    +0.000 C 
ATOM      8  O   UNL     1       0.686   3.387  20.574  0.00  0.00    +0.000 OA
ATOM      9  C   UNL     1       1.670   2.708  18.610  0.00  0.00    +0.000 C 
ATOM     10  C   UNL     1       3.016   2.519  17.986  0.00  0.00    +0.000 C 
ATOM     11  O   UNL     1       3.549   1.423  17.856  0.00  0.00    +0.000 OA
ATOM     12  N   UNL     1       3.554   3.742  17.669  0.00  0.00    +0.000 N 
ENDROOT
BRANCH  12  13
ATOM     13  C   UNL     1       4.966   3.868  17.264  0.00  0.00    +0.000 C 
ATOM     14  C   UNL     1       5.219   4.594  15.943  0.00  0.00    +0.000 C 
ATOM     15  C   UNL     1       5.143   6.113  16.028  0.00  0.00    +0.000 C 
ATOM     16  C   UNL     1       5.882   6.710  17.226  0.00  0.00    +0.000 C 
ATOM     17  C   UNL     1       5.752   5.947  18.544  0.00  0.00    +0.000 C 
ATOM     18  C   UNL     1       5.856   4.436  18.379  0.00  0.00    +0.000 C 
ENDBRANCH  12  13
TORSDOF 1
ENDMDL
MODEL 6
REMARK VINA RESULT:      -7.5      1.544      2.381
REMARK  Name = 
REMARK  1 active torsions:
REMARK  status: ('A' for Active; 'I' for Inactive)
REMARK    1  A    between atoms: N_12  and  C_13
REMARK                            x       y       z     vdW  Elec       q    Type
REMARK                         _______ _______ _______ _____ _____    ______ ____
ROOT
ATOM      1  O   UNL     1       4.255   3.019  16.655  0.00  0.00    +0.000 OA
ATOM      2  C   UNL     1       4.460   4.221  16.709  0.00  0.00    +0.000 C 
ATOM      3  C   UNL     1       5.545   4.862  15.910  0.00  0.00    +0.000 C 
ATOM      4  C   UNL     1       6.957   4.615  16.439  0.00  0.00    +0.000 C 
ATOM      5  C   UNL     1       7.114   4.792  17.954  0.00  0.00    +0.000 C 
ATOM      6  C   UNL     1       6.990   6.308  18.121  0.00  0.00    +0.000 C 
ATOM      7  C   UNL     1       6.738   6.763  16.681  0.00  0.00    +0.000 C 
ATOM      8  O   UNL     1       7.600   5.830  15.973  0.00  0.00    +0.000 OA
ATOM      9  C   UNL     1       5.368   6.354  16.145  0.00  0.00    +0.000 C 
ATOM     10  C   UNL     1       4.265   6.438  17.151  0.00  0.00    +0.000 C 
ATOM     11  O   UNL     1       3.867   7.494  17.626  0.00  0.00    +0.000 OA
ATOM     12  N   UNL     1       3.849   5.172  17.486  0.00  0.00    +0.000 N 
ENDROOT
BRANCH  12  13
ATOM     13  C   UNL     1       2.944   4.949  18.627  0.00  0.00    +0.000 C 
ATOM     14  C   UNL     1       1.630   4.236  18.308  0.00  0.00    +0.000 C 
ATOM     15  C   UNL     1       1.748   2.726  18.149  0.00  0.00    +0.000 C 
ATOM     16  C   UNL     1       2.584   2.047  19.234  0.00  0.00    +0.000 C 
ATOM     17  C   UNL     1       3.848   2.786  19.670  0.00  0.00    +0.000 C 
ATOM     18  C   UNL     1       3.646   4.288  19.824  0.00  0.00    +0.000 C 
ENDBRANCH  12  13
TORSDOF 1
ENDMDL
MODEL 7
REMARK VINA RESULT:      -7.5      1.720      4.719
REMARK  Name = 
REMARK  1 active torsions:
REMARK  status: ('A' for Active; 'I' for Inactive)
REMARK    1  A    between atoms: N_12  and  C_13
REMARK                            x       y       z     vdW  Elec       q    Type
REMARK                         _______ _______ _______ _____ _____    ______ ____
ROOT
ATOM      1  O   UNL     1       5.282   2.520  19.689  0.00  0.00    +0.000 OA
ATOM      2  C   UNL     1       4.366   3.325  19.726  0.00  0.00    +0.000 C 
ATOM      3  C   UNL     1       2.967   2.900  20.025  0.00  0.00    +0.000 C 
ATOM      4  C   UNL     1       2.263   2.177  18.877  0.00  0.00    +0.000 C 
ATOM      5  C   UNL     1       2.431   2.839  17.504  0.00  0.00    +0.000 C 
ATOM      6  C   UNL     1       1.574   4.099  17.639  0.00  0.00    +0.000 C 
ATOM      7  C   UNL     1       1.079   3.988  19.084  0.00  0.00    +0.000 C 
ATOM      8  O   UNL     1       0.891   2.549  19.171  0.00  0.00    +0.000 OA
ATOM      9  C   UNL     1       2.181   4.198  20.121  0.00  0.00    +0.000 C 
ATOM     10  C   UNL     1       3.173   5.255  19.757  0.00  0.00    +0.000 C 
ATOM     11  O   UNL     1       2.891   6.445  19.680  0.00  0.00    +0.000 OA
ATOM     12  N   UNL     1       4.383   4.673  19.467  0.00  0.00    +0.000 N 
ENDROOT
BRANCH  12  13
ATOM     13  C   UNL     1       5.471   5.451  18.848  0.00  0.00    +0.000 C 
ATOM     14  C   UNL     1       6.545   4.639  18.124  0.00  0.00    +0.000 C 
ATOM     15  C   UNL     1       6.148   4.154  16.737  0.00  0.00    +0.000 C 
ATOM     16  C   UNL     1       5.475   5.218  15.871  0.00  0.00    +0.000 C 
ATOM     17  C   UNL     1       4.479   6.133  16.582  0.00  0.00    +0.000 C 
ATOM     18  C   UNL     1       4.955   6.590  17.956  0.00  0.00    +0.000 C 
ENDBRANCH  12  13
TORSDOF 1
ENDMDL
MODEL 8
REMARK VINA RESULT:      -7.4      1.618      2.878
REMARK  Name = 
REMARK  1 active torsions:
REMARK  status: ('A' for Active; 'I' for Inactive)
REMARK    1  A    between atoms: N_12  and  C_13
REMARK                            x       y       z     vdW  Elec       q    Type
REMARK                         _______ _______ _______ _____ _____    ______ ____
ROOT
ATOM      1  O   UNL     1       2.402   2.777  17.048  0.00  0.00    +0.000 OA
ATOM      2  C   UNL     1       2.754   3.904  17.357  0.00  0.00    +0.000 C 
ATOM      3  C   UNL     1       3.987   4.519  16.784  0.00  0.00    +0.000 C 
ATOM      4  C   UNL     1       5.295   3.972  17.355  0.00  0.00    +0.000 C 
ATOM      5  C   UNL     1       5.321   3.836  18.882  0.00  0.00    +0.000 C 
ATOM      6  C   UNL     1       5.378   5.294  19.341  0.00  0.00    +0.000 C 
ATOM      7  C   UNL     1       5.333   6.045  18.007  0.00  0.00    +0.000 C 
ATOM      8  O   UNL     1       6.133   5.146  17.191  0.00  0.00    +0.000 OA
ATOM      9  C   UNL     1       3.982   5.949  17.301  0.00  0.00    +0.000 C 
ATOM     10  C   UNL     1       2.804   6.001  18.220  0.00  0.00    +0.000 C 
ATOM     11  O   UNL     1       2.500   6.996  18.868  0.00  0.00    +0.000 OA
ATOM     12  N   UNL     1       2.196   4.770  18.262  0.00  0.00    +0.000 N 
ENDROOT
BRANCH  12  13
ATOM     13  C   UNL     1       1.160   4.470  19.267  0.00  0.00    +0.000 C 
ATOM     14  C   UNL     1       0.766   2.999  19.400  0.00  0.00    +0.000 C 
ATOM     15  C   UNL     1       1.742   2.149  20.202  0.00  0.00    +0.000 C 
ATOM     16  C   UNL     1       2.208   2.796  21.506  0.00  0.00    +0.000 C 
ATOM     17  C   UNL     1       2.500   4.294  21.447  0.00  0.00    +0.000 C 
ATOM     18  C   UNL     1       1.470   5.078  20.643  0.00  0.00    +0.000 C 
ENDBRANCH  12  13
TORSDOF 1
ENDMDL
MODEL 9
REMARK VINA RESULT:      -7.3      1.636      4.939
REMARK  Name = 
REMARK  1 active torsions:
REMARK  status: ('A' for Active; 'I' for Inactive)
REMARK    1  A    between atoms: N_12  and  C_13
REMARK                            x       y       z     vdW  Elec       q    Type
REMARK                         _______ _______ _______ _____ _____    ______ ____
ROOT
ATOM      1  O   UNL     1       2.229   3.266  16.717  0.00  0.00    +0.000 OA
ATOM      2  C   UNL     1       2.851   3.193  17.765  0.00  0.00    +0.000 C 
ATOM      3  C   UNL     1       2.391   2.319  18.883  0.00  0.00    +0.000 C 
ATOM      4  C   UNL     1       1.186   2.854  19.655  0.00  0.00    +0.000 C 
ATOM      5  C   UNL     1       1.269   4.340  20.023  0.00  0.00    +0.000 C 
ATOM      6  C   UNL     1       2.351   4.351  21.105  0.00  0.00    +0.000 C 
ATOM      7  C   UNL     1       2.752   2.874  21.162  0.00  0.00    +0.000 C 
ATOM      8  O   UNL     1       1.452   2.257  20.951  0.00  0.00    +0.000 OA
ATOM      9  C   UNL     1       3.502   2.400  19.918  0.00  0.00    +0.000 C 
ATOM     10  C   UNL     1       4.454   3.405  19.355  0.00  0.00    +0.000 C 
ATOM     11  O   UNL     1       5.467   3.773  19.939  0.00  0.00    +0.000 OA
ATOM     12  N   UNL     1       3.975   3.874  18.156  0.00  0.00    +0.000 N 
ENDROOT
BRANCH  12  13
ATOM     13  C   UNL     1       4.588   5.043  17.501  0.00  0.00    +0.000 C 
ATOM     14  C   UNL     1       5.921   5.513  18.082  0.00  0.00    +0.000 C 
ATOM     15  C   UNL     1       7.126   4.685  17.658  0.00  0.00    +0.000 C 
ATOM     16  C   UNL     1       7.170   4.365  16.163  0.00  0.00    +0.000 C 
ATOM     17  C   UNL     1       5.835   4.006  15.513  0.00  0.00    +0.000 C 
ATOM     18  C   UNL     1       4.682   4.889  15.975  0.00  0.00    +0.000 C 
ENDBRANCH  12  13
TORSDOF 1
ENDMDL
