MODEL 1
REMARK VINA RESULT:      -9.1      0.000      0.000
REMARK  Name = 
REMARK  9 active torsions:
REMARK  status: ('A' for Active; 'I' for Inactive)
REMARK    1  A    between atoms: C_1  and  C_2
REMARK    2  A    between atoms: C_2  and  C_3
REMARK    3  A    between atoms: C_2  and  C_4
REMARK    4  A    between atoms: C_2  and  C_19
REMARK    5  A    between atoms: C_4  and  O_5
REMARK    6  A    between atoms: O_5  and  C_6
REMARK    7  A    between atoms: C_6  and  C_8
REMARK    8  A    between atoms: C_17  and  O_18
REMARK    9  A    between atoms: C_19  and  C_20
REMARK                            x       y       z     vdW  Elec       q    Type
REMARK                         _______ _______ _______ _____ _____    ______ ____
ROOT
ATOM      1  C   UNL     1       2.279   3.489  20.246  0.00  0.00    +0.000 C 
ATOM      2  C   UNL     1       2.077   3.478  18.712  0.00  0.00    +0.000 C 
ATOM      3  C   UNL     1       0.898   2.532  18.419  0.00  0.00    +0.000 C 
ENDROOT
BRANCH   2   4
ATOM      4  C   UNL     1       1.776   4.921  18.239  0.00  0.00    +0.000 C 
BRANCH   4   5
ATOM      5  O   UNL     1       2.097   5.895  19.245  0.00  0.00    +0.000 OA
BRANCH   5   6
ATOM      6  C   UNL     1       2.498   7.116  18.818  0.00  0.00    +0.000 C 
ATOM      7  O   UNL     1       3.354   7.339  17.974  0.00  0.00    +0.000 OA
BRANCH   6   8
ATOM      8  C   UNL     1       1.669   8.189  19.423  0.00  0.00    +0.000 A 
ATOM      9  C   UNL     1       1.293   9.246  18.589  0.00  0.00    +0.000 A 
ATOM     10  C   UNL     1       0.505  10.286  19.085  0.00  0.00    +0.000 A 
ATOM     11  C   UNL     1       0.079  10.292  20.420  0.00  0.00    +0.000 A 
ATOM     12  C   UNL     1      -0.711  11.351  20.896  0.00  0.00    +0.000 A 
ATOM     13  C   UNL     1      -1.140  11.389  22.222  0.00  0.00    +0.000 A 
ATOM     14  C   UNL     1      -0.780  10.369  23.091  0.00  0.00    +0.000 A 
ATOM     15  C   UNL     1       0.012   9.312  22.635  0.00  0.00    +0.000 A 
ATOM     16  C   UNL     1       0.458   9.240  21.291  0.00  0.00    +0.000 A 
ATOM     17  C   UNL     1       1.268   8.194  20.769  0.00  0.00    +0.000 A 
BRANCH  17  18
ATOM     18  O   UNL     1       1.724   7.188  21.586  0.00  0.00    +0.000 OA
ATOM     19  H   UNL     1       1.330   7.273  22.465  0.00  0.00    +0.000 HD
ENDBRANCH  17  18
ENDBRANCH   6   8
ENDBRANCH   5   6
ENDBRANCH   4   5
ENDBRANCH   2   4
BRANCH   2  20
ATOM     20  C   UNL     1       3.390   2.960  18.044  0.00  0.00    +0.000 C 
BRANCH  20  21
ATOM     21  C   UNL     1       4.444   3.985  17.662  0.00  0.00    +0.000 C 
ATOM     22  C   UNL     1       4.436   4.619  16.480  0.00  0.00    +0.000 C 
ATOM     23  C   UNL     1       5.403   5.672  16.112  0.00  0.00    +0.000 C 
ATOM     24  O   UNL     1       5.369   6.186  15.002  0.00  0.00    +0.000 OA
ATOM     25  C   UNL     1       6.391   6.081  17.128  0.00  0.00    +0.000 A 
ATOM     26  C   UNL     1       7.291   7.116  16.844  0.00  0.00    +0.000 A 
ATOM     27  C   UNL     1       8.225   7.512  17.802  0.00  0.00    +0.000 A 
ATOM     28  C   UNL     1       8.270   6.867  19.038  0.00  0.00    +0.000 A 
ATOM     29  C   UNL     1       7.374   5.832  19.319  0.00  0.00    +0.000 A 
ATOM     30  C   UNL     1       6.423   5.440  18.364  0.00  0.00    +0.000 A 
ATOM     31  C   UNL     1       5.454   4.370  18.692  0.00  0.00    +0.000 C 
ATOM     32  O   UNL     1       5.478   3.830  19.791  0.00  0.00    +0.000 OA
ENDBRANCH  20  21
ENDBRANCH   2  20
TORSDOF 7
ENDMDL
MODEL 2
REMARK VINA RESULT:      -9.0      1.604      2.494
REMARK  Name = 
REMARK  9 active torsions:
REMARK  status: ('A' for Active; 'I' for Inactive)
REMARK    1  A    between atoms: C_1  and  C_2
REMARK    2  A    between atoms: C_2  and  C_3
REMARK    3  A    between atoms: C_2  and  C_4
REMARK    4  A    between atoms: C_2  and  C_19
REMARK    5  A    between atoms: C_4  and  O_5
REMARK    6  A    between atoms: O_5  and  C_6
REMARK    7  A    between atoms: C_6  and  C_8
REMARK    8  A    between atoms: C_17  and  O_18
REMARK    9  A    between atoms: C_19  and  C_20
REMARK                            x       y       z     vdW  Elec       q    Type
REMARK                         _______ _______ _______ _____ _____    ______ ____
ROOT
ATOM      1  C   UNL     1       1.514   2.711  21.689  0.00  0.00    +0.000 C 
ATOM      2  C   UNL     1       1.972   3.389  20.377  0.00  0.00    +0.000 C 
ATOM      3  C   UNL     1       0.762   3.393  19.425  0.00  0.00    +0.000 C 
ENDROOT
BRANCH   2   4
ATOM      4  C   UNL     1       2.443   4.829  20.698  0.00  0.00    +0.000 C 
BRANCH   4   5
ATOM      5  O   UNL     1       1.744   5.811  19.916  0.00  0.00    +0.000 OA
BRANCH   5   6
ATOM      6  C   UNL     1       2.491   6.771  19.320  0.00  0.00    +0.000 C 
ATOM      7  O   UNL     1       3.549   6.602  18.734  0.00  0.00    +0.000 OA
BRANCH   6   8
ATOM      8  C   UNL     1       1.796   8.083  19.357  0.00  0.00    +0.000 A 
ATOM      9  C   UNL     1       1.633   8.749  18.139  0.00  0.00    +0.000 A 
ATOM     10  C   UNL     1       0.980   9.981  18.094  0.00  0.00    +0.000 A 
ATOM     11  C   UNL     1       0.479  10.573  19.261  0.00  0.00    +0.000 A 
ATOM     12  C   UNL     1      -0.173  11.816  19.191  0.00  0.00    +0.000 A 
ATOM     13  C   UNL     1      -0.672  12.433  20.336  0.00  0.00    +0.000 A 
ATOM     14  C   UNL     1      -0.522  11.816  21.571  0.00  0.00    +0.000 A 
ATOM     15  C   UNL     1       0.130  10.584  21.659  0.00  0.00    +0.000 A 
ATOM     16  C   UNL     1       0.642   9.926  20.512  0.00  0.00    +0.000 A 
ATOM     17  C   UNL     1       1.318   8.675  20.538  0.00  0.00    +0.000 A 
BRANCH  17  18
ATOM     18  O   UNL     1       1.568   8.040  21.730  0.00  0.00    +0.000 OA
ATOM     19  H   UNL     1       1.232   8.572  22.465  0.00  0.00    +0.000 HD
ENDBRANCH  17  18
ENDBRANCH   6   8
ENDBRANCH   5   6
ENDBRANCH   4   5
ENDBRANCH   2   4
BRANCH   2  20
ATOM     20  C   UNL     1       3.154   2.563  19.779  0.00  0.00    +0.000 C 
BRANCH  20  21
ATOM     21  C   UNL     1       4.182   3.300  18.939  0.00  0.00    +0.000 C 
ATOM     22  C   UNL     1       5.290   3.841  19.469  0.00  0.00    +0.000 C 
ATOM     23  C   UNL     1       6.342   4.497  18.668  0.00  0.00    +0.000 C 
ATOM     24  O   UNL     1       7.311   5.007  19.215  0.00  0.00    +0.000 OA
ATOM     25  C   UNL     1       6.183   4.504  17.202  0.00  0.00    +0.000 A 
ATOM     26  C   UNL     1       7.184   5.064  16.398  0.00  0.00    +0.000 A 
ATOM     27  C   UNL     1       7.043   5.070  15.010  0.00  0.00    +0.000 A 
ATOM     28  C   UNL     1       5.899   4.528  14.424  0.00  0.00    +0.000 A 
ATOM     29  C   UNL     1       4.900   3.971  15.227  0.00  0.00    +0.000 A 
ATOM     30  C   UNL     1       5.043   3.951  16.623  0.00  0.00    +0.000 A 
ATOM     31  C   UNL     1       3.995   3.321  17.457  0.00  0.00    +0.000 C 
ATOM     32  O   UNL     1       3.009   2.818  16.935  0.00  0.00    +0.000 OA
ENDBRANCH  20  21
ENDBRANCH   2  20
TORSDOF 7
ENDMDL
MODEL 3
REMARK VINA RESULT:      -8.9      0.693      1.560
REMARK  Name = 
REMARK  9 active torsions:
REMARK  status: ('A' for Active; 'I' for Inactive)
REMARK    1  A    between atoms: C_1  and  C_2
REMARK    2  A    between atoms: C_2  and  C_3
REMARK    3  A    between atoms: C_2  and  C_4
REMARK    4  A    between atoms: C_2  and  C_19
REMARK    5  A    between atoms: C_4  and  O_5
REMARK    6  A    between atoms: O_5  and  C_6
REMARK    7  A    between atoms: C_6  and  C_8
REMARK    8  A    between atoms: C_17  and  O_18
REMARK    9  A    between atoms: C_19  and  C_20
REMARK                            x       y       z     vdW  Elec       q    Type
REMARK                         _______ _______ _______ _____ _____    ______ ____
ROOT
ATOM      1  C   UNL     1       2.562   3.261  20.288  0.00  0.00    +0.000 C 
ATOM      2  C   UNL     1       2.199   3.303  18.785  0.00  0.00    +0.000 C 
ATOM      3  C   UNL     1       1.037   2.316  18.574  0.00  0.00    +0.000 C 
ENDROOT
BRANCH   2   4
ATOM      4  C   UNL     1       1.788   4.748  18.412  0.00  0.00    +0.000 C 
BRANCH   4   5
ATOM      5  O   UNL     1       2.209   5.701  19.403  0.00  0.00    +0.000 OA
BRANCH   5   6
ATOM      6  C   UNL     1       2.508   6.949  18.972  0.00  0.00    +0.000 C 
ATOM      7  O   UNL     1       3.250   7.233  18.044  0.00  0.00    +0.000 OA
BRANCH   6   8
ATOM      8  C   UNL     1       1.712   7.968  19.703  0.00  0.00    +0.000 A 
ATOM      9  C   UNL     1       1.380   7.680  21.030  0.00  0.00    +0.000 A 
ATOM     10  C   UNL     1       0.643   8.595  21.784  0.00  0.00    +0.000 A 
ATOM     11  C   UNL     1       0.222   9.811  21.228  0.00  0.00    +0.000 A 
ATOM     12  C   UNL     1      -0.521  10.715  22.006  0.00  0.00    +0.000 A 
ATOM     13  C   UNL     1      -0.961  11.927  21.477  0.00  0.00    +0.000 A 
ATOM     14  C   UNL     1      -0.667  12.250  20.160  0.00  0.00    +0.000 A 
ATOM     15  C   UNL     1       0.064  11.359  19.370  0.00  0.00    +0.000 A 
ATOM     16  C   UNL     1       0.534  10.122  19.880  0.00  0.00    +0.000 A 
ATOM     17  C   UNL     1       1.278   9.173  19.127  0.00  0.00    +0.000 A 
BRANCH  17  18
ATOM     18  O   UNL     1       1.545   9.390  17.797  0.00  0.00    +0.000 OA
ATOM     19  H   UNL     1       0.809   9.865  17.386  0.00  0.00    +0.000 HD
ENDBRANCH  17  18
ENDBRANCH   6   8
ENDBRANCH   5   6
ENDBRANCH   4   5
ENDBRANCH   2   4
BRANCH   2  20
ATOM     20  C   UNL     1       3.454   2.876  17.961  0.00  0.00    +0.000 C 
BRANCH  20  21
ATOM     21  C   UNL     1       4.473   3.948  17.613  0.00  0.00    +0.000 C 
ATOM     22  C   UNL     1       4.421   4.644  16.468  0.00  0.00    +0.000 C 
ATOM     23  C   UNL     1       5.353   5.741  16.137  0.00  0.00    +0.000 C 
ATOM     24  O   UNL     1       5.279   6.314  15.057  0.00  0.00    +0.000 OA
ATOM     25  C   UNL     1       6.354   6.120  17.151  0.00  0.00    +0.000 A 
ATOM     26  C   UNL     1       7.221   7.193  16.905  0.00  0.00    +0.000 A 
ATOM     27  C   UNL     1       8.167   7.560  17.862  0.00  0.00    +0.000 A 
ATOM     28  C   UNL     1       8.258   6.850  19.059  0.00  0.00    +0.000 A 
ATOM     29  C   UNL     1       7.394   5.778  19.303  0.00  0.00    +0.000 A 
ATOM     30  C   UNL     1       6.432   5.414  18.350  0.00  0.00    +0.000 A 
ATOM     31  C   UNL     1       5.498   4.303  18.640  0.00  0.00    +0.000 C 
ATOM     32  O   UNL     1       5.561   3.705  19.706  0.00  0.00    +0.000 OA
ENDBRANCH  20  21
ENDBRANCH   2  20
TORSDOF 7
ENDMDL
MODEL 4
REMARK VINA RESULT:      -8.9      1.721      2.872
REMARK  Name = 
REMARK  9 active torsions:
REMARK  status: ('A' for Active; 'I' for Inactive)
REMARK    1  A    between atoms: C_1  and  C_2
REMARK    2  A    between atoms: C_2  and  C_3
REMARK    3  A    between atoms: C_2  and  C_4
REMARK    4  A    between atoms: C_2  and  C_19
REMARK    5  A    between atoms: C_4  and  O_5
REMARK    6  A    between atoms: O_5  and  C_6
REMARK    7  A    between atoms: C_6  and  C_8
REMARK    8  A    between atoms: C_17  and  O_18
REMARK    9  A    between atoms: C_19  and  C_20
REMARK                            x       y       z     vdW  Elec       q    Type
REMARK                         _______ _______ _______ _____ _____    ______ ____
ROOT
ATOM      1  C   UNL     1       2.148   4.561  21.403  0.00  0.00    +0.000 C 
ATOM      2  C   UNL     1       2.241   4.286  19.883  0.00  0.00    +0.000 C 
ATOM      3  C   UNL     1       0.965   3.523  19.484  0.00  0.00    +0.000 C 
ENDROOT
BRANCH   2   4
ATOM      4  C   UNL     1       2.348   5.638  19.137  0.00  0.00    +0.000 C 
BRANCH   4   5
ATOM      5  O   UNL     1       2.214   6.757  20.030  0.00  0.00    +0.000 OA
BRANCH   5   6
ATOM      6  C   UNL     1       1.995   7.971  19.470  0.00  0.00    +0.000 C 
ATOM      7  O   UNL     1       2.351   8.327  18.357  0.00  0.00    +0.000 OA
BRANCH   6   8
ATOM      8  C   UNL     1       1.138   8.811  20.345  0.00  0.00    +0.000 A 
ATOM      9  C   UNL     1       1.157   8.526  21.714  0.00  0.00    +0.000 A 
ATOM     10  C   UNL     1       0.386   9.280  22.599  0.00  0.00    +0.000 A 
ATOM     11  C   UNL     1      -0.419  10.331  22.137  0.00  0.00    +0.000 A 
ATOM     12  C   UNL     1      -1.188  11.074  23.048  0.00  0.00    +0.000 A 
ATOM     13  C   UNL     1      -2.005  12.118  22.616  0.00  0.00    +0.000 A 
ATOM     14  C   UNL     1      -2.066  12.429  21.264  0.00  0.00    +0.000 A 
ATOM     15  C   UNL     1      -1.314  11.694  20.345  0.00  0.00    +0.000 A 
ATOM     16  C   UNL     1      -0.467  10.633  20.752  0.00  0.00    +0.000 A 
ATOM     17  C   UNL     1       0.319   9.847  19.866  0.00  0.00    +0.000 A 
BRANCH  17  18
ATOM     18  O   UNL     1       0.255  10.048  18.508  0.00  0.00    +0.000 OA
ATOM     19  H   UNL     1      -0.490  10.629  18.296  0.00  0.00    +0.000 HD
ENDBRANCH  17  18
ENDBRANCH   6   8
ENDBRANCH   5   6
ENDBRANCH   4   5
ENDBRANCH   2   4
BRANCH   2  20
ATOM     20  C   UNL     1       3.516   3.426  19.613  0.00  0.00    +0.000 C 
BRANCH  20  21
ATOM     21  C   UNL     1       4.522   3.946  18.600  0.00  0.00    +0.000 C 
ATOM     22  C   UNL     1       5.675   4.526  18.965  0.00  0.00    +0.000 C 
ATOM     23  C   UNL     1       6.703   4.973  18.004  0.00  0.00    +0.000 C 
ATOM     24  O   UNL     1       7.719   5.531  18.397  0.00  0.00    +0.000 OA
ATOM     25  C   UNL     1       6.463   4.712  16.573  0.00  0.00    +0.000 A 
ATOM     26  C   UNL     1       7.437   5.066  15.629  0.00  0.00    +0.000 A 
ATOM     27  C   UNL     1       7.219   4.818  14.274  0.00  0.00    +0.000 A 
ATOM     28  C   UNL     1       6.026   4.228  13.858  0.00  0.00    +0.000 A 
ATOM     29  C   UNL     1       5.054   3.877  14.798  0.00  0.00    +0.000 A 
ATOM     30  C   UNL     1       5.274   4.112  16.164  0.00  0.00    +0.000 A 
ATOM     31  C   UNL     1       4.253   3.698  17.152  0.00  0.00    +0.000 C 
ATOM     32  O   UNL     1       3.221   3.151  16.783  0.00  0.00    +0.000 OA
ENDBRANCH  20  21
ENDBRANCH   2  20
TORSDOF 7
ENDMDL
MODEL 5
REMARK VINA RESULT:      -8.7      1.483      2.774
REMARK  Name = 
REMARK  9 active torsions:
REMARK  status: ('A' for Active; 'I' for Inactive)
REMARK    1  A    between atoms: C_1  and  C_2
REMARK    2  A    between atoms: C_2  and  C_3
REMARK    3  A    between atoms: C_2  and  C_4
REMARK    4  A    between atoms: C_2  and  C_19
REMARK    5  A    between atoms: C_4  and  O_5
REMARK    6  A    between atoms: O_5  and  C_6
REMARK    7  A    between atoms: C_6  and  C_8
REMARK    8  A    between atoms: C_17  and  O_18
REMARK    9  A    between atoms: C_19  and  C_20
REMARK                            x       y       z     vdW  Elec       q    Type
REMARK                         _______ _______ _______ _____ _____    ______ ____
ROOT
ATOM      1  C   UNL     1       1.412   3.603  21.197  0.00  0.00    +0.000 C 
ATOM      2  C   UNL     1       1.774   3.405  19.706  0.00  0.00    +0.000 C 
ATOM      3  C   UNL     1       0.744   2.422  19.119  0.00  0.00    +0.000 C 
ENDROOT
BRANCH   2   4
ATOM      4  C   UNL     1       1.715   4.778  18.993  0.00  0.00    +0.000 C 
BRANCH   4   5
ATOM      5  O   UNL     1       2.241   5.834  19.814  0.00  0.00    +0.000 OA
BRANCH   5   6
ATOM      6  C   UNL     1       2.570   6.992  19.194  0.00  0.00    +0.000 C 
ATOM      7  O   UNL     1       3.376   7.121  18.285  0.00  0.00    +0.000 OA
BRANCH   6   8
ATOM      8  C   UNL     1       1.724   8.113  19.680  0.00  0.00    +0.000 A 
ATOM      9  C   UNL     1       1.241   8.021  20.989  0.00  0.00    +0.000 A 
ATOM     10  C   UNL     1       0.449   9.041  21.518  0.00  0.00    +0.000 A 
ATOM     11  C   UNL     1       0.121  10.168  20.752  0.00  0.00    +0.000 A 
ATOM     12  C   UNL     1      -0.680  11.180  21.307  0.00  0.00    +0.000 A 
ATOM     13  C   UNL     1      -1.031  12.308  20.565  0.00  0.00    +0.000 A 
ATOM     14  C   UNL     1      -0.586  12.436  19.257  0.00  0.00    +0.000 A 
ATOM     15  C   UNL     1       0.206  11.434  18.688  0.00  0.00    +0.000 A 
ATOM     16  C   UNL     1       0.586  10.280  19.418  0.00  0.00    +0.000 A 
ATOM     17  C   UNL     1       1.385   9.226  18.894  0.00  0.00    +0.000 A 
BRANCH  17  18
ATOM     18  O   UNL     1       1.801   9.248  17.585  0.00  0.00    +0.000 OA
ATOM     19  H   UNL     1       2.739   9.482  17.541  0.00  0.00    +0.000 HD
ENDBRANCH  17  18
ENDBRANCH   6   8
ENDBRANCH   5   6
ENDBRANCH   4   5
ENDBRANCH   2   4
BRANCH   2  20
ATOM     20  C   UNL     1       3.219   2.821  19.621  0.00  0.00    +0.000 C 
BRANCH  20  21
ATOM     21  C   UNL     1       4.234   3.562  18.767  0.00  0.00    +0.000 C 
ATOM     22  C   UNL     1       5.224   4.294  19.301  0.00  0.00    +0.000 C 
ATOM     23  C   UNL     1       6.268   4.962  18.499  0.00  0.00    +0.000 C 
ATOM     24  O   UNL     1       7.123   5.650  19.042  0.00  0.00    +0.000 OA
ATOM     25  C   UNL     1       6.244   4.762  17.038  0.00  0.00    +0.000 A 
ATOM     26  C   UNL     1       7.248   5.329  16.243  0.00  0.00    +0.000 A 
ATOM     27  C   UNL     1       7.234   5.140  14.860  0.00  0.00    +0.000 A 
ATOM     28  C   UNL     1       6.213   4.395  14.270  0.00  0.00    +0.000 A 
ATOM     29  C   UNL     1       5.210   3.831  15.064  0.00  0.00    +0.000 A 
ATOM     30  C   UNL     1       5.228   4.007  16.456  0.00  0.00    +0.000 A 
ATOM     31  C   UNL     1       4.182   3.370  17.288  0.00  0.00    +0.000 C 
ATOM     32  O   UNL     1       3.307   2.690  16.766  0.00  0.00    +0.000 OA
ENDBRANCH  20  21
ENDBRANCH   2  20
TORSDOF 7
ENDMDL
MODEL 6
REMARK VINA RESULT:      -8.3      1.690      4.506
REMARK  Name = 
REMARK  9 active torsions:
REMARK  status: ('A' for Active; 'I' for Inactive)
REMARK    1  A    between atoms: C_1  and  C_2
REMARK    2  A    between atoms: C_2  and  C_3
REMARK    3  A    between atoms: C_2  and  C_4
REMARK    4  A    between atoms: C_2  and  C_19
REMARK    5  A    between atoms: C_4  and  O_5
REMARK    6  A    between atoms: O_5  and  C_6
REMARK    7  A    between atoms: C_6  and  C_8
REMARK    8  A    between atoms: C_17  and  O_18
REMARK    9  A    between atoms: C_19  and  C_20
REMARK                            x       y       z     vdW  Elec       q    Type
REMARK                         _______ _______ _______ _____ _____    ______ ____
ROOT
ATOM      1  C   UNL     1       7.459   4.673  15.593  0.00  0.00    +0.000 C 
ATOM      2  C   UNL     1       6.389   4.862  16.693  0.00  0.00    +0.000 C 
ATOM      3  C   UNL     1       7.137   5.187  17.999  0.00  0.00    +0.000 C 
ENDROOT
BRANCH   2   4
ATOM      4  C   UNL     1       5.448   6.020  16.278  0.00  0.00    +0.000 C 
BRANCH   4   5
ATOM      5  O   UNL     1       4.690   6.523  17.391  0.00  0.00    +0.000 OA
BRANCH   5   6
ATOM      6  C   UNL     1       3.747   7.457  17.124  0.00  0.00    +0.000 C 
ATOM      7  O   UNL     1       3.538   7.983  16.041  0.00  0.00    +0.000 OA
BRANCH   6   8
ATOM      8  C   UNL     1       2.883   7.692  18.309  0.00  0.00    +0.000 A 
ATOM      9  C   UNL     1       2.927   6.733  19.326  0.00  0.00    +0.000 A 
ATOM     10  C   UNL     1       2.151   6.892  20.475  0.00  0.00    +0.000 A 
ATOM     11  C   UNL     1       1.315   8.007  20.631  0.00  0.00    +0.000 A 
ATOM     12  C   UNL     1       0.542   8.143  21.795  0.00  0.00    +0.000 A 
ATOM     13  C   UNL     1      -0.305   9.235  21.973  0.00  0.00    +0.000 A 
ATOM     14  C   UNL     1      -0.393  10.206  20.984  0.00  0.00    +0.000 A 
ATOM     15  C   UNL     1       0.364  10.081  19.817  0.00  0.00    +0.000 A 
ATOM     16  C   UNL     1       1.241   8.987  19.609  0.00  0.00    +0.000 A 
ATOM     17  C   UNL     1       2.033   8.803  18.442  0.00  0.00    +0.000 A 
BRANCH  17  18
ATOM     18  O   UNL     1       1.946   9.682  17.391  0.00  0.00    +0.000 OA
ATOM     19  H   UNL     1       1.017   9.855  17.182  0.00  0.00    +0.000 HD
ENDBRANCH  17  18
ENDBRANCH   6   8
ENDBRANCH   5   6
ENDBRANCH   4   5
ENDBRANCH   2   4
BRANCH   2  20
ATOM     20  C   UNL     1       5.576   3.536  16.826  0.00  0.00    +0.000 C 
BRANCH  20  21
ATOM     21  C   UNL     1       4.282   3.573  17.621  0.00  0.00    +0.000 C 
ATOM     22  C   UNL     1       3.099   3.855  17.056  0.00  0.00    +0.000 C 
ATOM     23  C   UNL     1       1.817   3.825  17.787  0.00  0.00    +0.000 C 
ATOM     24  O   UNL     1       0.774   4.130  17.225  0.00  0.00    +0.000 OA
ATOM     25  C   UNL     1       1.845   3.407  19.202  0.00  0.00    +0.000 A 
ATOM     26  C   UNL     1       0.645   3.309  19.920  0.00  0.00    +0.000 A 
ATOM     27  C   UNL     1       0.663   2.910  21.257  0.00  0.00    +0.000 A 
ATOM     28  C   UNL     1       1.877   2.621  21.881  0.00  0.00    +0.000 A 
ATOM     29  C   UNL     1       3.073   2.722  21.164  0.00  0.00    +0.000 A 
ATOM     30  C   UNL     1       3.059   3.110  19.816  0.00  0.00    +0.000 A 
ATOM     31  C   UNL     1       4.329   3.173  19.059  0.00  0.00    +0.000 C 
ATOM     32  O   UNL     1       5.388   2.887  19.604  0.00  0.00    +0.000 OA
ENDBRANCH  20  21
ENDBRANCH   2  20
TORSDOF 7
ENDMDL
MODEL 7
REMARK VINA RESULT:      -8.3      1.409      6.668
REMARK  Name = 
REMARK  9 active torsions:
REMARK  status: ('A' for Active; 'I' for Inactive)
REMARK    1  A    between atoms: C_1  and  C_2
REMARK    2  A    between atoms: C_2  and  C_3
REMARK    3  A    between atoms: C_2  and  C_4
REMARK    4  A    between atoms: C_2  and  C_19
REMARK    5  A    between atoms: C_4  and  O_5
REMARK    6  A    between atoms: O_5  and  C_6
REMARK    7  A    between atoms: C_6  and  C_8
REMARK    8  A    between atoms: C_17  and  O_18
REMARK    9  A    between atoms: C_19  and  C_20
REMARK                            x       y       z     vdW  Elec       q    Type
REMARK                         _______ _______ _______ _____ _____    ______ ____
ROOT
ATOM      1  C   UNL     1       5.551   6.332  18.737  0.00  0.00    +0.000 C 
ATOM      2  C   UNL     1       5.524   6.908  17.302  0.00  0.00    +0.000 C 
ATOM      3  C   UNL     1       6.389   8.181  17.310  0.00  0.00    +0.000 C 
ENDROOT
BRANCH   2   4
ATOM      4  C   UNL     1       6.091   5.846  16.328  0.00  0.00    +0.000 C 
BRANCH   4   5
ATOM      5  O   UNL     1       5.058   5.008  15.783  0.00  0.00    +0.000 OA
BRANCH   5   6
ATOM      6  C   UNL     1       5.016   3.724  16.209  0.00  0.00    +0.000 C 
ATOM      7  O   UNL     1       5.785   2.831  15.887  0.00  0.00    +0.000 OA
BRANCH   6   8
ATOM      8  C   UNL     1       3.964   3.541  17.242  0.00  0.00    +0.000 A 
ATOM      9  C   UNL     1       2.638   3.709  16.833  0.00  0.00    +0.000 A 
ATOM     10  C   UNL     1       1.595   3.543  17.746  0.00  0.00    +0.000 A 
ATOM     11  C   UNL     1       1.855   3.209  19.082  0.00  0.00    +0.000 A 
ATOM     12  C   UNL     1       0.788   3.050  19.983  0.00  0.00    +0.000 A 
ATOM     13  C   UNL     1       1.017   2.728  21.320  0.00  0.00    +0.000 A 
ATOM     14  C   UNL     1       2.318   2.565  21.775  0.00  0.00    +0.000 A 
ATOM     15  C   UNL     1       3.390   2.728  20.894  0.00  0.00    +0.000 A 
ATOM     16  C   UNL     1       3.191   3.047  19.527  0.00  0.00    +0.000 A 
ATOM     17  C   UNL     1       4.240   3.228  18.584  0.00  0.00    +0.000 A 
BRANCH  17  18
ATOM     18  O   UNL     1       5.554   3.155  18.976  0.00  0.00    +0.000 OA
ATOM     19  H   UNL     1       5.727   3.804  19.673  0.00  0.00    +0.000 HD
ENDBRANCH  17  18
ENDBRANCH   6   8
ENDBRANCH   5   6
ENDBRANCH   4   5
ENDBRANCH   2   4
BRANCH   2  20
ATOM     20  C   UNL     1       4.044   7.238  16.929  0.00  0.00    +0.000 C 
BRANCH  20  21
ATOM     21  C   UNL     1       3.067   7.496  18.062  0.00  0.00    +0.000 C 
ATOM     22  C   UNL     1       2.911   6.642  19.085  0.00  0.00    +0.000 C 
ATOM     23  C   UNL     1       2.025   6.902  20.237  0.00  0.00    +0.000 C 
ATOM     24  O   UNL     1       1.895   6.066  21.122  0.00  0.00    +0.000 OA
ATOM     25  C   UNL     1       1.321   8.198  20.282  0.00  0.00    +0.000 A 
ATOM     26  C   UNL     1       0.515   8.512  21.384  0.00  0.00    +0.000 A 
ATOM     27  C   UNL     1      -0.150   9.737  21.435  0.00  0.00    +0.000 A 
ATOM     28  C   UNL     1      -0.021  10.644  20.384  0.00  0.00    +0.000 A 
ATOM     29  C   UNL     1       0.782  10.329  19.284  0.00  0.00    +0.000 A 
ATOM     30  C   UNL     1       1.463   9.103  19.233  0.00  0.00    +0.000 A 
ATOM     31  C   UNL     1       2.342   8.801  18.081  0.00  0.00    +0.000 C 
ATOM     32  O   UNL     1       2.476   9.615  17.176  0.00  0.00    +0.000 OA
ENDBRANCH  20  21
ENDBRANCH   2  20
TORSDOF 7
ENDMDL
MODEL 8
REMARK VINA RESULT:      -8.2      1.516      6.438
REMARK  Name = 
REMARK  9 active torsions:
REMARK  status: ('A' for Active; 'I' for Inactive)
REMARK    1  A    between atoms: C_1  and  C_2
REMARK    2  A    between atoms: C_2  and  C_3
REMARK    3  A    between atoms: C_2  and  C_4
REMARK    4  A    between atoms: C_2  and  C_19
REMARK    5  A    between atoms: C_4  and  O_5
REMARK    6  A    between atoms: O_5  and  C_6
REMARK    7  A    between atoms: C_6  and  C_8
REMARK    8  A    between atoms: C_17  and  O_18
REMARK    9  A    between atoms: C_19  and  C_20
REMARK                            x       y       z     vdW  Elec       q    Type
REMARK                         _______ _______ _______ _____ _____    ______ ____
ROOT
ATOM      1  C   UNL     1       1.573   2.770  18.274  0.00  0.00    +0.000 C 
ATOM      2  C   UNL     1       3.107   2.960  18.241  0.00  0.00    +0.000 C 
ATOM      3  C   UNL     1       3.739   1.572  18.456  0.00  0.00    +0.000 C 
ENDROOT
BRANCH   2   4
ATOM      4  C   UNL     1       3.506   3.556  16.869  0.00  0.00    +0.000 C 
BRANCH   4   5
ATOM      5  O   UNL     1       4.795   3.092  16.434  0.00  0.00    +0.000 OA
BRANCH   5   6
ATOM      6  C   UNL     1       5.538   3.942  15.687  0.00  0.00    +0.000 C 
ATOM      7  O   UNL     1       5.537   4.021  14.468  0.00  0.00    +0.000 OA
BRANCH   6   8
ATOM      8  C   UNL     1       6.294   4.884  16.551  0.00  0.00    +0.000 A 
ATOM      9  C   UNL     1       6.995   4.334  17.628  0.00  0.00    +0.000 A 
ATOM     10  C   UNL     1       7.736   5.156  18.477  0.00  0.00    +0.000 A 
ATOM     11  C   UNL     1       7.792   6.541  18.270  0.00  0.00    +0.000 A 
ATOM     12  C   UNL     1       8.544   7.348  19.140  0.00  0.00    +0.000 A 
ATOM     13  C   UNL     1       8.609   8.730  18.964  0.00  0.00    +0.000 A 
ATOM     14  C   UNL     1       7.919   9.323  17.915  0.00  0.00    +0.000 A 
ATOM     15  C   UNL     1       7.161   8.535  17.046  0.00  0.00    +0.000 A 
ATOM     16  C   UNL     1       7.080   7.127  17.193  0.00  0.00    +0.000 A 
ATOM     17  C   UNL     1       6.323   6.273  16.344  0.00  0.00    +0.000 A 
BRANCH  17  18
ATOM     18  O   UNL     1       5.557   6.795  15.330  0.00  0.00    +0.000 OA
ATOM     19  H   UNL     1       5.531   6.178  14.586  0.00  0.00    +0.000 HD
ENDBRANCH  17  18
ENDBRANCH   6   8
ENDBRANCH   5   6
ENDBRANCH   4   5
ENDBRANCH   2   4
BRANCH   2  20
ATOM     20  C   UNL     1       3.509   3.942  19.387  0.00  0.00    +0.000 C 
BRANCH  20  21
ATOM     21  C   UNL     1       3.094   5.397  19.253  0.00  0.00    +0.000 C 
ATOM     22  C   UNL     1       3.351   6.119  18.152  0.00  0.00    +0.000 C 
ATOM     23  C   UNL     1       2.895   7.511  17.964  0.00  0.00    +0.000 C 
ATOM     24  O   UNL     1       3.195   8.132  16.953  0.00  0.00    +0.000 OA
ATOM     25  C   UNL     1       2.064   8.109  19.026  0.00  0.00    +0.000 A 
ATOM     26  C   UNL     1       1.560   9.406  18.865  0.00  0.00    +0.000 A 
ATOM     27  C   UNL     1       0.770   9.977  19.864  0.00  0.00    +0.000 A 
ATOM     28  C   UNL     1       0.492   9.259  21.027  0.00  0.00    +0.000 A 
ATOM     29  C   UNL     1       0.997   7.966  21.188  0.00  0.00    +0.000 A 
ATOM     30  C   UNL     1       1.781   7.383  20.181  0.00  0.00    +0.000 A 
ATOM     31  C   UNL     1       2.275   5.997  20.348  0.00  0.00    +0.000 C 
ATOM     32  O   UNL     1       2.000   5.361  21.358  0.00  0.00    +0.000 OA
ENDBRANCH  20  21
ENDBRANCH   2  20
TORSDOF 7
ENDMDL
MODEL 9
REMARK VINA RESULT:      -8.2      2.822      8.622
REMARK  Name = 
REMARK  9 active torsions:
REMARK  status: ('A' for Active; 'I' for Inactive)
REMARK    1  A    between atoms: C_1  and  C_2
REMARK    2  A    between atoms: C_2  and  C_3
REMARK    3  A    between atoms: C_2  and  C_4
REMARK    4  A    between atoms: C_2  and  C_19
REMARK    5  A    between atoms: C_4  and  O_5
REMARK    6  A    between atoms: O_5  and  C_6
REMARK    7  A    between atoms: C_6  and  C_8
REMARK    8  A    between atoms: C_17  and  O_18
REMARK    9  A    between atoms: C_19  and  C_20
REMARK                            x       y       z     vdW  Elec       q    Type
REMARK                         _______ _______ _______ _____ _____    ______ ____
ROOT
ATOM      1  C   UNL     1      -0.834   8.344  21.336  0.00  0.00    +0.000 C 
ATOM      2  C   UNL     1       0.360   9.255  21.706  0.00  0.00    +0.000 C 
ATOM      3  C   UNL     1       0.100   9.786  23.128  0.00  0.00    +0.000 C 
ENDROOT
BRANCH   2   4
ATOM      4  C   UNL     1       1.661   8.419  21.644  0.00  0.00    +0.000 C 
BRANCH   4   5
ATOM      5  O   UNL     1       1.981   8.017  20.302  0.00  0.00    +0.000 OA
BRANCH   5   6
ATOM      6  C   UNL     1       2.122   6.690  20.071  0.00  0.00    +0.000 C 
ATOM      7  O   UNL     1       1.562   5.789  20.677  0.00  0.00    +0.000 OA
BRANCH   6   8
ATOM      8  C   UNL     1       2.971   6.447  18.876  0.00  0.00    +0.000 A 
ATOM      9  C   UNL     1       3.212   7.539  18.037  0.00  0.00    +0.000 A 
ATOM     10  C   UNL     1       4.010   7.389  16.902  0.00  0.00    +0.000 A 
ATOM     11  C   UNL     1       4.579   6.149  16.581  0.00  0.00    +0.000 A 
ATOM     12  C   UNL     1       5.377   6.023  15.431  0.00  0.00    +0.000 A 
ATOM     13  C   UNL     1       5.948   4.800  15.082  0.00  0.00    +0.000 A 
ATOM     14  C   UNL     1       5.725   3.685  15.879  0.00  0.00    +0.000 A 
ATOM     15  C   UNL     1       4.928   3.792  17.021  0.00  0.00    +0.000 A 
ATOM     16  C   UNL     1       4.340   5.022  17.408  0.00  0.00    +0.000 A 
ATOM     17  C   UNL     1       3.518   5.193  18.556  0.00  0.00    +0.000 A 
BRANCH  17  18
ATOM     18  O   UNL     1       3.193   4.121  19.350  0.00  0.00    +0.000 OA
ATOM     19  H   UNL     1       3.436   4.306  20.269  0.00  0.00    +0.000 HD
ENDBRANCH  17  18
ENDBRANCH   6   8
ENDBRANCH   5   6
ENDBRANCH   4   5
ENDBRANCH   2   4
BRANCH   2  20
ATOM     20  C   UNL     1       0.429  10.425  20.674  0.00  0.00    +0.000 C 
BRANCH  20  21
ATOM     21  C   UNL     1      -0.810  10.714  19.844  0.00  0.00    +0.000 C 
ATOM     22  C   UNL     1      -1.776  11.546  20.260  0.00  0.00    +0.000 C 
ATOM     23  C   UNL     1      -2.953  11.903  19.444  0.00  0.00    +0.000 C 
ATOM     24  O   UNL     1      -3.822  12.638  19.894  0.00  0.00    +0.000 OA
ATOM     25  C   UNL     1      -3.032  11.352  18.078  0.00  0.00    +0.000 A 
ATOM     26  C   UNL     1      -4.102  11.709  17.246  0.00  0.00    +0.000 A 
ATOM     27  C   UNL     1      -4.181  11.196  15.951  0.00  0.00    +0.000 A 
ATOM     28  C   UNL     1      -3.201  10.317  15.490  0.00  0.00    +0.000 A 
ATOM     29  C   UNL     1      -2.135   9.960  16.321  0.00  0.00    +0.000 A 
ATOM     30  C   UNL     1      -2.044  10.484  17.619  0.00  0.00    +0.000 A 
ATOM     31  C   UNL     1      -0.889  10.128  18.473  0.00  0.00    +0.000 C 
ATOM     32  O   UNL     1      -0.015   9.382  18.050  0.00  0.00    +0.000 OA
ENDBRANCH  20  21
ENDBRANCH   2  20
TORSDOF 7
ENDMDL
