MODEL 1
REMARK VINA RESULT:      -7.6      0.000      0.000
REMARK  Name = 
REMARK  10 active torsions:
REMARK  status: ('A' for Active; 'I' for Inactive)
REMARK    1  A    between atoms: C_1  and  C_2
REMARK    2  A    between atoms: C_2  and  C_3
REMARK    3  A    between atoms: C_6  and  C_7
REMARK    4  A    between atoms: C_7  and  O_8
REMARK    5  A    between atoms: C_9  and  C_10
REMARK    6  A    between atoms: C_13  and  C_14
REMARK    7  A    between atoms: C_21  and  C_22
REMARK    8  A    between atoms: C_22  and  N_23
REMARK    9  A    between atoms: N_23  and  C_24
REMARK   10  A    between atoms: C_24  and  C_25
REMARK                            x       y       z     vdW  Elec       q    Type
REMARK                         _______ _______ _______ _____ _____    ______ ____
ROOT
ATOM      1  C   UNL     1       2.315   3.616  17.946  0.00  0.00    +0.000 C 
ATOM      2  O   UNL     1       1.107   3.386  17.914  0.00  0.00    +0.000 OA
ATOM      3  N   UNL     1       2.949   4.142  19.049  0.00  0.00    +0.000 N 
ATOM      4  C   UNL     1       2.426   4.524  20.371  0.00  0.00    +0.000 C 
ATOM      5  C   UNL     1       3.152   5.885  20.183  0.00  0.00    +0.000 C 
ATOM      6  C   UNL     1       3.979   5.201  19.056  0.00  0.00    +0.000 C 
ENDROOT
BRANCH   5   7
ATOM      7  C   UNL     1       2.341   7.195  19.773  0.00  0.00    +0.000 A 
ATOM      8  C   UNL     1       1.624   7.950  20.714  0.00  0.00    +0.000 A 
ATOM      9  C   UNL     1       0.860   9.063  20.344  0.00  0.00    +0.000 A 
ATOM     10  C   UNL     1       0.799   9.480  19.009  0.00  0.00    +0.000 A 
ATOM     11  C   UNL     1       1.529   8.762  18.063  0.00  0.00    +0.000 A 
ATOM     12  C   UNL     1       2.292   7.657  18.445  0.00  0.00    +0.000 A 
BRANCH  10  13
ATOM     13  C   UNL     1      -0.049  10.605  18.596  0.00  0.00    +0.000 C 
ATOM     14  C   UNL     1      -1.255  10.510  18.022  0.00  0.00    +0.000 C 
ATOM     15  C   UNL     1      -1.831  11.845  17.694  0.00  0.00    +0.000 C 
ATOM     16  C   UNL     1      -0.884  12.817  18.392  0.00  0.00    +0.000 C 
ATOM     17  C   UNL     1       0.375  12.031  18.749  0.00  0.00    +0.000 C 
ENDBRANCH  10  13
ENDBRANCH   5   7
BRANCH   1  19
ATOM     18  C   UNL     1       4.155   2.105  17.063  0.00  0.00    +0.000 C 
ATOM     19  C   UNL     1       3.242   3.288  16.790  0.00  0.00    +0.000 C 
ENDBRANCH   1  19
BRANCH   4  20
ATOM     20  C   UNL     1       0.938   4.350  20.660  0.00  0.00    +0.000 C 
BRANCH  20  21
ATOM     21  O   UNL     1       0.548   3.004  20.877  0.00  0.00    +0.000 OA
ATOM     22  H   UNL     1       1.044   2.709  21.674  0.00  0.00    +0.000 HD
ENDBRANCH  20  21
ENDBRANCH   4  20
BRANCH   6  23
ATOM     23  C   UNL     1       5.383   4.696  19.411  0.00  0.00    +0.000 C 
BRANCH  23  24
ATOM     24  N   UNL     1       6.382   5.600  18.840  0.00  0.00    +0.000 NA
ATOM     25  H   UNL     1       6.887   6.074  19.591  0.00  0.00    +0.000 HD
BRANCH  24  26
ATOM     26  C   UNL     1       7.347   4.910  17.988  0.00  0.00    +0.000 C 
BRANCH  26  27
ATOM     27  C   UNL     1       7.047   5.248  16.525  0.00  0.00    +0.000 C 
ATOM     28  C   UNL     1       6.754   4.011  15.684  0.00  0.00    +0.000 C 
ATOM     29  C   UNL     1       6.076   4.572  14.439  0.00  0.00    +0.000 C 
ATOM     30  C   UNL     1       5.363   5.847  14.887  0.00  0.00    +0.000 C 
ATOM     31  C   UNL     1       5.787   6.094  16.331  0.00  0.00    +0.000 C 
ENDBRANCH  26  27
ENDBRANCH  24  26
ENDBRANCH  23  24
ENDBRANCH   6  23
TORSDOF 9
ENDMDL
MODEL 2
REMARK VINA RESULT:      -7.5      0.290      1.181
REMARK  Name = 
REMARK  10 active torsions:
REMARK  status: ('A' for Active; 'I' for Inactive)
REMARK    1  A    between atoms: C_1  and  C_2
REMARK    2  A    between atoms: C_2  and  C_3
REMARK    3  A    between atoms: C_6  and  C_7
REMARK    4  A    between atoms: C_7  and  O_8
REMARK    5  A    between atoms: C_9  and  C_10
REMARK    6  A    between atoms: C_13  and  C_14
REMARK    7  A    between atoms: C_21  and  C_22
REMARK    8  A    between atoms: C_22  and  N_23
REMARK    9  A    between atoms: N_23  and  C_24
REMARK   10  A    between atoms: C_24  and  C_25
REMARK                            x       y       z     vdW  Elec       q    Type
REMARK                         _______ _______ _______ _____ _____    ______ ____
ROOT
ATOM      1  C   UNL     1       2.322   3.566  17.918  0.00  0.00    +0.000 C 
ATOM      2  O   UNL     1       1.116   3.327  17.887  0.00  0.00    +0.000 OA
ATOM      3  N   UNL     1       2.954   4.089  19.024  0.00  0.00    +0.000 N 
ATOM      4  C   UNL     1       2.431   4.457  20.350  0.00  0.00    +0.000 C 
ATOM      5  C   UNL     1       3.147   5.825  20.171  0.00  0.00    +0.000 C 
ATOM      6  C   UNL     1       3.976   5.155  19.037  0.00  0.00    +0.000 C 
ENDROOT
BRANCH   5   7
ATOM      7  C   UNL     1       2.325   7.131  19.772  0.00  0.00    +0.000 A 
ATOM      8  C   UNL     1       2.290   7.614  18.454  0.00  0.00    +0.000 A 
ATOM      9  C   UNL     1       1.622   8.795  18.114  0.00  0.00    +0.000 A 
ATOM     10  C   UNL     1       0.938   9.537  19.086  0.00  0.00    +0.000 A 
ATOM     11  C   UNL     1       0.933   9.059  20.395  0.00  0.00    +0.000 A 
ATOM     12  C   UNL     1       1.600   7.875  20.720  0.00  0.00    +0.000 A 
BRANCH  10  13
ATOM     13  C   UNL     1       0.287  10.811  18.757  0.00  0.00    +0.000 C 
ATOM     14  C   UNL     1       0.853  12.023  18.824  0.00  0.00    +0.000 C 
ATOM     15  C   UNL     1      -0.097  13.112  18.459  0.00  0.00    +0.000 C 
ATOM     16  C   UNL     1      -1.300  12.356  17.903  0.00  0.00    +0.000 C 
ATOM     17  C   UNL     1      -1.143  10.897  18.329  0.00  0.00    +0.000 C 
ENDBRANCH  10  13
ENDBRANCH   5   7
BRANCH   1  19
ATOM     18  C   UNL     1       4.202   2.103  17.038  0.00  0.00    +0.000 C 
ATOM     19  C   UNL     1       3.250   3.253  16.759  0.00  0.00    +0.000 C 
ENDBRANCH   1  19
BRANCH   4  20
ATOM     20  C   UNL     1       0.945   4.270  20.641  0.00  0.00    +0.000 C 
BRANCH  20  21
ATOM     21  O   UNL     1       0.559   2.916  20.809  0.00  0.00    +0.000 OA
ATOM     22  H   UNL     1      -0.259   2.805  20.272  0.00  0.00    +0.000 HD
ENDBRANCH  20  21
ENDBRANCH   4  20
BRANCH   6  23
ATOM     23  C   UNL     1       5.385   4.658  19.385  0.00  0.00    +0.000 C 
BRANCH  23  24
ATOM     24  N   UNL     1       6.368   5.664  18.981  0.00  0.00    +0.000 NA
ATOM     25  H   UNL     1       6.792   6.084  19.810  0.00  0.00    +0.000 HD
BRANCH  24  26
ATOM     26  C   UNL     1       7.427   5.113  18.141  0.00  0.00    +0.000 C 
BRANCH  26  27
ATOM     27  C   UNL     1       7.106   5.418  16.675  0.00  0.00    +0.000 C 
ATOM     28  C   UNL     1       6.793   4.163  15.867  0.00  0.00    +0.000 C 
ATOM     29  C   UNL     1       6.098   4.698  14.620  0.00  0.00    +0.000 C 
ATOM     30  C   UNL     1       5.400   5.987  15.049  0.00  0.00    +0.000 C 
ATOM     31  C   UNL     1       5.848   6.266  16.481  0.00  0.00    +0.000 C 
ENDBRANCH  26  27
ENDBRANCH  24  26
ENDBRANCH  23  24
ENDBRANCH   6  23
TORSDOF 9
ENDMDL
MODEL 3
REMARK VINA RESULT:      -7.0      2.677      4.982
REMARK  Name = 
REMARK  10 active torsions:
REMARK  status: ('A' for Active; 'I' for Inactive)
REMARK    1  A    between atoms: C_1  and  C_2
REMARK    2  A    between atoms: C_2  and  C_3
REMARK    3  A    between atoms: C_6  and  C_7
REMARK    4  A    between atoms: C_7  and  O_8
REMARK    5  A    between atoms: C_9  and  C_10
REMARK    6  A    between atoms: C_13  and  C_14
REMARK    7  A    between atoms: C_21  and  C_22
REMARK    8  A    between atoms: C_22  and  N_23
REMARK    9  A    between atoms: N_23  and  C_24
REMARK   10  A    between atoms: C_24  and  C_25
REMARK                            x       y       z     vdW  Elec       q    Type
REMARK                         _______ _______ _______ _____ _____    ______ ____
ROOT
ATOM      1  C   UNL     1       6.981   6.001  17.843  0.00  0.00    +0.000 C 
ATOM      2  O   UNL     1       7.295   7.153  17.548  0.00  0.00    +0.000 OA
ATOM      3  N   UNL     1       5.857   5.380  17.345  0.00  0.00    +0.000 N 
ATOM      4  C   UNL     1       4.829   5.856  16.405  0.00  0.00    +0.000 C 
ATOM      5  C   UNL     1       3.770   5.381  17.439  0.00  0.00    +0.000 C 
ATOM      6  C   UNL     1       4.902   4.542  18.098  0.00  0.00    +0.000 C 
ENDROOT
BRANCH   5   7
ATOM      7  C   UNL     1       3.021   6.427  18.381  0.00  0.00    +0.000 A 
ATOM      8  C   UNL     1       2.838   6.193  19.753  0.00  0.00    +0.000 A 
ATOM      9  C   UNL     1       2.126   7.079  20.568  0.00  0.00    +0.000 A 
ATOM     10  C   UNL     1       1.581   8.258  20.042  0.00  0.00    +0.000 A 
ATOM     11  C   UNL     1       1.779   8.525  18.689  0.00  0.00    +0.000 A 
ATOM     12  C   UNL     1       2.497   7.635  17.887  0.00  0.00    +0.000 A 
BRANCH  10  13
ATOM     13  C   UNL     1       0.778   9.165  20.869  0.00  0.00    +0.000 C 
ATOM     14  C   UNL     1       0.337   8.915  22.109  0.00  0.00    +0.000 C 
ATOM     15  C   UNL     1      -0.485  10.033  22.653  0.00  0.00    +0.000 C 
ATOM     16  C   UNL     1      -0.280  11.149  21.633  0.00  0.00    +0.000 C 
ATOM     17  C   UNL     1       0.320  10.504  20.385  0.00  0.00    +0.000 C 
ENDBRANCH  10  13
ENDBRANCH   5   7
BRANCH   1  19
ATOM     18  C   UNL     1       8.212   5.788  20.054  0.00  0.00    +0.000 C 
ATOM     19  C   UNL     1       7.833   5.124  18.742  0.00  0.00    +0.000 C 
ENDBRANCH   1  19
BRANCH   4  20
ATOM     20  C   UNL     1       4.937   7.268  15.838  0.00  0.00    +0.000 C 
BRANCH  20  21
ATOM     21  O   UNL     1       4.819   7.331  14.426  0.00  0.00    +0.000 OA
ATOM     22  H   UNL     1       5.200   8.200  14.166  0.00  0.00    +0.000 HD
ENDBRANCH  20  21
ENDBRANCH   4  20
BRANCH   6  23
ATOM     23  C   UNL     1       4.978   3.051  17.748  0.00  0.00    +0.000 C 
BRANCH  23  24
ATOM     24  N   UNL     1       4.444   2.263  18.860  0.00  0.00    +0.000 NA
ATOM     25  H   UNL     1       4.265   2.873  19.659  0.00  0.00    +0.000 HD
BRANCH  24  26
ATOM     26  C   UNL     1       3.208   1.565  18.515  0.00  0.00    +0.000 C 
BRANCH  26  27
ATOM     27  C   UNL     1       2.119   1.962  19.517  0.00  0.00    +0.000 C 
ATOM     28  C   UNL     1       2.684   2.620  20.770  0.00  0.00    +0.000 C 
ATOM     29  C   UNL     1       1.475   3.307  21.395  0.00  0.00    +0.000 C 
ATOM     30  C   UNL     1       0.547   3.661  20.235  0.00  0.00    +0.000 C 
ATOM     31  C   UNL     1       1.149   3.019  18.989  0.00  0.00    +0.000 C 
ENDBRANCH  26  27
ENDBRANCH  24  26
ENDBRANCH  23  24
ENDBRANCH   6  23
TORSDOF 9
ENDMDL
MODEL 4
REMARK VINA RESULT:      -6.9      1.075      1.905
REMARK  Name = 
REMARK  10 active torsions:
REMARK  status: ('A' for Active; 'I' for Inactive)
REMARK    1  A    between atoms: C_1  and  C_2
REMARK    2  A    between atoms: C_2  and  C_3
REMARK    3  A    between atoms: C_6  and  C_7
REMARK    4  A    between atoms: C_7  and  O_8
REMARK    5  A    between atoms: C_9  and  C_10
REMARK    6  A    between atoms: C_13  and  C_14
REMARK    7  A    between atoms: C_21  and  C_22
REMARK    8  A    between atoms: C_22  and  N_23
REMARK    9  A    between atoms: N_23  and  C_24
REMARK   10  A    between atoms: C_24  and  C_25
REMARK                            x       y       z     vdW  Elec       q    Type
REMARK                         _______ _______ _______ _____ _____    ______ ____
ROOT
ATOM      1  C   UNL     1       2.234   3.528  17.954  0.00  0.00    +0.000 C 
ATOM      2  O   UNL     1       1.023   3.320  17.914  0.00  0.00    +0.000 OA
ATOM      3  N   UNL     1       2.869   4.044  19.062  0.00  0.00    +0.000 N 
ATOM      4  C   UNL     1       2.344   4.437  20.380  0.00  0.00    +0.000 C 
ATOM      5  C   UNL     1       3.096   5.785  20.196  0.00  0.00    +0.000 C 
ATOM      6  C   UNL     1       3.918   5.084  19.076  0.00  0.00    +0.000 C 
ENDROOT
BRANCH   5   7
ATOM      7  C   UNL     1       2.311   7.108  19.778  0.00  0.00    +0.000 A 
ATOM      8  C   UNL     1       1.700   7.941  20.728  0.00  0.00    +0.000 A 
ATOM      9  C   UNL     1       0.958   9.068  20.358  0.00  0.00    +0.000 A 
ATOM     10  C   UNL     1       0.813   9.421  19.010  0.00  0.00    +0.000 A 
ATOM     11  C   UNL     1       1.438   8.625  18.052  0.00  0.00    +0.000 A 
ATOM     12  C   UNL     1       2.181   7.506  18.435  0.00  0.00    +0.000 A 
BRANCH  10  13
ATOM     13  C   UNL     1      -0.016  10.561  18.603  0.00  0.00    +0.000 C 
ATOM     14  C   UNL     1       0.256  11.852  18.834  0.00  0.00    +0.000 C 
ATOM     15  C   UNL     1      -0.812  12.756  18.322  0.00  0.00    +0.000 C 
ATOM     16  C   UNL     1      -1.695  11.824  17.497  0.00  0.00    +0.000 C 
ATOM     17  C   UNL     1      -1.319  10.396  17.888  0.00  0.00    +0.000 C 
ENDBRANCH  10  13
ENDBRANCH   5   7
BRANCH   1  19
ATOM     18  C   UNL     1       4.029   1.963  17.074  0.00  0.00    +0.000 C 
ATOM     19  C   UNL     1       3.165   3.182  16.806  0.00  0.00    +0.000 C 
ENDBRANCH   1  19
BRANCH   4  20
ATOM     20  C   UNL     1       0.851   4.290  20.658  0.00  0.00    +0.000 C 
BRANCH  20  21
ATOM     21  O   UNL     1       0.438   2.954  20.893  0.00  0.00    +0.000 OA
ATOM     22  H   UNL     1      -0.540   2.955  20.783  0.00  0.00    +0.000 HD
ENDBRANCH  20  21
ENDBRANCH   4  20
BRANCH   6  23
ATOM     23  C   UNL     1       5.310   4.555  19.442  0.00  0.00    +0.000 C 
BRANCH  23  24
ATOM     24  N   UNL     1       6.070   4.301  18.217  0.00  0.00    +0.000 NA
ATOM     25  H   UNL     1       5.805   3.394  17.829  0.00  0.00    +0.000 HD
BRANCH  24  26
ATOM     26  C   UNL     1       5.862   5.327  17.199  0.00  0.00    +0.000 C 
BRANCH  26  27
ATOM     27  C   UNL     1       7.015   6.333  17.267  0.00  0.00    +0.000 C 
ATOM     28  C   UNL     1       6.540   7.779  17.183  0.00  0.00    +0.000 C 
ATOM     29  C   UNL     1       7.730   8.582  17.695  0.00  0.00    +0.000 C 
ATOM     30  C   UNL     1       8.458   7.671  18.682  0.00  0.00    +0.000 C 
ATOM     31  C   UNL     1       7.783   6.306  18.589  0.00  0.00    +0.000 C 
ENDBRANCH  26  27
ENDBRANCH  24  26
ENDBRANCH  23  24
ENDBRANCH   6  23
TORSDOF 9
ENDMDL
MODEL 5
REMARK VINA RESULT:      -6.8      2.539      4.776
REMARK  Name = 
REMARK  10 active torsions:
REMARK  status: ('A' for Active; 'I' for Inactive)
REMARK    1  A    between atoms: C_1  and  C_2
REMARK    2  A    between atoms: C_2  and  C_3
REMARK    3  A    between atoms: C_6  and  C_7
REMARK    4  A    between atoms: C_7  and  O_8
REMARK    5  A    between atoms: C_9  and  C_10
REMARK    6  A    between atoms: C_13  and  C_14
REMARK    7  A    between atoms: C_21  and  C_22
REMARK    8  A    between atoms: C_22  and  N_23
REMARK    9  A    between atoms: N_23  and  C_24
REMARK   10  A    between atoms: C_24  and  C_25
REMARK                            x       y       z     vdW  Elec       q    Type
REMARK                         _______ _______ _______ _____ _____    ______ ____
ROOT
ATOM      1  C   UNL     1       7.118   6.929  17.652  0.00  0.00    +0.000 C 
ATOM      2  O   UNL     1       7.140   7.734  16.724  0.00  0.00    +0.000 OA
ATOM      3  N   UNL     1       6.185   5.921  17.748  0.00  0.00    +0.000 N 
ATOM      4  C   UNL     1       5.076   5.545  16.855  0.00  0.00    +0.000 C 
ATOM      5  C   UNL     1       4.161   5.549  18.112  0.00  0.00    +0.000 C 
ATOM      6  C   UNL     1       5.462   5.496  18.964  0.00  0.00    +0.000 C 
ENDROOT
BRANCH   5   7
ATOM      7  C   UNL     1       3.173   6.767  18.401  0.00  0.00    +0.000 A 
ATOM      8  C   UNL     1       2.961   7.790  17.464  0.00  0.00    +0.000 A 
ATOM      9  C   UNL     1       2.144   8.891  17.741  0.00  0.00    +0.000 A 
ATOM     10  C   UNL     1       1.484   9.004  18.971  0.00  0.00    +0.000 A 
ATOM     11  C   UNL     1       1.656   7.983  19.904  0.00  0.00    +0.000 A 
ATOM     12  C   UNL     1       2.470   6.885  19.613  0.00  0.00    +0.000 A 
BRANCH  10  13
ATOM     13  C   UNL     1       0.676  10.183  19.300  0.00  0.00    +0.000 C 
ATOM     14  C   UNL     1      -0.525  10.172  19.893  0.00  0.00    +0.000 C 
ATOM     15  C   UNL     1      -1.092  11.542  20.048  0.00  0.00    +0.000 C 
ATOM     16  C   UNL     1       0.077  12.450  19.675  0.00  0.00    +0.000 C 
ATOM     17  C   UNL     1       1.109  11.575  18.966  0.00  0.00    +0.000 C 
ENDBRANCH  10  13
ENDBRANCH   5   7
BRANCH   1  19
ATOM     18  C   UNL     1       8.774   8.290  19.014  0.00  0.00    +0.000 C 
ATOM     19  C   UNL     1       8.155   6.926  18.760  0.00  0.00    +0.000 C 
ENDBRANCH   1  19
BRANCH   4  20
ATOM     20  C   UNL     1       4.835   6.358  15.587  0.00  0.00    +0.000 C 
BRANCH  20  21
ATOM     21  O   UNL     1       5.780   6.111  14.558  0.00  0.00    +0.000 OA
ATOM     22  H   UNL     1       6.663   6.180  14.987  0.00  0.00    +0.000 HD
ENDBRANCH  20  21
ENDBRANCH   4  20
BRANCH   6  23
ATOM     23  C   UNL     1       5.905   4.130  19.502  0.00  0.00    +0.000 C 
BRANCH  23  24
ATOM     24  N   UNL     1       4.938   3.110  19.094  0.00  0.00    +0.000 NA
ATOM     25  H   UNL     1       5.366   2.485  18.409  0.00  0.00    +0.000 HD
BRANCH  24  26
ATOM     26  C   UNL     1       4.448   2.315  20.216  0.00  0.00    +0.000 C 
BRANCH  26  27
ATOM     27  C   UNL     1       2.917   2.367  20.229  0.00  0.00    +0.000 C 
ATOM     28  C   UNL     1       2.377   3.610  20.928  0.00  0.00    +0.000 C 
ATOM     29  C   UNL     1       0.929   3.689  20.459  0.00  0.00    +0.000 C 
ATOM     30  C   UNL     1       0.902   3.054  19.070  0.00  0.00    +0.000 C 
ATOM     31  C   UNL     1       2.289   2.464  18.838  0.00  0.00    +0.000 C 
ENDBRANCH  26  27
ENDBRANCH  24  26
ENDBRANCH  23  24
ENDBRANCH   6  23
TORSDOF 9
ENDMDL
MODEL 6
REMARK VINA RESULT:      -6.8      2.736      4.953
REMARK  Name = 
REMARK  10 active torsions:
REMARK  status: ('A' for Active; 'I' for Inactive)
REMARK    1  A    between atoms: C_1  and  C_2
REMARK    2  A    between atoms: C_2  and  C_3
REMARK    3  A    between atoms: C_6  and  C_7
REMARK    4  A    between atoms: C_7  and  O_8
REMARK    5  A    between atoms: C_9  and  C_10
REMARK    6  A    between atoms: C_13  and  C_14
REMARK    7  A    between atoms: C_21  and  C_22
REMARK    8  A    between atoms: C_22  and  N_23
REMARK    9  A    between atoms: N_23  and  C_24
REMARK   10  A    between atoms: C_24  and  C_25
REMARK                            x       y       z     vdW  Elec       q    Type
REMARK                         _______ _______ _______ _____ _____    ______ ____
ROOT
ATOM      1  C   UNL     1       6.820   6.392  17.973  0.00  0.00    +0.000 C 
ATOM      2  O   UNL     1       7.043   7.543  17.604  0.00  0.00    +0.000 OA
ATOM      3  N   UNL     1       5.756   5.650  17.511  0.00  0.00    +0.000 N 
ATOM      4  C   UNL     1       4.702   5.977  16.537  0.00  0.00    +0.000 C 
ATOM      5  C   UNL     1       3.674   5.487  17.595  0.00  0.00    +0.000 C 
ATOM      6  C   UNL     1       4.864   4.788  18.314  0.00  0.00    +0.000 C 
ENDROOT
BRANCH   5   7
ATOM      7  C   UNL     1       2.834   6.528  18.462  0.00  0.00    +0.000 A 
ATOM      8  C   UNL     1       2.334   7.719  17.914  0.00  0.00    +0.000 A 
ATOM      9  C   UNL     1       1.652   8.663  18.689  0.00  0.00    +0.000 A 
ATOM     10  C   UNL     1       1.422   8.440  20.053  0.00  0.00    +0.000 A 
ATOM     11  C   UNL     1       1.882   7.249  20.610  0.00  0.00    +0.000 A 
ATOM     12  C   UNL     1       2.557   6.312  19.824  0.00  0.00    +0.000 A 
BRANCH  10  13
ATOM     13  C   UNL     1       0.765   9.449  20.892  0.00  0.00    +0.000 C 
ATOM     14  C   UNL     1       0.498  10.713  20.539  0.00  0.00    +0.000 C 
ATOM     15  C   UNL     1      -0.142  11.485  21.641  0.00  0.00    +0.000 C 
ATOM     16  C   UNL     1      -0.467  10.413  22.678  0.00  0.00    +0.000 C 
ATOM     17  C   UNL     1       0.337   9.171  22.298  0.00  0.00    +0.000 C 
ENDBRANCH  10  13
ENDBRANCH   5   7
BRANCH   1  19
ATOM     18  C   UNL     1       8.436   4.460  18.300  0.00  0.00    +0.000 C 
ATOM     19  C   UNL     1       7.731   5.647  18.932  0.00  0.00    +0.000 C 
ENDBRANCH   1  19
BRANCH   4  20
ATOM     20  C   UNL     1       4.701   7.353  15.878  0.00  0.00    +0.000 C 
BRANCH  20  21
ATOM     21  O   UNL     1       4.901   7.318  14.474  0.00  0.00    +0.000 OA
ATOM     22  H   UNL     1       4.016   7.131  14.085  0.00  0.00    +0.000 HD
ENDBRANCH  20  21
ENDBRANCH   4  20
BRANCH   6  23
ATOM     23  C   UNL     1       5.064   3.288  18.064  0.00  0.00    +0.000 C 
BRANCH  23  24
ATOM     24  N   UNL     1       4.708   2.542  19.272  0.00  0.00    +0.000 NA
ATOM     25  H   UNL     1       4.355   3.186  19.981  0.00  0.00    +0.000 HD
BRANCH  24  26
ATOM     26  C   UNL     1       3.700   1.515  19.025  0.00  0.00    +0.000 C 
BRANCH  26  27
ATOM     27  C   UNL     1       2.429   1.871  19.801  0.00  0.00    +0.000 C 
ATOM     28  C   UNL     1       2.710   2.732  21.028  0.00  0.00    +0.000 C 
ATOM     29  C   UNL     1       1.347   3.317  21.381  0.00  0.00    +0.000 C 
ATOM     30  C   UNL     1       0.579   3.417  20.064  0.00  0.00    +0.000 C 
ATOM     31  C   UNL     1       1.439   2.727  19.009  0.00  0.00    +0.000 C 
ENDBRANCH  26  27
ENDBRANCH  24  26
ENDBRANCH  23  24
ENDBRANCH   6  23
TORSDOF 9
ENDMDL
MODEL 7
REMARK VINA RESULT:      -6.7      1.005      1.791
REMARK  Name = 
REMARK  10 active torsions:
REMARK  status: ('A' for Active; 'I' for Inactive)
REMARK    1  A    between atoms: C_1  and  C_2
REMARK    2  A    between atoms: C_2  and  C_3
REMARK    3  A    between atoms: C_6  and  C_7
REMARK    4  A    between atoms: C_7  and  O_8
REMARK    5  A    between atoms: C_9  and  C_10
REMARK    6  A    between atoms: C_13  and  C_14
REMARK    7  A    between atoms: C_21  and  C_22
REMARK    8  A    between atoms: C_22  and  N_23
REMARK    9  A    between atoms: N_23  and  C_24
REMARK   10  A    between atoms: C_24  and  C_25
REMARK                            x       y       z     vdW  Elec       q    Type
REMARK                         _______ _______ _______ _____ _____    ______ ____
ROOT
ATOM      1  C   UNL     1       2.226   3.384  18.406  0.00  0.00    +0.000 C 
ATOM      2  O   UNL     1       1.155   3.131  18.955  0.00  0.00    +0.000 OA
ATOM      3  N   UNL     1       3.202   4.160  18.988  0.00  0.00    +0.000 N 
ATOM      4  C   UNL     1       3.250   4.826  20.300  0.00  0.00    +0.000 C 
ATOM      5  C   UNL     1       3.665   6.120  19.545  0.00  0.00    +0.000 C 
ATOM      6  C   UNL     1       4.008   5.210  18.331  0.00  0.00    +0.000 C 
ENDROOT
BRANCH   5   7
ATOM      7  C   UNL     1       2.610   7.286  19.282  0.00  0.00    +0.000 A 
ATOM      8  C   UNL     1       2.385   7.809  17.999  0.00  0.00    +0.000 A 
ATOM      9  C   UNL     1       1.506   8.875  17.777  0.00  0.00    +0.000 A 
ATOM     10  C   UNL     1       0.796   9.453  18.837  0.00  0.00    +0.000 A 
ATOM     11  C   UNL     1       0.981   8.928  20.114  0.00  0.00    +0.000 A 
ATOM     12  C   UNL     1       1.856   7.860  20.322  0.00  0.00    +0.000 A 
BRANCH  10  13
ATOM     13  C   UNL     1      -0.079  10.613  18.629  0.00  0.00    +0.000 C 
ATOM     14  C   UNL     1       0.263  11.896  18.802  0.00  0.00    +0.000 C 
ATOM     15  C   UNL     1      -0.875  12.824  18.544  0.00  0.00    +0.000 C 
ATOM     16  C   UNL     1      -1.935  11.916  17.928  0.00  0.00    +0.000 C 
ATOM     17  C   UNL     1      -1.511  10.478  18.218  0.00  0.00    +0.000 C 
ENDBRANCH  10  13
ENDBRANCH   5   7
BRANCH   1  19
ATOM     18  C   UNL     1       3.716   1.781  17.118  0.00  0.00    +0.000 C 
ATOM     19  C   UNL     1       2.606   2.814  17.051  0.00  0.00    +0.000 C 
ENDBRANCH   1  19
BRANCH   4  20
ATOM     20  C   UNL     1       2.057   4.698  21.242  0.00  0.00    +0.000 C 
BRANCH  20  21
ATOM     21  O   UNL     1       2.028   3.482  21.971  0.00  0.00    +0.000 OA
ATOM     22  H   UNL     1       1.567   2.835  21.390  0.00  0.00    +0.000 HD
ENDBRANCH  20  21
ENDBRANCH   4  20
BRANCH   6  23
ATOM     23  C   UNL     1       5.477   4.824  18.124  0.00  0.00    +0.000 C 
BRANCH  23  24
ATOM     24  N   UNL     1       6.027   5.586  17.003  0.00  0.00    +0.000 NA
ATOM     25  H   UNL     1       6.511   6.413  17.354  0.00  0.00    +0.000 HD
BRANCH  24  26
ATOM     26  C   UNL     1       6.956   4.806  16.190  0.00  0.00    +0.000 C 
BRANCH  26  27
ATOM     27  C   UNL     1       6.490   4.843  14.732  0.00  0.00    +0.000 C 
ATOM     28  C   UNL     1       7.645   4.997  13.749  0.00  0.00    +0.000 C 
ATOM     29  C   UNL     1       7.042   4.580  12.412  0.00  0.00    +0.000 C 
ATOM     30  C   UNL     1       5.948   3.567  12.743  0.00  0.00    +0.000 C 
ATOM     31  C   UNL     1       5.819   3.551  14.263  0.00  0.00    +0.000 C 
ENDBRANCH  26  27
ENDBRANCH  24  26
ENDBRANCH  23  24
ENDBRANCH   6  23
TORSDOF 9
ENDMDL
MODEL 8
REMARK VINA RESULT:      -6.7      2.555      4.687
REMARK  Name = 
REMARK  10 active torsions:
REMARK  status: ('A' for Active; 'I' for Inactive)
REMARK    1  A    between atoms: C_1  and  C_2
REMARK    2  A    between atoms: C_2  and  C_3
REMARK    3  A    between atoms: C_6  and  C_7
REMARK    4  A    between atoms: C_7  and  O_8
REMARK    5  A    between atoms: C_9  and  C_10
REMARK    6  A    between atoms: C_13  and  C_14
REMARK    7  A    between atoms: C_21  and  C_22
REMARK    8  A    between atoms: C_22  and  N_23
REMARK    9  A    between atoms: N_23  and  C_24
REMARK   10  A    between atoms: C_24  and  C_25
REMARK                            x       y       z     vdW  Elec       q    Type
REMARK                         _______ _______ _______ _____ _____    ______ ____
ROOT
ATOM      1  C   UNL     1       6.804   6.522  17.918  0.00  0.00    +0.000 C 
ATOM      2  O   UNL     1       7.006   7.524  17.235  0.00  0.00    +0.000 OA
ATOM      3  N   UNL     1       5.720   5.694  17.732  0.00  0.00    +0.000 N 
ATOM      4  C   UNL     1       4.617   5.753  16.759  0.00  0.00    +0.000 C 
ATOM      5  C   UNL     1       3.646   5.585  17.961  0.00  0.00    +0.000 C 
ATOM      6  C   UNL     1       4.872   5.097  18.785  0.00  0.00    +0.000 C 
ENDROOT
BRANCH   5   7
ATOM      7  C   UNL     1       2.848   6.834  18.549  0.00  0.00    +0.000 A 
ATOM      8  C   UNL     1       2.377   6.861  19.871  0.00  0.00    +0.000 A 
ATOM      9  C   UNL     1       1.623   7.929  20.368  0.00  0.00    +0.000 A 
ATOM     10  C   UNL     1       1.324   9.034  19.561  0.00  0.00    +0.000 A 
ATOM     11  C   UNL     1       1.810   9.042  18.255  0.00  0.00    +0.000 A 
ATOM     12  C   UNL     1       2.566   7.972  17.772  0.00  0.00    +0.000 A 
BRANCH  10  13
ATOM     13  C   UNL     1       0.481  10.131  20.048  0.00  0.00    +0.000 C 
ATOM     14  C   UNL     1       0.770  10.953  21.065  0.00  0.00    +0.000 C 
ATOM     15  C   UNL     1      -0.320  11.935  21.326  0.00  0.00    +0.000 C 
ATOM     16  C   UNL     1      -1.249  11.756  20.129  0.00  0.00    +0.000 C 
ATOM     17  C   UNL     1      -0.859  10.439  19.458  0.00  0.00    +0.000 C 
ENDBRANCH  10  13
ENDBRANCH   5   7
BRANCH   1  19
ATOM     18  C   UNL     1       8.450   4.743  18.677  0.00  0.00    +0.000 C 
ATOM     19  C   UNL     1       7.765   6.059  18.998  0.00  0.00    +0.000 C 
ENDBRANCH   1  19
BRANCH   4  20
ATOM     20  C   UNL     1       4.579   6.894  15.747  0.00  0.00    +0.000 C 
BRANCH  20  21
ATOM     21  O   UNL     1       5.412   6.689  14.618  0.00  0.00    +0.000 OA
ATOM     22  H   UNL     1       4.975   7.165  13.876  0.00  0.00    +0.000 HD
ENDBRANCH  20  21
ENDBRANCH   4  20
BRANCH   6  23
ATOM     23  C   UNL     1       5.062   3.584  18.948  0.00  0.00    +0.000 C 
BRANCH  23  24
ATOM     24  N   UNL     1       4.076   2.879  18.129  0.00  0.00    +0.000 NA
ATOM     25  H   UNL     1       4.491   2.627  17.231  0.00  0.00    +0.000 HD
BRANCH  24  26
ATOM     26  C   UNL     1       3.571   1.667  18.770  0.00  0.00    +0.000 C 
BRANCH  26  27
ATOM     27  C   UNL     1       2.346   2.027  19.615  0.00  0.00    +0.000 C 
ATOM     28  C   UNL     1       2.717   2.670  20.947  0.00  0.00    +0.000 C 
ATOM     29  C   UNL     1       1.420   3.325  21.408  0.00  0.00    +0.000 C 
ATOM     30  C   UNL     1       0.658   3.688  20.134  0.00  0.00    +0.000 C 
ATOM     31  C   UNL     1       1.440   3.080  18.974  0.00  0.00    +0.000 C 
ENDBRANCH  26  27
ENDBRANCH  24  26
ENDBRANCH  23  24
ENDBRANCH   6  23
TORSDOF 9
ENDMDL
MODEL 9
REMARK VINA RESULT:      -6.7      2.677      3.717
REMARK  Name = 
REMARK  10 active torsions:
REMARK  status: ('A' for Active; 'I' for Inactive)
REMARK    1  A    between atoms: C_1  and  C_2
REMARK    2  A    between atoms: C_2  and  C_3
REMARK    3  A    between atoms: C_6  and  C_7
REMARK    4  A    between atoms: C_7  and  O_8
REMARK    5  A    between atoms: C_9  and  C_10
REMARK    6  A    between atoms: C_13  and  C_14
REMARK    7  A    between atoms: C_21  and  C_22
REMARK    8  A    between atoms: C_22  and  N_23
REMARK    9  A    between atoms: N_23  and  C_24
REMARK   10  A    between atoms: C_24  and  C_25
REMARK                            x       y       z     vdW  Elec       q    Type
REMARK                         _______ _______ _______ _____ _____    ______ ____
ROOT
ATOM      1  C   UNL     1       5.459   4.448  16.004  0.00  0.00    +0.000 C 
ATOM      2  O   UNL     1       4.481   3.941  15.458  0.00  0.00    +0.000 OA
ATOM      3  N   UNL     1       5.582   4.556  17.371  0.00  0.00    +0.000 N 
ATOM      4  C   UNL     1       4.685   4.127  18.457  0.00  0.00    +0.000 C 
ATOM      5  C   UNL     1       4.827   5.561  19.040  0.00  0.00    +0.000 C 
ATOM      6  C   UNL     1       6.075   5.726  18.126  0.00  0.00    +0.000 C 
ENDROOT
BRANCH   5   7
ATOM      7  C   UNL     1       3.665   6.637  18.857  0.00  0.00    +0.000 A 
ATOM      8  C   UNL     1       3.568   7.437  17.708  0.00  0.00    +0.000 A 
ATOM      9  C   UNL     1       2.587   8.425  17.573  0.00  0.00    +0.000 A 
ATOM     10  C   UNL     1       1.642   8.641  18.585  0.00  0.00    +0.000 A 
ATOM     11  C   UNL     1       1.701   7.836  19.721  0.00  0.00    +0.000 A 
ATOM     12  C   UNL     1       2.682   6.849  19.840  0.00  0.00    +0.000 A 
BRANCH  10  13
ATOM     13  C   UNL     1       0.648   9.716  18.486  0.00  0.00    +0.000 C 
ATOM     14  C   UNL     1      -0.551   9.625  17.897  0.00  0.00    +0.000 C 
ATOM     15  C   UNL     1      -1.301  10.913  17.939  0.00  0.00    +0.000 C 
ATOM     16  C   UNL     1      -0.467  11.773  18.884  0.00  0.00    +0.000 C 
ATOM     17  C   UNL     1       0.891  11.089  19.025  0.00  0.00    +0.000 C 
ENDBRANCH  10  13
ENDBRANCH   5   7
BRANCH   1  19
ATOM     18  C   UNL     1       6.724   4.435  13.802  0.00  0.00    +0.000 C 
ATOM     19  C   UNL     1       6.661   4.955  15.227  0.00  0.00    +0.000 C 
ENDBRANCH   1  19
BRANCH   4  20
ATOM     20  C   UNL     1       3.367   3.444  18.106  0.00  0.00    +0.000 C 
BRANCH  20  21
ATOM     21  O   UNL     1       2.594   3.073  19.235  0.00  0.00    +0.000 OA
ATOM     22  H   UNL     1       1.680   3.388  19.046  0.00  0.00    +0.000 HD
ENDBRANCH  20  21
ENDBRANCH   4  20
BRANCH   6  23
ATOM     23  C   UNL     1       7.455   5.517  18.761  0.00  0.00    +0.000 C 
BRANCH  23  24
ATOM     24  N   UNL     1       8.143   6.804  18.866  0.00  0.00    +0.000 NA
ATOM     25  H   UNL     1       9.146   6.671  18.729  0.00  0.00    +0.000 HD
BRANCH  24  26
ATOM     26  C   UNL     1       7.662   7.782  17.894  0.00  0.00    +0.000 C 
BRANCH  26  27
ATOM     27  C   UNL     1       8.586   9.003  17.921  0.00  0.00    +0.000 C 
ATOM     28  C   UNL     1       7.876  10.288  17.510  0.00  0.00    +0.000 C 
ATOM     29  C   UNL     1       8.800  11.391  18.013  0.00  0.00    +0.000 C 
ATOM     30  C   UNL     1       9.510  10.817  19.238  0.00  0.00    +0.000 C 
ATOM     31  C   UNL     1       9.119   9.344  19.314  0.00  0.00    +0.000 C 
ENDBRANCH  26  27
ENDBRANCH  24  26
ENDBRANCH  23  24
ENDBRANCH   6  23
TORSDOF 9
ENDMDL
