MODEL 1
REMARK VINA RESULT:      -8.0      0.000      0.000
REMARK  Name = 
REMARK  7 active torsions:
REMARK  status: ('A' for Active; 'I' for Inactive)
REMARK    1  A    between atoms: C_2  and  C_13
REMARK    2  A    between atoms: N_3  and  C_4
REMARK    3  A    between atoms: C_4  and  C_5
REMARK    4  A    between atoms: C_5  and  C_6
REMARK    5  A    between atoms: C_6  and  N_7
REMARK    6  A    between atoms: C_18  and  C_19
REMARK    7  A    between atoms: C_19  and  C_20
REMARK                            x       y       z     vdW  Elec       q    Type
REMARK                         _______ _______ _______ _____ _____    ______ ____
ROOT
ATOM      1  C   UNL     1       0.899   9.338  20.031  0.00  0.00    +0.000 A 
ATOM      2  C   UNL     1       1.183   9.673  18.694  0.00  0.00    +0.000 A 
ATOM      3  C   UNL     1       1.961   8.835  17.884  0.00  0.00    +0.000 A 
ATOM      4  C   UNL     1       2.432   7.639  18.436  0.00  0.00    +0.000 A 
ATOM      5  N   UNL     1       3.176   6.628  17.889  0.00  0.00    +0.000 NA
ATOM      6  C   UNL     1       3.279   5.749  18.871  0.00  0.00    +0.000 A 
ATOM      7  O   UNL     1       2.679   6.127  20.046  0.00  0.00    +0.000 OA
ATOM      8  C   UNL     1       2.128   7.340  19.755  0.00  0.00    +0.000 A 
ATOM      9  C   UNL     1       1.378   8.145  20.602  0.00  0.00    +0.000 A 
ENDROOT
BRANCH   1  11
ATOM     10  O   UNL     1      -0.422   9.916  21.893  0.00  0.00    +0.000 OA
ATOM     11  C   UNL     1       0.029  10.260  20.806  0.00  0.00    +0.000 C 
ATOM     12  N   UNL     1      -0.235  11.474  20.214  0.00  0.00    +0.000 N 
ATOM     13  H   UNL     1      -0.063  11.560  19.222  0.00  0.00    +0.000 HD
BRANCH  12  14
ATOM     14  C   UNL     1      -1.111  12.437  20.846  0.00  0.00    +0.000 C 
BRANCH  14  15
ATOM     15  C   UNL     1      -2.382  12.681  20.040  0.00  0.00    +0.000 C 
BRANCH  15  16
ATOM     16  C   UNL     1      -2.264  12.223  18.581  0.00  0.00    +0.000 C 
BRANCH  16  17
ATOM     17  N   UNL     1      -2.852  10.892  18.355  0.00  0.00    +0.000 NA
ATOM     18  C   UNL     1      -2.251  10.163  17.216  0.00  0.00    +0.000 C 
ATOM     19  C   UNL     1      -2.638  10.731  15.841  0.00  0.00    +0.000 C 
ATOM     20  O   UNL     1      -4.061  10.775  15.675  0.00  0.00    +0.000 OA
ATOM     21  C   UNL     1      -4.674  11.538  16.722  0.00  0.00    +0.000 C 
ATOM     22  C   UNL     1      -4.311  10.979  18.110  0.00  0.00    +0.000 C 
ENDBRANCH  16  17
ENDBRANCH  15  16
ENDBRANCH  14  15
ENDBRANCH  12  14
ENDBRANCH   1  11
BRANCH   6  23
ATOM     23  C   UNL     1       3.965   4.429  18.859  0.00  0.00    +0.000 C 
BRANCH  23  24
ATOM     24  C   UNL     1       5.101   4.345  17.868  0.00  0.00    +0.000 A 
ATOM     25  C   UNL     1       4.899   3.865  16.564  0.00  0.00    +0.000 A 
ATOM     26  C   UNL     1       5.951   3.846  15.644  0.00  0.00    +0.000 A 
ATOM     27  C   UNL     1       7.213   4.312  16.010  0.00  0.00    +0.000 A 
ATOM     28  C   UNL     1       7.427   4.787  17.303  0.00  0.00    +0.000 A 
ATOM     29  C   UNL     1       6.376   4.799  18.217  0.00  0.00    +0.000 A 
ATOM     30  F   UNL     1       6.605   5.270  19.451  0.00  0.00    +0.000 F 
ENDBRANCH  23  24
ENDBRANCH   6  23
TORSDOF 7
ENDMDL
MODEL 2
REMARK VINA RESULT:      -7.8      1.329      1.636
REMARK  Name = 
REMARK  7 active torsions:
REMARK  status: ('A' for Active; 'I' for Inactive)
REMARK    1  A    between atoms: C_2  and  C_13
REMARK    2  A    between atoms: N_3  and  C_4
REMARK    3  A    between atoms: C_4  and  C_5
REMARK    4  A    between atoms: C_5  and  C_6
REMARK    5  A    between atoms: C_6  and  N_7
REMARK    6  A    between atoms: C_18  and  C_19
REMARK    7  A    between atoms: C_19  and  C_20
REMARK                            x       y       z     vdW  Elec       q    Type
REMARK                         _______ _______ _______ _____ _____    ______ ____
ROOT
ATOM      1  C   UNL     1       1.575   8.995  19.268  0.00  0.00    +0.000 A 
ATOM      2  C   UNL     1       1.304   8.401  20.514  0.00  0.00    +0.000 A 
ATOM      3  C   UNL     1       1.632   7.061  20.766  0.00  0.00    +0.000 A 
ATOM      4  C   UNL     1       2.258   6.335  19.748  0.00  0.00    +0.000 A 
ATOM      5  N   UNL     1       2.712   5.043  19.715  0.00  0.00    +0.000 NA
ATOM      6  C   UNL     1       3.241   4.929  18.509  0.00  0.00    +0.000 A 
ATOM      7  O   UNL     1       3.138   6.052  17.727  0.00  0.00    +0.000 OA
ATOM      8  C   UNL     1       2.512   6.955  18.535  0.00  0.00    +0.000 A 
ATOM      9  C   UNL     1       2.191   8.272  18.231  0.00  0.00    +0.000 A 
ENDROOT
BRANCH   1  11
ATOM     10  O   UNL     1       1.801  11.103  18.241  0.00  0.00    +0.000 OA
ATOM     11  C   UNL     1       1.236  10.432  19.099  0.00  0.00    +0.000 C 
ATOM     12  N   UNL     1       0.292  10.931  19.966  0.00  0.00    +0.000 N 
ATOM     13  H   UNL     1       0.094  10.400  20.802  0.00  0.00    +0.000 HD
BRANCH  12  14
ATOM     14  C   UNL     1      -0.084  12.329  19.936  0.00  0.00    +0.000 C 
BRANCH  14  15
ATOM     15  C   UNL     1      -1.525  12.532  19.478  0.00  0.00    +0.000 C 
BRANCH  15  16
ATOM     16  C   UNL     1      -1.765  12.072  18.035  0.00  0.00    +0.000 C 
BRANCH  16  17
ATOM     17  N   UNL     1      -2.423  10.758  17.960  0.00  0.00    +0.000 NA
ATOM     18  C   UNL     1      -2.088   9.994  16.737  0.00  0.00    +0.000 C 
ATOM     19  C   UNL     1      -2.731  10.554  15.459  0.00  0.00    +0.000 C 
ATOM     20  O   UNL     1      -4.156  10.641  15.586  0.00  0.00    +0.000 OA
ATOM     21  C   UNL     1      -4.522  11.437  16.720  0.00  0.00    +0.000 C 
ATOM     22  C   UNL     1      -3.899  10.886  18.015  0.00  0.00    +0.000 C 
ENDBRANCH  16  17
ENDBRANCH  15  16
ENDBRANCH  14  15
ENDBRANCH  12  14
ENDBRANCH   1  11
BRANCH   6  23
ATOM     23  C   UNL     1       3.912   3.747  17.904  0.00  0.00    +0.000 C 
BRANCH  23  24
ATOM     24  C   UNL     1       5.071   4.102  17.003  0.00  0.00    +0.000 A 
ATOM     25  C   UNL     1       4.950   4.052  15.604  0.00  0.00    +0.000 A 
ATOM     26  C   UNL     1       6.016   4.437  14.786  0.00  0.00    +0.000 A 
ATOM     27  C   UNL     1       7.210   4.882  15.352  0.00  0.00    +0.000 A 
ATOM     28  C   UNL     1       7.343   4.932  16.738  0.00  0.00    +0.000 A 
ATOM     29  C   UNL     1       6.279   4.542  17.548  0.00  0.00    +0.000 A 
ATOM     30  F   UNL     1       6.429   4.609  18.879  0.00  0.00    +0.000 F 
ENDBRANCH  23  24
ENDBRANCH   6  23
TORSDOF 7
ENDMDL
MODEL 3
REMARK VINA RESULT:      -7.6      3.170      4.022
REMARK  Name = 
REMARK  7 active torsions:
REMARK  status: ('A' for Active; 'I' for Inactive)
REMARK    1  A    between atoms: C_2  and  C_13
REMARK    2  A    between atoms: N_3  and  C_4
REMARK    3  A    between atoms: C_4  and  C_5
REMARK    4  A    between atoms: C_5  and  C_6
REMARK    5  A    between atoms: C_6  and  N_7
REMARK    6  A    between atoms: C_18  and  C_19
REMARK    7  A    between atoms: C_19  and  C_20
REMARK                            x       y       z     vdW  Elec       q    Type
REMARK                         _______ _______ _______ _____ _____    ______ ____
ROOT
ATOM      1  C   UNL     1       0.397   9.891  21.220  0.00  0.00    +0.000 A 
ATOM      2  C   UNL     1       0.309  10.614  20.016  0.00  0.00    +0.000 A 
ATOM      3  C   UNL     1       0.899  10.137  18.837  0.00  0.00    +0.000 A 
ATOM      4  C   UNL     1       1.561   8.905  18.885  0.00  0.00    +0.000 A 
ATOM      5  N   UNL     1       2.195   8.187  17.906  0.00  0.00    +0.000 NA
ATOM      6  C   UNL     1       2.596   7.094  18.532  0.00  0.00    +0.000 A 
ATOM      7  O   UNL     1       2.298   7.055  19.870  0.00  0.00    +0.000 OA
ATOM      8  C   UNL     1       1.624   8.220  20.088  0.00  0.00    +0.000 A 
ATOM      9  C   UNL     1       1.073   8.659  21.285  0.00  0.00    +0.000 A 
ENDROOT
BRANCH   1  11
ATOM     10  O   UNL     1      -0.004  10.048  23.535  0.00  0.00    +0.000 OA
ATOM     11  C   UNL     1      -0.294  10.446  22.412  0.00  0.00    +0.000 C 
ATOM     12  N   UNL     1      -1.264  11.389  22.157  0.00  0.00    +0.000 N 
ATOM     13  H   UNL     1      -1.628  11.446  21.217  0.00  0.00    +0.000 HD
BRANCH  12  14
ATOM     14  C   UNL     1      -2.044  11.965  23.232  0.00  0.00    +0.000 C 
BRANCH  14  15
ATOM     15  C   UNL     1      -2.906  13.132  22.761  0.00  0.00    +0.000 C 
BRANCH  15  16
ATOM     16  C   UNL     1      -3.758  12.790  21.534  0.00  0.00    +0.000 C 
BRANCH  16  17
ATOM     17  N   UNL     1      -5.114  12.339  21.891  0.00  0.00    +0.000 NA
ATOM     18  C   UNL     1      -6.016  12.186  20.728  0.00  0.00    +0.000 C 
ATOM     19  C   UNL     1      -6.463  13.519  20.108  0.00  0.00    +0.000 C 
ATOM     20  O   UNL     1      -7.088  14.364  21.082  0.00  0.00    +0.000 OA
ATOM     21  C   UNL     1      -6.214  14.597  22.194  0.00  0.00    +0.000 C 
ATOM     22  C   UNL     1      -5.764  13.275  22.840  0.00  0.00    +0.000 C 
ENDBRANCH  16  17
ENDBRANCH  15  16
ENDBRANCH  14  15
ENDBRANCH  12  14
ENDBRANCH   1  11
BRANCH   6  23
ATOM     23  C   UNL     1       3.329   5.927  17.970  0.00  0.00    +0.000 C 
BRANCH  23  24
ATOM     24  C   UNL     1       2.861   4.598  18.513  0.00  0.00    +0.000 A 
ATOM     25  C   UNL     1       3.602   3.904  19.483  0.00  0.00    +0.000 A 
ATOM     26  C   UNL     1       3.125   2.702  20.014  0.00  0.00    +0.000 A 
ATOM     27  C   UNL     1       1.903   2.182  19.589  0.00  0.00    +0.000 A 
ATOM     28  C   UNL     1       1.161   2.860  18.623  0.00  0.00    +0.000 A 
ATOM     29  C   UNL     1       1.644   4.055  18.094  0.00  0.00    +0.000 A 
ATOM     30  F   UNL     1       0.907   4.693  17.174  0.00  0.00    +0.000 F 
ENDBRANCH  23  24
ENDBRANCH   6  23
TORSDOF 7
ENDMDL
MODEL 4
REMARK VINA RESULT:      -7.6      2.808      9.161
REMARK  Name = 
REMARK  7 active torsions:
REMARK  status: ('A' for Active; 'I' for Inactive)
REMARK    1  A    between atoms: C_2  and  C_13
REMARK    2  A    between atoms: N_3  and  C_4
REMARK    3  A    between atoms: C_4  and  C_5
REMARK    4  A    between atoms: C_5  and  C_6
REMARK    5  A    between atoms: C_6  and  N_7
REMARK    6  A    between atoms: C_18  and  C_19
REMARK    7  A    between atoms: C_19  and  C_20
REMARK                            x       y       z     vdW  Elec       q    Type
REMARK                         _______ _______ _______ _____ _____    ______ ____
ROOT
ATOM      1  C   UNL     1       2.545   7.337  19.243  0.00  0.00    +0.000 A 
ATOM      2  C   UNL     1       1.969   7.277  20.525  0.00  0.00    +0.000 A 
ATOM      3  C   UNL     1       1.030   8.229  20.946  0.00  0.00    +0.000 A 
ATOM      4  C   UNL     1       0.662   9.233  20.044  0.00  0.00    +0.000 A 
ATOM      5  N   UNL     1      -0.234  10.262  20.161  0.00  0.00    +0.000 NA
ATOM      6  C   UNL     1      -0.182  10.857  18.982  0.00  0.00    +0.000 A 
ATOM      7  O   UNL     1       0.715  10.309  18.101  0.00  0.00    +0.000 OA
ATOM      8  C   UNL     1       1.248   9.259  18.789  0.00  0.00    +0.000 A 
ATOM      9  C   UNL     1       2.195   8.350  18.332  0.00  0.00    +0.000 A 
ENDROOT
BRANCH   1  11
ATOM     10  O   UNL     1       4.157   5.689  19.721  0.00  0.00    +0.000 OA
ATOM     11  C   UNL     1       3.498   6.263  18.861  0.00  0.00    +0.000 C 
ATOM     12  N   UNL     1       3.590   5.995  17.515  0.00  0.00    +0.000 N 
ATOM     13  H   UNL     1       3.235   6.689  16.872  0.00  0.00    +0.000 HD
BRANCH  12  14
ATOM     14  C   UNL     1       4.521   5.007  17.013  0.00  0.00    +0.000 C 
BRANCH  14  15
ATOM     15  C   UNL     1       3.883   3.629  16.871  0.00  0.00    +0.000 C 
BRANCH  15  16
ATOM     16  C   UNL     1       2.407   3.606  17.287  0.00  0.00    +0.000 C 
BRANCH  16  17
ATOM     17  N   UNL     1       2.009   2.326  17.895  0.00  0.00    +0.000 NA
ATOM     18  C   UNL     1       0.802   2.422  18.747  0.00  0.00    +0.000 C 
ATOM     19  C   UNL     1       1.038   3.151  20.079  0.00  0.00    +0.000 C 
ATOM     20  O   UNL     1       2.097   2.541  20.828  0.00  0.00    +0.000 OA
ATOM     21  C   UNL     1       3.307   2.497  20.061  0.00  0.00    +0.000 C 
ATOM     22  C   UNL     1       3.098   1.759  18.726  0.00  0.00    +0.000 C 
ENDBRANCH  16  17
ENDBRANCH  15  16
ENDBRANCH  14  15
ENDBRANCH  12  14
ENDBRANCH   1  11
BRANCH   6  23
ATOM     23  C   UNL     1      -0.957  12.035  18.508  0.00  0.00    +0.000 C 
BRANCH  23  24
ATOM     24  C   UNL     1      -2.428  11.754  18.311  0.00  0.00    +0.000 A 
ATOM     25  C   UNL     1      -3.387  12.207  19.231  0.00  0.00    +0.000 A 
ATOM     26  C   UNL     1      -4.748  11.984  19.003  0.00  0.00    +0.000 A 
ATOM     27  C   UNL     1      -5.168  11.316  17.854  0.00  0.00    +0.000 A 
ATOM     28  C   UNL     1      -4.224  10.858  16.936  0.00  0.00    +0.000 A 
ATOM     29  C   UNL     1      -2.869  11.078  17.171  0.00  0.00    +0.000 A 
ATOM     30  F   UNL     1      -1.983  10.637  16.268  0.00  0.00    +0.000 F 
ENDBRANCH  23  24
ENDBRANCH   6  23
TORSDOF 7
ENDMDL
MODEL 5
REMARK VINA RESULT:      -7.5      3.270      4.212
REMARK  Name = 
REMARK  7 active torsions:
REMARK  status: ('A' for Active; 'I' for Inactive)
REMARK    1  A    between atoms: C_2  and  C_13
REMARK    2  A    between atoms: N_3  and  C_4
REMARK    3  A    between atoms: C_4  and  C_5
REMARK    4  A    between atoms: C_5  and  C_6
REMARK    5  A    between atoms: C_6  and  N_7
REMARK    6  A    between atoms: C_18  and  C_19
REMARK    7  A    between atoms: C_19  and  C_20
REMARK                            x       y       z     vdW  Elec       q    Type
REMARK                         _______ _______ _______ _____ _____    ______ ____
ROOT
ATOM      1  C   UNL     1       0.587   9.691  21.181  0.00  0.00    +0.000 A 
ATOM      2  C   UNL     1       0.521  10.444  19.994  0.00  0.00    +0.000 A 
ATOM      3  C   UNL     1       1.111   9.985  18.808  0.00  0.00    +0.000 A 
ATOM      4  C   UNL     1       1.751   8.741  18.831  0.00  0.00    +0.000 A 
ATOM      5  N   UNL     1       2.379   8.036  17.840  0.00  0.00    +0.000 NA
ATOM      6  C   UNL     1       2.756   6.921  18.441  0.00  0.00    +0.000 A 
ATOM      7  O   UNL     1       2.447   6.855  19.776  0.00  0.00    +0.000 OA
ATOM      8  C   UNL     1       1.793   8.026  20.017  0.00  0.00    +0.000 A 
ATOM      9  C   UNL     1       1.240   8.446  21.220  0.00  0.00    +0.000 A 
ENDROOT
BRANCH   1  11
ATOM     10  O   UNL     1       0.258   9.893  23.504  0.00  0.00    +0.000 OA
ATOM     11  C   UNL     1      -0.104  10.229  22.381  0.00  0.00    +0.000 C 
ATOM     12  N   UNL     1      -1.154  11.083  22.135  0.00  0.00    +0.000 N 
ATOM     13  H   UNL     1      -1.555  11.081  21.208  0.00  0.00    +0.000 HD
BRANCH  12  14
ATOM     14  C   UNL     1      -1.939  11.632  23.221  0.00  0.00    +0.000 C 
BRANCH  14  15
ATOM     15  C   UNL     1      -2.420  13.049  22.929  0.00  0.00    +0.000 C 
BRANCH  15  16
ATOM     16  C   UNL     1      -3.390  13.121  21.744  0.00  0.00    +0.000 C 
BRANCH  16  17
ATOM     17  N   UNL     1      -4.533  14.014  21.999  0.00  0.00    +0.000 NA
ATOM     18  C   UNL     1      -5.011  13.984  23.399  0.00  0.00    +0.000 C 
ATOM     19  C   UNL     1      -5.748  12.690  23.777  0.00  0.00    +0.000 C 
ATOM     20  O   UNL     1      -6.851  12.441  22.896  0.00  0.00    +0.000 OA
ATOM     21  C   UNL     1      -6.415  12.389  21.532  0.00  0.00    +0.000 C 
ATOM     22  C   UNL     1      -5.685  13.681  21.127  0.00  0.00    +0.000 C 
ENDBRANCH  16  17
ENDBRANCH  15  16
ENDBRANCH  14  15
ENDBRANCH  12  14
ENDBRANCH   1  11
BRANCH   6  23
ATOM     23  C   UNL     1       3.473   5.755  17.856  0.00  0.00    +0.000 C 
BRANCH  23  24
ATOM     24  C   UNL     1       2.981   4.422  18.368  0.00  0.00    +0.000 A 
ATOM     25  C   UNL     1       3.756   3.644  19.243  0.00  0.00    +0.000 A 
ATOM     26  C   UNL     1       3.260   2.439  19.749  0.00  0.00    +0.000 A 
ATOM     27  C   UNL     1       1.986   1.999  19.394  0.00  0.00    +0.000 A 
ATOM     28  C   UNL     1       1.209   2.760  18.522  0.00  0.00    +0.000 A 
ATOM     29  C   UNL     1       1.710   3.958  18.017  0.00  0.00    +0.000 A 
ATOM     30  F   UNL     1       0.939   4.676  17.189  0.00  0.00    +0.000 F 
ENDBRANCH  23  24
ENDBRANCH   6  23
TORSDOF 7
ENDMDL
MODEL 6
REMARK VINA RESULT:      -7.5      3.099      9.453
REMARK  Name = 
REMARK  7 active torsions:
REMARK  status: ('A' for Active; 'I' for Inactive)
REMARK    1  A    between atoms: C_2  and  C_13
REMARK    2  A    between atoms: N_3  and  C_4
REMARK    3  A    between atoms: C_4  and  C_5
REMARK    4  A    between atoms: C_5  and  C_6
REMARK    5  A    between atoms: C_6  and  N_7
REMARK    6  A    between atoms: C_18  and  C_19
REMARK    7  A    between atoms: C_19  and  C_20
REMARK                            x       y       z     vdW  Elec       q    Type
REMARK                         _______ _______ _______ _____ _____    ______ ____
ROOT
ATOM      1  C   UNL     1       2.021   6.996  19.427  0.00  0.00    +0.000 A 
ATOM      2  C   UNL     1       2.239   7.550  18.153  0.00  0.00    +0.000 A 
ATOM      3  C   UNL     1       1.960   8.898  17.888  0.00  0.00    +0.000 A 
ATOM      4  C   UNL     1       1.476   9.687  18.937  0.00  0.00    +0.000 A 
ATOM      5  N   UNL     1       1.148  11.016  18.984  0.00  0.00    +0.000 NA
ATOM      6  C   UNL     1       0.788  11.203  20.242  0.00  0.00    +0.000 A 
ATOM      7  O   UNL     1       0.824  10.078  21.025  0.00  0.00    +0.000 OA
ATOM      8  C   UNL     1       1.277   9.108  20.180  0.00  0.00    +0.000 A 
ATOM      9  C   UNL     1       1.521   7.775  20.486  0.00  0.00    +0.000 A 
ENDROOT
BRANCH   1  11
ATOM     10  O   UNL     1       2.790   5.190  20.728  0.00  0.00    +0.000 OA
ATOM     11  C   UNL     1       2.387   5.571  19.634  0.00  0.00    +0.000 C 
ATOM     12  N   UNL     1       2.262   4.754  18.534  0.00  0.00    +0.000 N 
ATOM     13  H   UNL     1       2.199   5.195  17.627  0.00  0.00    +0.000 HD
BRANCH  12  14
ATOM     14  C   UNL     1       2.636   3.358  18.595  0.00  0.00    +0.000 C 
BRANCH  14  15
ATOM     15  C   UNL     1       4.061   3.118  18.108  0.00  0.00    +0.000 C 
BRANCH  15  16
ATOM     16  C   UNL     1       4.343   3.754  16.741  0.00  0.00    +0.000 C 
BRANCH  16  17
ATOM     17  N   UNL     1       4.890   5.116  16.850  0.00  0.00    +0.000 NA
ATOM     18  C   UNL     1       5.376   5.667  15.566  0.00  0.00    +0.000 C 
ATOM     19  C   UNL     1       6.680   5.023  15.067  0.00  0.00    +0.000 C 
ATOM     20  O   UNL     1       7.720   5.124  16.048  0.00  0.00    +0.000 OA
ATOM     21  C   UNL     1       7.313   4.534  17.288  0.00  0.00    +0.000 C 
ATOM     22  C   UNL     1       6.015   5.172  17.814  0.00  0.00    +0.000 C 
ENDBRANCH  16  17
ENDBRANCH  15  16
ENDBRANCH  14  15
ENDBRANCH  12  14
ENDBRANCH   1  11
BRANCH   6  23
ATOM     23  C   UNL     1       0.344  12.465  20.896  0.00  0.00    +0.000 C 
BRANCH  23  24
ATOM     24  C   UNL     1      -1.155  12.577  21.042  0.00  0.00    +0.000 A 
ATOM     25  C   UNL     1      -1.998  12.592  19.919  0.00  0.00    +0.000 A 
ATOM     26  C   UNL     1      -3.387  12.641  20.076  0.00  0.00    +0.000 A 
ATOM     27  C   UNL     1      -3.949  12.671  21.351  0.00  0.00    +0.000 A 
ATOM     28  C   UNL     1      -3.121  12.662  22.473  0.00  0.00    +0.000 A 
ATOM     29  C   UNL     1      -1.738  12.617  22.311  0.00  0.00    +0.000 A 
ATOM     30  F   UNL     1      -0.965  12.599  23.405  0.00  0.00    +0.000 F 
ENDBRANCH  23  24
ENDBRANCH   6  23
TORSDOF 7
ENDMDL
MODEL 7
REMARK VINA RESULT:      -7.4      3.166      4.103
REMARK  Name = 
REMARK  7 active torsions:
REMARK  status: ('A' for Active; 'I' for Inactive)
REMARK    1  A    between atoms: C_2  and  C_13
REMARK    2  A    between atoms: N_3  and  C_4
REMARK    3  A    between atoms: C_4  and  C_5
REMARK    4  A    between atoms: C_5  and  C_6
REMARK    5  A    between atoms: C_6  and  N_7
REMARK    6  A    between atoms: C_18  and  C_19
REMARK    7  A    between atoms: C_19  and  C_20
REMARK                            x       y       z     vdW  Elec       q    Type
REMARK                         _______ _______ _______ _____ _____    ______ ____
ROOT
ATOM      1  C   UNL     1       0.380  10.358  21.109  0.00  0.00    +0.000 A 
ATOM      2  C   UNL     1       0.255  11.100  19.920  0.00  0.00    +0.000 A 
ATOM      3  C   UNL     1       0.796  10.636  18.713  0.00  0.00    +0.000 A 
ATOM      4  C   UNL     1       1.449   9.398  18.718  0.00  0.00    +0.000 A 
ATOM      5  N   UNL     1       2.039   8.690  17.706  0.00  0.00    +0.000 NA
ATOM      6  C   UNL     1       2.453   7.584  18.299  0.00  0.00    +0.000 A 
ATOM      7  O   UNL     1       2.204   7.526  19.647  0.00  0.00    +0.000 OA
ATOM      8  C   UNL     1       1.549   8.694  19.907  0.00  0.00    +0.000 A 
ATOM      9  C   UNL     1       1.046   9.119  21.130  0.00  0.00    +0.000 A 
ENDROOT
BRANCH   1  11
ATOM     10  O   UNL     1      -0.191  10.285  23.393  0.00  0.00    +0.000 OA
ATOM     11  C   UNL     1      -0.262  10.900  22.334  0.00  0.00    +0.000 C 
ATOM     12  N   UNL     1      -0.935  12.091  22.181  0.00  0.00    +0.000 N 
ATOM     13  H   UNL     1      -1.180  12.375  21.243  0.00  0.00    +0.000 HD
BRANCH  12  14
ATOM     14  C   UNL     1      -1.646  12.693  23.289  0.00  0.00    +0.000 C 
BRANCH  14  15
ATOM     15  C   UNL     1      -3.092  12.217  23.378  0.00  0.00    +0.000 C 
BRANCH  15  16
ATOM     16  C   UNL     1      -3.979  12.781  22.262  0.00  0.00    +0.000 C 
BRANCH  16  17
ATOM     17  N   UNL     1      -5.398  12.425  22.429  0.00  0.00    +0.000 NA
ATOM     18  C   UNL     1      -6.227  12.711  21.238  0.00  0.00    +0.000 C 
ATOM     19  C   UNL     1      -6.478  14.209  21.001  0.00  0.00    +0.000 C 
ATOM     20  O   UNL     1      -7.072  14.827  22.150  0.00  0.00    +0.000 OA
ATOM     21  C   UNL     1      -6.258  14.634  23.313  0.00  0.00    +0.000 C 
ATOM     22  C   UNL     1      -6.004  13.140  23.578  0.00  0.00    +0.000 C 
ENDBRANCH  16  17
ENDBRANCH  15  16
ENDBRANCH  14  15
ENDBRANCH  12  14
ENDBRANCH   1  11
BRANCH   6  23
ATOM     23  C   UNL     1       3.154   6.419  17.693  0.00  0.00    +0.000 C 
BRANCH  23  24
ATOM     24  C   UNL     1       2.771   5.094  18.307  0.00  0.00    +0.000 A 
ATOM     25  C   UNL     1       1.689   4.347  17.815  0.00  0.00    +0.000 A 
ATOM     26  C   UNL     1       1.383   3.097  18.361  0.00  0.00    +0.000 A 
ATOM     27  C   UNL     1       2.156   2.575  19.398  0.00  0.00    +0.000 A 
ATOM     28  C   UNL     1       3.230   3.310  19.898  0.00  0.00    +0.000 A 
ATOM     29  C   UNL     1       3.526   4.557  19.353  0.00  0.00    +0.000 A 
ATOM     30  F   UNL     1       4.570   5.239  19.845  0.00  0.00    +0.000 F 
ENDBRANCH  23  24
ENDBRANCH   6  23
TORSDOF 7
ENDMDL
MODEL 8
REMARK VINA RESULT:      -7.4      3.258      4.249
REMARK  Name = 
REMARK  7 active torsions:
REMARK  status: ('A' for Active; 'I' for Inactive)
REMARK    1  A    between atoms: C_2  and  C_13
REMARK    2  A    between atoms: N_3  and  C_4
REMARK    3  A    between atoms: C_4  and  C_5
REMARK    4  A    between atoms: C_5  and  C_6
REMARK    5  A    between atoms: C_6  and  N_7
REMARK    6  A    between atoms: C_18  and  C_19
REMARK    7  A    between atoms: C_19  and  C_20
REMARK                            x       y       z     vdW  Elec       q    Type
REMARK                         _______ _______ _______ _____ _____    ______ ____
ROOT
ATOM      1  C   UNL     1       0.537   9.822  21.161  0.00  0.00    +0.000 A 
ATOM      2  C   UNL     1       0.498  10.551  19.959  0.00  0.00    +0.000 A 
ATOM      3  C   UNL     1       1.094  10.058  18.790  0.00  0.00    +0.000 A 
ATOM      4  C   UNL     1       1.713   8.804  18.846  0.00  0.00    +0.000 A 
ATOM      5  N   UNL     1       2.341   8.067  17.878  0.00  0.00    +0.000 NA
ATOM      6  C   UNL     1       2.691   6.959  18.506  0.00  0.00    +0.000 A 
ATOM      7  O   UNL     1       2.366   6.926  19.838  0.00  0.00    +0.000 OA
ATOM      8  C   UNL     1       1.728   8.113  20.047  0.00  0.00    +0.000 A 
ATOM      9  C   UNL     1       1.169   8.567  21.235  0.00  0.00    +0.000 A 
ENDROOT
BRANCH   1  11
ATOM     10  O   UNL     1       0.092   9.981  23.469  0.00  0.00    +0.000 OA
ATOM     11  C   UNL     1      -0.158  10.397  22.342  0.00  0.00    +0.000 C 
ATOM     12  N   UNL     1      -1.085  11.378  22.072  0.00  0.00    +0.000 N 
ATOM     13  H   UNL     1      -1.425  11.455  21.124  0.00  0.00    +0.000 HD
BRANCH  12  14
ATOM     14  C   UNL     1      -1.865  11.978  23.133  0.00  0.00    +0.000 C 
BRANCH  14  15
ATOM     15  C   UNL     1      -1.500  13.441  23.364  0.00  0.00    +0.000 C 
BRANCH  15  16
ATOM     16  C   UNL     1      -0.384  13.934  22.436  0.00  0.00    +0.000 C 
BRANCH  16  17
ATOM     17  N   UNL     1      -0.803  15.070  21.598  0.00  0.00    +0.000 NA
ATOM     18  C   UNL     1      -1.477  14.668  20.344  0.00  0.00    +0.000 C 
ATOM     19  C   UNL     1      -0.532  14.054  19.299  0.00  0.00    +0.000 C 
ATOM     20  O   UNL     1       0.551  14.941  18.989  0.00  0.00    +0.000 OA
ATOM     21  C   UNL     1       1.276  15.297  20.173  0.00  0.00    +0.000 C 
ATOM     22  C   UNL     1       0.351  15.926  21.230  0.00  0.00    +0.000 C 
ENDBRANCH  16  17
ENDBRANCH  15  16
ENDBRANCH  14  15
ENDBRANCH  12  14
ENDBRANCH   1  11
BRANCH   6  23
ATOM     23  C   UNL     1       3.395   5.769  17.955  0.00  0.00    +0.000 C 
BRANCH  23  24
ATOM     24  C   UNL     1       2.869   4.455  18.482  0.00  0.00    +0.000 A 
ATOM     25  C   UNL     1       3.585   3.711  19.433  0.00  0.00    +0.000 A 
ATOM     26  C   UNL     1       3.056   2.524  19.949  0.00  0.00    +0.000 A 
ATOM     27  C   UNL     1       1.807   2.071  19.530  0.00  0.00    +0.000 A 
ATOM     28  C   UNL     1       1.088   2.799  18.583  0.00  0.00    +0.000 A 
ATOM     29  C   UNL     1       1.623   3.978  18.068  0.00  0.00    +0.000 A 
ATOM     30  F   UNL     1       0.908   4.665  17.166  0.00  0.00    +0.000 F 
ENDBRANCH  23  24
ENDBRANCH   6  23
TORSDOF 7
ENDMDL
MODEL 9
REMARK VINA RESULT:      -7.4      3.100      9.123
REMARK  Name = 
REMARK  7 active torsions:
REMARK  status: ('A' for Active; 'I' for Inactive)
REMARK    1  A    between atoms: C_2  and  C_13
REMARK    2  A    between atoms: N_3  and  C_4
REMARK    3  A    between atoms: C_4  and  C_5
REMARK    4  A    between atoms: C_5  and  C_6
REMARK    5  A    between atoms: C_6  and  N_7
REMARK    6  A    between atoms: C_18  and  C_19
REMARK    7  A    between atoms: C_19  and  C_20
REMARK                            x       y       z     vdW  Elec       q    Type
REMARK                         _______ _______ _______ _____ _____    ______ ____
ROOT
ATOM      1  C   UNL     1       2.696   7.655  18.558  0.00  0.00    +0.000 A 
ATOM      2  C   UNL     1       2.314   7.269  19.856  0.00  0.00    +0.000 A 
ATOM      3  C   UNL     1       1.389   8.020  20.595  0.00  0.00    +0.000 A 
ATOM      4  C   UNL     1       0.836   9.156  19.994  0.00  0.00    +0.000 A 
ATOM      5  N   UNL     1      -0.096  10.050  20.451  0.00  0.00    +0.000 NA
ATOM      6  C   UNL     1      -0.249  10.885  19.438  0.00  0.00    +0.000 A 
ATOM      7  O   UNL     1       0.544  10.622  18.350  0.00  0.00    +0.000 OA
ATOM      8  C   UNL     1       1.233   9.502  18.713  0.00  0.00    +0.000 A 
ATOM      9  C   UNL     1       2.158   8.803  17.949  0.00  0.00    +0.000 A 
ENDROOT
BRANCH   1  11
ATOM     10  O   UNL     1       3.970   7.042  16.674  0.00  0.00    +0.000 OA
ATOM     11  C   UNL     1       3.648   6.778  17.828  0.00  0.00    +0.000 C 
ATOM     12  N   UNL     1       4.101   5.678  18.520  0.00  0.00    +0.000 N 
ATOM     13  H   UNL     1       3.580   5.389  19.336  0.00  0.00    +0.000 HD
BRANCH  12  14
ATOM     14  C   UNL     1       4.991   4.721  17.898  0.00  0.00    +0.000 C 
BRANCH  14  15
ATOM     15  C   UNL     1       4.566   3.280  18.159  0.00  0.00    +0.000 C 
BRANCH  15  16
ATOM     16  C   UNL     1       4.270   3.000  19.637  0.00  0.00    +0.000 C 
BRANCH  16  17
ATOM     17  N   UNL     1       3.050   2.199  19.830  0.00  0.00    +0.000 NA
ATOM     18  C   UNL     1       2.027   2.412  18.782  0.00  0.00    +0.000 C 
ATOM     19  C   UNL     1       1.323   3.776  18.868  0.00  0.00    +0.000 C 
ATOM     20  O   UNL     1       0.728   3.976  20.156  0.00  0.00    +0.000 OA
ATOM     21  C   UNL     1       1.705   3.851  21.197  0.00  0.00    +0.000 C 
ATOM     22  C   UNL     1       2.415   2.486  21.139  0.00  0.00    +0.000 C 
ENDBRANCH  16  17
ENDBRANCH  15  16
ENDBRANCH  14  15
ENDBRANCH  12  14
ENDBRANCH   1  11
BRANCH   6  23
ATOM     23  C   UNL     1      -1.155  12.062  19.342  0.00  0.00    +0.000 C 
BRANCH  23  24
ATOM     24  C   UNL     1      -2.393  11.809  18.516  0.00  0.00    +0.000 A 
ATOM     25  C   UNL     1      -2.307  11.337  17.197  0.00  0.00    +0.000 A 
ATOM     26  C   UNL     1      -3.465  11.057  16.466  0.00  0.00    +0.000 A 
ATOM     27  C   UNL     1      -4.721  11.237  17.045  0.00  0.00    +0.000 A 
ATOM     28  C   UNL     1      -4.819  11.709  18.353  0.00  0.00    +0.000 A 
ATOM     29  C   UNL     1      -3.661  11.992  19.073  0.00  0.00    +0.000 A 
ATOM     30  F   UNL     1      -3.783  12.436  20.332  0.00  0.00    +0.000 F 
ENDBRANCH  23  24
ENDBRANCH   6  23
TORSDOF 7
ENDMDL
