MODEL 1
REMARK VINA RESULT:      -7.4      0.000      0.000
REMARK  Name = 
REMARK  6 active torsions:
REMARK  status: ('A' for Active; 'I' for Inactive)
REMARK    1  A    between atoms: C_1  and  C_2
REMARK    2  A    between atoms: C_2  and  C_3
REMARK    3  A    between atoms: C_2  and  C_4
REMARK    4  A    between atoms: C_2  and  C_5
REMARK    5  A    between atoms: C_5  and  O_6
REMARK    6  A    between atoms: C_11  and  C_12
REMARK                            x       y       z     vdW  Elec       q    Type
REMARK                         _______ _______ _______ _____ _____    ______ ____
ROOT
ATOM      1  C   UNL     1       2.453   3.889  19.068  0.00  0.00    +0.000 C 
ATOM      2  C   UNL     1       3.406   2.681  18.980  0.00  0.00    +0.000 C 
ATOM      3  C   UNL     1       4.323   2.668  17.769  0.00  0.00    +0.000 C 
ATOM      4  N   UNL     1       4.965   3.946  17.429  0.00  0.00    +0.000 NA
ATOM      5  C   UNL     1       5.548   3.769  16.081  0.00  0.00    +0.000 C 
ATOM      6  C   UNL     1       6.260   5.013  15.523  0.00  0.00    +0.000 C 
ATOM      7  C   UNL     1       5.357   6.248  15.633  0.00  0.00    +0.000 C 
ATOM      8  C   UNL     1       4.750   6.364  17.047  0.00  0.00    +0.000 C 
ATOM      9  C   UNL     1       4.010   5.068  17.437  0.00  0.00    +0.000 C 
ATOM     10  C   UNL     1       3.296   5.169  18.814  0.00  0.00    +0.000 C 
ENDROOT
BRANCH   6  11
ATOM     11  C   UNL     1       6.735   4.688  14.105  0.00  0.00    +0.000 A 
ATOM     12  C   UNL     1       7.697   5.476  13.453  0.00  0.00    +0.000 A 
ATOM     13  C   UNL     1       7.979   5.286  12.097  0.00  0.00    +0.000 A 
ATOM     14  C   UNL     1       7.321   4.294  11.380  0.00  0.00    +0.000 A 
ATOM     15  C   UNL     1       6.390   3.480  12.021  0.00  0.00    +0.000 A 
ATOM     16  C   UNL     1       6.098   3.675  13.374  0.00  0.00    +0.000 A 
ENDBRANCH   6  11
BRANCH   1  18
ATOM     17  C   UNL     1       0.305   3.013  20.283  0.00  0.00    +0.000 C 
ATOM     18  C   UNL     1       1.606   3.834  20.414  0.00  0.00    +0.000 C 
ATOM     19  C   UNL     1       1.208   5.274  20.851  0.00  0.00    +0.000 C 
ATOM     20  C   UNL     1       2.404   3.231  21.592  0.00  0.00    +0.000 C 
ENDBRANCH   1  18
BRANCH   1  21
ATOM     21  O   UNL     1       1.511   3.785  17.979  0.00  0.00    +0.000 OA
ATOM     22  H   UNL     1       1.377   2.837  17.789  0.00  0.00    +0.000 HD
ENDBRANCH   1  21
TORSDOF 3
ENDMDL
MODEL 2
REMARK VINA RESULT:      -7.1      5.230      8.178
REMARK  Name = 
REMARK  6 active torsions:
REMARK  status: ('A' for Active; 'I' for Inactive)
REMARK    1  A    between atoms: C_1  and  C_2
REMARK    2  A    between atoms: C_2  and  C_3
REMARK    3  A    between atoms: C_2  and  C_4
REMARK    4  A    between atoms: C_2  and  C_5
REMARK    5  A    between atoms: C_5  and  O_6
REMARK    6  A    between atoms: C_11  and  C_12
REMARK                            x       y       z     vdW  Elec       q    Type
REMARK                         _______ _______ _______ _____ _____    ______ ____
ROOT
ATOM      1  C   UNL     1      -0.154  11.407  19.804  0.00  0.00    +0.000 C 
ATOM      2  C   UNL     1       0.074  10.897  21.241  0.00  0.00    +0.000 C 
ATOM      3  C   UNL     1       0.453   9.430  21.352  0.00  0.00    +0.000 C 
ATOM      4  N   UNL     1       1.455   8.944  20.394  0.00  0.00    +0.000 NA
ATOM      5  C   UNL     1       1.438   7.468  20.490  0.00  0.00    +0.000 C 
ATOM      6  C   UNL     1       2.415   6.753  19.541  0.00  0.00    +0.000 C 
ATOM      7  C   UNL     1       2.249   7.267  18.105  0.00  0.00    +0.000 C 
ATOM      8  C   UNL     1       2.239   8.809  18.068  0.00  0.00    +0.000 C 
ATOM      9  C   UNL     1       1.162   9.376  19.016  0.00  0.00    +0.000 C 
ATOM     10  C   UNL     1       1.045  10.925  18.942  0.00  0.00    +0.000 C 
ENDROOT
BRANCH   6  11
ATOM     11  C   UNL     1       2.219   5.246  19.711  0.00  0.00    +0.000 A 
ATOM     12  C   UNL     1       2.017   4.401  18.608  0.00  0.00    +0.000 A 
ATOM     13  C   UNL     1       1.648   3.065  18.788  0.00  0.00    +0.000 A 
ATOM     14  C   UNL     1       1.500   2.548  20.069  0.00  0.00    +0.000 A 
ATOM     15  C   UNL     1       1.732   3.363  21.174  0.00  0.00    +0.000 A 
ATOM     16  C   UNL     1       2.089   4.703  20.998  0.00  0.00    +0.000 A 
ENDBRANCH   6  11
BRANCH   1  18
ATOM     17  C   UNL     1       0.420  13.761  20.797  0.00  0.00    +0.000 C 
ATOM     18  C   UNL     1      -0.462  12.968  19.809  0.00  0.00    +0.000 C 
ATOM     19  C   UNL     1      -1.946  13.215  20.207  0.00  0.00    +0.000 C 
ATOM     20  C   UNL     1      -0.276  13.614  18.418  0.00  0.00    +0.000 C 
ENDBRANCH   1  18
BRANCH   1  21
ATOM     21  O   UNL     1      -1.332  10.752  19.287  0.00  0.00    +0.000 OA
ATOM     22  H   UNL     1      -1.219  10.648  18.323  0.00  0.00    +0.000 HD
ENDBRANCH   1  21
TORSDOF 3
ENDMDL
MODEL 3
REMARK VINA RESULT:      -7.1      5.017      7.926
REMARK  Name = 
REMARK  6 active torsions:
REMARK  status: ('A' for Active; 'I' for Inactive)
REMARK    1  A    between atoms: C_1  and  C_2
REMARK    2  A    between atoms: C_2  and  C_3
REMARK    3  A    between atoms: C_2  and  C_4
REMARK    4  A    between atoms: C_2  and  C_5
REMARK    5  A    between atoms: C_5  and  O_6
REMARK    6  A    between atoms: C_11  and  C_12
REMARK                            x       y       z     vdW  Elec       q    Type
REMARK                         _______ _______ _______ _____ _____    ______ ____
ROOT
ATOM      1  C   UNL     1      -0.190  11.090  19.733  0.00  0.00    +0.000 C 
ATOM      2  C   UNL     1       0.011  10.613  21.185  0.00  0.00    +0.000 C 
ATOM      3  C   UNL     1       0.442   9.164  21.334  0.00  0.00    +0.000 C 
ATOM      4  N   UNL     1       1.491   8.701  20.416  0.00  0.00    +0.000 NA
ATOM      5  C   UNL     1       1.527   7.227  20.537  0.00  0.00    +0.000 C 
ATOM      6  C   UNL     1       2.559   6.535  19.632  0.00  0.00    +0.000 C 
ATOM      7  C   UNL     1       2.419   7.018  18.183  0.00  0.00    +0.000 C 
ATOM      8  C   UNL     1       2.353   8.558  18.118  0.00  0.00    +0.000 C 
ATOM      9  C   UNL     1       1.226   9.099  19.022  0.00  0.00    +0.000 C 
ATOM     10  C   UNL     1       1.053  10.641  18.917  0.00  0.00    +0.000 C 
ENDROOT
BRANCH   6  11
ATOM     11  C   UNL     1       2.415   5.023  19.822  0.00  0.00    +0.000 A 
ATOM     12  C   UNL     1       3.269   4.115  19.176  0.00  0.00    +0.000 A 
ATOM     13  C   UNL     1       3.008   2.743  19.203  0.00  0.00    +0.000 A 
ATOM     14  C   UNL     1       1.906   2.256  19.895  0.00  0.00    +0.000 A 
ATOM     15  C   UNL     1       1.069   3.140  20.572  0.00  0.00    +0.000 A 
ATOM     16  C   UNL     1       1.321   4.514  20.536  0.00  0.00    +0.000 A 
ENDBRANCH   6  11
BRANCH   1  18
ATOM     17  C   UNL     1      -0.444  13.264  18.296  0.00  0.00    +0.000 C 
ATOM     18  C   UNL     1      -0.557  12.638  19.702  0.00  0.00    +0.000 C 
ATOM     19  C   UNL     1       0.396  13.430  20.643  0.00  0.00    +0.000 C 
ATOM     20  C   UNL     1      -1.991  12.917  20.206  0.00  0.00    +0.000 C 
ENDBRANCH   1  18
BRANCH   1  21
ATOM     21  O   UNL     1      -1.326  10.383  19.193  0.00  0.00    +0.000 OA
ATOM     22  H   UNL     1      -1.124  10.157  18.264  0.00  0.00    +0.000 HD
ENDBRANCH   1  21
TORSDOF 3
ENDMDL
MODEL 4
REMARK VINA RESULT:      -7.0      5.077      8.063
REMARK  Name = 
REMARK  6 active torsions:
REMARK  status: ('A' for Active; 'I' for Inactive)
REMARK    1  A    between atoms: C_1  and  C_2
REMARK    2  A    between atoms: C_2  and  C_3
REMARK    3  A    between atoms: C_2  and  C_4
REMARK    4  A    between atoms: C_2  and  C_5
REMARK    5  A    between atoms: C_5  and  O_6
REMARK    6  A    between atoms: C_11  and  C_12
REMARK                            x       y       z     vdW  Elec       q    Type
REMARK                         _______ _______ _______ _____ _____    ______ ____
ROOT
ATOM      1  C   UNL     1      -0.200  11.131  19.690  0.00  0.00    +0.000 C 
ATOM      2  C   UNL     1       0.013  10.695  21.153  0.00  0.00    +0.000 C 
ATOM      3  C   UNL     1       0.452   9.253  21.340  0.00  0.00    +0.000 C 
ATOM      4  N   UNL     1       1.499   8.770  20.428  0.00  0.00    +0.000 NA
ATOM      5  C   UNL     1       1.543   7.301  20.590  0.00  0.00    +0.000 C 
ATOM      6  C   UNL     1       2.574   6.589  19.698  0.00  0.00    +0.000 C 
ATOM      7  C   UNL     1       2.422   7.031  18.237  0.00  0.00    +0.000 C 
ATOM      8  C   UNL     1       2.347   8.568  18.130  0.00  0.00    +0.000 C 
ATOM      9  C   UNL     1       1.223   9.128  19.025  0.00  0.00    +0.000 C 
ATOM     10  C   UNL     1       1.041  10.666  18.879  0.00  0.00    +0.000 C 
ENDROOT
BRANCH   6  11
ATOM     11  C   UNL     1       2.439   5.083  19.931  0.00  0.00    +0.000 A 
ATOM     12  C   UNL     1       1.308   4.533  20.556  0.00  0.00    +0.000 A 
ATOM     13  C   UNL     1       1.283   3.188  20.935  0.00  0.00    +0.000 A 
ATOM     14  C   UNL     1       2.374   2.369  20.676  0.00  0.00    +0.000 A 
ATOM     15  C   UNL     1       3.490   2.890  20.025  0.00  0.00    +0.000 A 
ATOM     16  C   UNL     1       3.523   4.237  19.655  0.00  0.00    +0.000 A 
ENDBRANCH   6  11
BRANCH   1  18
ATOM     17  C   UNL     1      -0.490  13.259  18.192  0.00  0.00    +0.000 C 
ATOM     18  C   UNL     1      -0.575  12.676  19.618  0.00  0.00    +0.000 C 
ATOM     19  C   UNL     1       0.390  13.500  20.518  0.00  0.00    +0.000 C 
ATOM     20  C   UNL     1      -2.001  12.963  20.139  0.00  0.00    +0.000 C 
ENDBRANCH   1  18
BRANCH   1  21
ATOM     21  O   UNL     1      -1.335  10.403  19.176  0.00  0.00    +0.000 OA
ATOM     22  H   UNL     1      -2.137  10.758  19.604  0.00  0.00    +0.000 HD
ENDBRANCH   1  21
TORSDOF 3
ENDMDL
MODEL 5
REMARK VINA RESULT:      -6.9      0.207      1.071
REMARK  Name = 
REMARK  6 active torsions:
REMARK  status: ('A' for Active; 'I' for Inactive)
REMARK    1  A    between atoms: C_1  and  C_2
REMARK    2  A    between atoms: C_2  and  C_3
REMARK    3  A    between atoms: C_2  and  C_4
REMARK    4  A    between atoms: C_2  and  C_5
REMARK    5  A    between atoms: C_5  and  O_6
REMARK    6  A    between atoms: C_11  and  C_12
REMARK                            x       y       z     vdW  Elec       q    Type
REMARK                         _______ _______ _______ _____ _____    ______ ____
ROOT
ATOM      1  C   UNL     1       2.474   3.939  19.142  0.00  0.00    +0.000 C 
ATOM      2  C   UNL     1       3.327   2.673  18.930  0.00  0.00    +0.000 C 
ATOM      3  C   UNL     1       4.162   2.663  17.661  0.00  0.00    +0.000 C 
ATOM      4  N   UNL     1       4.873   3.908  17.342  0.00  0.00    +0.000 NA
ATOM      5  C   UNL     1       5.354   3.765  15.950  0.00  0.00    +0.000 C 
ATOM      6  C   UNL     1       6.118   4.985  15.408  0.00  0.00    +0.000 C 
ATOM      7  C   UNL     1       5.318   6.273  15.641  0.00  0.00    +0.000 C 
ATOM      8  C   UNL     1       4.813   6.353  17.097  0.00  0.00    +0.000 C 
ATOM      9  C   UNL     1       4.006   5.093  17.470  0.00  0.00    +0.000 C 
ATOM     10  C   UNL     1       3.392   5.168  18.897  0.00  0.00    +0.000 C 
ENDROOT
BRANCH   6  11
ATOM     11  C   UNL     1       6.476   4.706  13.947  0.00  0.00    +0.000 A 
ATOM     12  C   UNL     1       5.881   3.655  13.231  0.00  0.00    +0.000 A 
ATOM     13  C   UNL     1       6.353   3.291  11.967  0.00  0.00    +0.000 A 
ATOM     14  C   UNL     1       7.411   3.984  11.391  0.00  0.00    +0.000 A 
ATOM     15  C   UNL     1       7.990   5.052  12.073  0.00  0.00    +0.000 A 
ATOM     16  C   UNL     1       7.527   5.411  13.342  0.00  0.00    +0.000 A 
ENDBRANCH   6  11
BRANCH   1  18
ATOM     17  C   UNL     1       0.332   3.186  20.448  0.00  0.00    +0.000 C 
ATOM     18  C   UNL     1       1.713   3.870  20.538  0.00  0.00    +0.000 C 
ATOM     19  C   UNL     1       1.486   5.307  21.092  0.00  0.00    +0.000 C 
ATOM     20  C   UNL     1       2.521   3.115  21.617  0.00  0.00    +0.000 C 
ENDBRANCH   1  18
BRANCH   1  21
ATOM     21  O   UNL     1       1.459   3.961  18.116  0.00  0.00    +0.000 OA
ATOM     22  H   UNL     1       1.848   4.368  17.319  0.00  0.00    +0.000 HD
ENDBRANCH   1  21
TORSDOF 3
ENDMDL
MODEL 6
REMARK VINA RESULT:      -6.8      5.167      8.081
REMARK  Name = 
REMARK  6 active torsions:
REMARK  status: ('A' for Active; 'I' for Inactive)
REMARK    1  A    between atoms: C_1  and  C_2
REMARK    2  A    between atoms: C_2  and  C_3
REMARK    3  A    between atoms: C_2  and  C_4
REMARK    4  A    between atoms: C_2  and  C_5
REMARK    5  A    between atoms: C_5  and  O_6
REMARK    6  A    between atoms: C_11  and  C_12
REMARK                            x       y       z     vdW  Elec       q    Type
REMARK                         _______ _______ _______ _____ _____    ______ ____
ROOT
ATOM      1  C   UNL     1       0.030  11.336  19.899  0.00  0.00    +0.000 C 
ATOM      2  C   UNL     1       0.257  10.825  21.336  0.00  0.00    +0.000 C 
ATOM      3  C   UNL     1       0.560   9.340  21.452  0.00  0.00    +0.000 C 
ATOM      4  N   UNL     1       1.516   8.795  20.479  0.00  0.00    +0.000 NA
ATOM      5  C   UNL     1       1.423   7.323  20.587  0.00  0.00    +0.000 C 
ATOM      6  C   UNL     1       2.342   6.550  19.626  0.00  0.00    +0.000 C 
ATOM      7  C   UNL     1       2.176   7.061  18.190  0.00  0.00    +0.000 C 
ATOM      8  C   UNL     1       2.248   8.602  18.140  0.00  0.00    +0.000 C 
ATOM      9  C   UNL     1       1.221   9.232  19.103  0.00  0.00    +0.000 C 
ATOM     10  C   UNL     1       1.185  10.785  19.019  0.00  0.00    +0.000 C 
ENDROOT
BRANCH   6  11
ATOM     11  C   UNL     1       2.069   5.056  19.812  0.00  0.00    +0.000 A 
ATOM     12  C   UNL     1       1.975   4.478  21.088  0.00  0.00    +0.000 A 
ATOM     13  C   UNL     1       1.919   3.091  21.244  0.00  0.00    +0.000 A 
ATOM     14  C   UNL     1       1.934   2.262  20.129  0.00  0.00    +0.000 A 
ATOM     15  C   UNL     1       1.992   2.820  18.854  0.00  0.00    +0.000 A 
ATOM     16  C   UNL     1       2.059   4.207  18.696  0.00  0.00    +0.000 A 
ENDBRANCH   6  11
BRANCH   1  18
ATOM     17  C   UNL     1      -1.651  13.320  20.203  0.00  0.00    +0.000 C 
ATOM     18  C   UNL     1      -0.195  12.911  19.898  0.00  0.00    +0.000 C 
ATOM     19  C   UNL     1       0.174  13.499  18.505  0.00  0.00    +0.000 C 
ATOM     20  C   UNL     1       0.703  13.638  20.924  0.00  0.00    +0.000 C 
ENDBRANCH   1  18
BRANCH   1  21
ATOM     21  O   UNL     1      -1.191  10.741  19.410  0.00  0.00    +0.000 OA
ATOM     22  H   UNL     1      -0.972  10.216  18.617  0.00  0.00    +0.000 HD
ENDBRANCH   1  21
TORSDOF 3
ENDMDL
MODEL 7
REMARK VINA RESULT:      -6.7      4.733      7.260
REMARK  Name = 
REMARK  6 active torsions:
REMARK  status: ('A' for Active; 'I' for Inactive)
REMARK    1  A    between atoms: C_1  and  C_2
REMARK    2  A    between atoms: C_2  and  C_3
REMARK    3  A    between atoms: C_2  and  C_4
REMARK    4  A    between atoms: C_2  and  C_5
REMARK    5  A    between atoms: C_5  and  O_6
REMARK    6  A    between atoms: C_11  and  C_12
REMARK                            x       y       z     vdW  Elec       q    Type
REMARK                         _______ _______ _______ _____ _____    ______ ____
ROOT
ATOM      1  C   UNL     1       0.031  10.685  19.769  0.00  0.00    +0.000 C 
ATOM      2  C   UNL     1       0.272  10.066  21.159  0.00  0.00    +0.000 C 
ATOM      3  C   UNL     1       0.747   8.622  21.149  0.00  0.00    +0.000 C 
ATOM      4  N   UNL     1       1.792   8.291  20.171  0.00  0.00    +0.000 NA
ATOM      5  C   UNL     1       1.873   6.814  20.137  0.00  0.00    +0.000 C 
ATOM      6  C   UNL     1       2.909   6.252  19.148  0.00  0.00    +0.000 C 
ATOM      7  C   UNL     1       2.728   6.880  17.760  0.00  0.00    +0.000 C 
ATOM      8  C   UNL     1       2.616   8.415  17.859  0.00  0.00    +0.000 C 
ATOM      9  C   UNL     1       1.491   8.824  18.831  0.00  0.00    +0.000 C 
ATOM     10  C   UNL     1       1.271  10.362  18.892  0.00  0.00    +0.000 C 
ENDROOT
BRANCH   6  11
ATOM     11  C   UNL     1       2.812   4.726  19.181  0.00  0.00    +0.000 A 
ATOM     12  C   UNL     1       3.934   3.923  19.442  0.00  0.00    +0.000 A 
ATOM     13  C   UNL     1       3.876   2.536  19.279  0.00  0.00    +0.000 A 
ATOM     14  C   UNL     1       2.692   1.929  18.876  0.00  0.00    +0.000 A 
ATOM     15  C   UNL     1       1.560   2.708  18.648  0.00  0.00    +0.000 A 
ATOM     16  C   UNL     1       1.618   4.097  18.799  0.00  0.00    +0.000 A 
ENDBRANCH   6  11
BRANCH   1  18
ATOM     17  C   UNL     1      -1.900  12.454  19.762  0.00  0.00    +0.000 C 
ATOM     18  C   UNL     1      -0.382  12.216  19.905  0.00  0.00    +0.000 C 
ATOM     19  C   UNL     1       0.329  13.058  18.807  0.00  0.00    +0.000 C 
ATOM     20  C   UNL     1       0.046  12.826  21.259  0.00  0.00    +0.000 C 
ENDBRANCH   1  18
BRANCH   1  21
ATOM     21  O   UNL     1      -1.094  10.004  19.173  0.00  0.00    +0.000 OA
ATOM     22  H   UNL     1      -1.900  10.289  19.644  0.00  0.00    +0.000 HD
ENDBRANCH   1  21
TORSDOF 3
ENDMDL
MODEL 8
REMARK VINA RESULT:      -6.7      4.723      7.011
REMARK  Name = 
REMARK  6 active torsions:
REMARK  status: ('A' for Active; 'I' for Inactive)
REMARK    1  A    between atoms: C_1  and  C_2
REMARK    2  A    between atoms: C_2  and  C_3
REMARK    3  A    between atoms: C_2  and  C_4
REMARK    4  A    between atoms: C_2  and  C_5
REMARK    5  A    between atoms: C_5  and  O_6
REMARK    6  A    between atoms: C_11  and  C_12
REMARK                            x       y       z     vdW  Elec       q    Type
REMARK                         _______ _______ _______ _____ _____    ______ ____
ROOT
ATOM      1  C   UNL     1      -0.181  10.642  20.677  0.00  0.00    +0.000 C 
ATOM      2  C   UNL     1       0.325   9.705  21.792  0.00  0.00    +0.000 C 
ATOM      3  C   UNL     1       0.912   8.389  21.311  0.00  0.00    +0.000 C 
ATOM      4  N   UNL     1       1.815   8.465  20.155  0.00  0.00    +0.000 NA
ATOM      5  C   UNL     1       2.013   7.074  19.692  0.00  0.00    +0.000 C 
ATOM      6  C   UNL     1       2.925   6.932  18.461  0.00  0.00    +0.000 C 
ATOM      7  C   UNL     1       2.478   7.883  17.344  0.00  0.00    +0.000 C 
ATOM      8  C   UNL     1       2.254   9.309  17.889  0.00  0.00    +0.000 C 
ATOM      9  C   UNL     1       1.264   9.298  19.072  0.00  0.00    +0.000 C 
ATOM     10  C   UNL     1       0.929  10.724  19.595  0.00  0.00    +0.000 C 
ENDROOT
BRANCH   6  11
ATOM     11  C   UNL     1       2.962   5.454  18.070  0.00  0.00    +0.000 A 
ATOM     12  C   UNL     1       1.795   4.675  18.023  0.00  0.00    +0.000 A 
ATOM     13  C   UNL     1       1.864   3.289  17.855  0.00  0.00    +0.000 A 
ATOM     14  C   UNL     1       3.097   2.665  17.709  0.00  0.00    +0.000 A 
ATOM     15  C   UNL     1       4.263   3.427  17.717  0.00  0.00    +0.000 A 
ATOM     16  C   UNL     1       4.197   4.812  17.897  0.00  0.00    +0.000 A 
ENDBRANCH   6  11
BRANCH   1  18
ATOM     17  C   UNL     1      -1.057  11.914  22.792  0.00  0.00    +0.000 C 
ATOM     18  C   UNL     1      -0.694  12.016  21.296  0.00  0.00    +0.000 C 
ATOM     19  C   UNL     1      -1.965  12.498  20.538  0.00  0.00    +0.000 C 
ATOM     20  C   UNL     1       0.346  13.151  21.159  0.00  0.00    +0.000 C 
ENDBRANCH   1  18
BRANCH   1  21
ATOM     21  O   UNL     1      -1.324  10.012  20.060  0.00  0.00    +0.000 OA
ATOM     22  H   UNL     1      -1.435  10.398  19.171  0.00  0.00    +0.000 HD
ENDBRANCH   1  21
TORSDOF 3
ENDMDL
MODEL 9
REMARK VINA RESULT:      -6.7      4.858      6.859
REMARK  Name = 
REMARK  6 active torsions:
REMARK  status: ('A' for Active; 'I' for Inactive)
REMARK    1  A    between atoms: C_1  and  C_2
REMARK    2  A    between atoms: C_2  and  C_3
REMARK    3  A    between atoms: C_2  and  C_4
REMARK    4  A    between atoms: C_2  and  C_5
REMARK    5  A    between atoms: C_5  and  O_6
REMARK    6  A    between atoms: C_11  and  C_12
REMARK                            x       y       z     vdW  Elec       q    Type
REMARK                         _______ _______ _______ _____ _____    ______ ____
ROOT
ATOM      1  C   UNL     1       0.297  11.026  20.836  0.00  0.00    +0.000 C 
ATOM      2  C   UNL     1       0.198  11.198  19.308  0.00  0.00    +0.000 C 
ATOM      3  C   UNL     1       1.058  10.246  18.494  0.00  0.00    +0.000 C 
ATOM      4  N   UNL     1       1.057   8.841  18.926  0.00  0.00    +0.000 NA
ATOM      5  C   UNL     1       2.166   8.184  18.200  0.00  0.00    +0.000 C 
ATOM      6  C   UNL     1       2.352   6.693  18.528  0.00  0.00    +0.000 C 
ATOM      7  C   UNL     1       2.411   6.476  20.045  0.00  0.00    +0.000 C 
ATOM      8  C   UNL     1       1.253   7.209  20.753  0.00  0.00    +0.000 C 
ATOM      9  C   UNL     1       1.240   8.707  20.382  0.00  0.00    +0.000 C 
ATOM     10  C   UNL     1       0.151   9.511  21.146  0.00  0.00    +0.000 C 
ENDROOT
BRANCH   6  11
ATOM     11  C   UNL     1       3.575   6.190  17.759  0.00  0.00    +0.000 A 
ATOM     12  C   UNL     1       4.483   7.077  17.158  0.00  0.00    +0.000 A 
ATOM     13  C   UNL     1       5.481   6.609  16.300  0.00  0.00    +0.000 A 
ATOM     14  C   UNL     1       5.603   5.247  16.048  0.00  0.00    +0.000 A 
ATOM     15  C   UNL     1       4.733   4.350  16.664  0.00  0.00    +0.000 A 
ATOM     16  C   UNL     1       3.726   4.818  17.514  0.00  0.00    +0.000 A 
ENDBRANCH   6  11
BRANCH   1  18
ATOM     17  C   UNL     1      -0.070  13.379  21.924  0.00  0.00    +0.000 C 
ATOM     18  C   UNL     1      -0.706  12.017  21.574  0.00  0.00    +0.000 C 
ATOM     19  C   UNL     1      -1.203  11.379  22.903  0.00  0.00    +0.000 C 
ATOM     20  C   UNL     1      -1.971  12.311  20.737  0.00  0.00    +0.000 C 
ENDBRANCH   1  18
BRANCH   1  21
ATOM     21  O   UNL     1       1.630  11.410  21.236  0.00  0.00    +0.000 OA
ATOM     22  H   UNL     1       2.192  11.413  20.438  0.00  0.00    +0.000 HD
ENDBRANCH   1  21
TORSDOF 3
ENDMDL
