MODEL 1
REMARK VINA RESULT:      -6.9      0.000      0.000
REMARK  Name = 
REMARK  8 active torsions:
REMARK  status: ('A' for Active; 'I' for Inactive)
REMARK    1  A    between atoms: C_1  and  C_2
REMARK    2  A    between atoms: C_2  and  C_3
REMARK    3  A    between atoms: C_3  and  C_4
REMARK    4  A    between atoms: C_4  and  C_5
REMARK    5  A    between atoms: C_5  and  C_6
REMARK    6  A    between atoms: C_6  and  C_7
REMARK    7  A    between atoms: C_7  and  C_8
REMARK    8  A    between atoms: C_8  and  N_9
REMARK                            x       y       z     vdW  Elec       q    Type
REMARK                         _______ _______ _______ _____ _____    ______ ____
ROOT
ATOM      1  N   UNL     1       5.833   5.713  16.669  0.00  0.00    +0.000 N 
ATOM      2  C   UNL     1       6.686   6.656  17.210  0.00  0.00    +0.000 C 
ATOM      3  N   UNL     1       6.972   7.832  16.720  0.00  0.00    +0.000 NA
ATOM      4  C   UNL     1       7.753   8.498  17.804  0.00  0.00    +0.000 C 
ATOM      5  C   UNL     1       8.374   7.357  18.573  0.00  0.00    +0.000 C 
ATOM      6  N   UNL     1       7.347   6.381  18.406  0.00  0.00    +0.000 N 
ATOM      7  C   UNL     1       7.001   5.382  19.276  0.00  0.00    +0.000 C 
ATOM      8  O   UNL     1       7.493   5.217  20.387  0.00  0.00    +0.000 OA
ATOM      9  C   UNL     1       5.950   4.575  18.749  0.00  0.00    +0.000 A 
ATOM     10  N   UNL     1       5.244   3.555  19.314  0.00  0.00    +0.000 N 
ATOM     11  C   UNL     1       4.376   3.101  18.355  0.00  0.00    +0.000 A 
ATOM     12  N   UNL     1       4.479   3.786  17.232  0.00  0.00    +0.000 NA
ATOM     13  C   UNL     1       5.430   4.723  17.491  0.00  0.00    +0.000 A 
ATOM     14  H   UNL     1       5.337   3.213  20.262  0.00  0.00    +0.000 HD
ENDROOT
BRANCH   1  15
ATOM     15  C   UNL     1       5.487   5.700  15.261  0.00  0.00    +0.000 C 
BRANCH  15  16
ATOM     16  C   UNL     1       6.657   5.126  14.447  0.00  0.00    +0.000 C 
BRANCH  16  17
ATOM     17  C   UNL     1       6.396   3.714  13.915  0.00  0.00    +0.000 C 
BRANCH  17  18
ATOM     18  C   UNL     1       4.995   3.576  13.323  0.00  0.00    +0.000 C 
BRANCH  18  19
ATOM     19  C   UNL     1       5.015   3.053  11.891  0.00  0.00    +0.000 C 
BRANCH  19  20
ATOM     20  C   UNL     1       4.352   4.072  10.964  0.00  0.00    +0.000 C 
BRANCH  20  22
ATOM     21  C   UNL     1       2.554   4.488   9.265  0.00  0.00    +0.000 C 
ATOM     22  C   UNL     1       3.190   3.462  10.189  0.00  0.00    +0.000 C 
ENDBRANCH  20  22
ENDBRANCH  19  20
ENDBRANCH  18  19
ENDBRANCH  17  18
ENDBRANCH  16  17
ENDBRANCH  15  16
ENDBRANCH   1  15
TORSDOF 7
ENDMDL
MODEL 2
REMARK VINA RESULT:      -6.9      2.802      3.486
REMARK  Name = 
REMARK  8 active torsions:
REMARK  status: ('A' for Active; 'I' for Inactive)
REMARK    1  A    between atoms: C_1  and  C_2
REMARK    2  A    between atoms: C_2  and  C_3
REMARK    3  A    between atoms: C_3  and  C_4
REMARK    4  A    between atoms: C_4  and  C_5
REMARK    5  A    between atoms: C_5  and  C_6
REMARK    6  A    between atoms: C_6  and  C_7
REMARK    7  A    between atoms: C_7  and  C_8
REMARK    8  A    between atoms: C_8  and  N_9
REMARK                            x       y       z     vdW  Elec       q    Type
REMARK                         _______ _______ _______ _____ _____    ______ ____
ROOT
ATOM      1  N   UNL     1       4.537   5.715  18.301  0.00  0.00    +0.000 N 
ATOM      2  C   UNL     1       3.578   6.709  18.343  0.00  0.00    +0.000 C 
ATOM      3  N   UNL     1       3.451   7.716  17.522  0.00  0.00    +0.000 NA
ATOM      4  C   UNL     1       2.144   8.330  17.897  0.00  0.00    +0.000 C 
ATOM      5  C   UNL     1       1.960   7.961  19.350  0.00  0.00    +0.000 C 
ATOM      6  N   UNL     1       2.614   6.693  19.349  0.00  0.00    +0.000 N 
ATOM      7  C   UNL     1       2.324   5.609  20.135  0.00  0.00    +0.000 C 
ATOM      8  O   UNL     1       1.393   5.548  20.931  0.00  0.00    +0.000 OA
ATOM      9  C   UNL     1       3.218   4.528  19.879  0.00  0.00    +0.000 A 
ATOM     10  N   UNL     1       3.228   3.251  20.354  0.00  0.00    +0.000 N 
ATOM     11  C   UNL     1       4.331   2.640  19.816  0.00  0.00    +0.000 A 
ATOM     12  N   UNL     1       5.002   3.449  19.017  0.00  0.00    +0.000 NA
ATOM     13  C   UNL     1       4.290   4.607  19.030  0.00  0.00    +0.000 A 
ATOM     14  H   UNL     1       2.543   2.835  20.973  0.00  0.00    +0.000 HD
ENDROOT
BRANCH   1  15
ATOM     15  C   UNL     1       5.806   5.893  17.623  0.00  0.00    +0.000 C 
BRANCH  15  16
ATOM     16  C   UNL     1       5.725   5.298  16.208  0.00  0.00    +0.000 C 
BRANCH  16  17
ATOM     17  C   UNL     1       7.084   4.882  15.641  0.00  0.00    +0.000 C 
BRANCH  17  18
ATOM     18  C   UNL     1       7.067   4.799  14.116  0.00  0.00    +0.000 C 
BRANCH  18  19
ATOM     19  C   UNL     1       5.985   3.860  13.594  0.00  0.00    +0.000 C 
BRANCH  19  20
ATOM     20  C   UNL     1       6.341   3.404  12.179  0.00  0.00    +0.000 C 
BRANCH  20  22
ATOM     21  C   UNL     1       4.042   3.261  11.187  0.00  0.00    +0.000 C 
ATOM     22  C   UNL     1       5.279   2.478  11.597  0.00  0.00    +0.000 C 
ENDBRANCH  20  22
ENDBRANCH  19  20
ENDBRANCH  18  19
ENDBRANCH  17  18
ENDBRANCH  16  17
ENDBRANCH  15  16
ENDBRANCH   1  15
TORSDOF 7
ENDMDL
MODEL 3
REMARK VINA RESULT:      -6.9      4.743      7.864
REMARK  Name = 
REMARK  8 active torsions:
REMARK  status: ('A' for Active; 'I' for Inactive)
REMARK    1  A    between atoms: C_1  and  C_2
REMARK    2  A    between atoms: C_2  and  C_3
REMARK    3  A    between atoms: C_3  and  C_4
REMARK    4  A    between atoms: C_4  and  C_5
REMARK    5  A    between atoms: C_5  and  C_6
REMARK    6  A    between atoms: C_6  and  C_7
REMARK    7  A    between atoms: C_7  and  C_8
REMARK    8  A    between atoms: C_8  and  N_9
REMARK                            x       y       z     vdW  Elec       q    Type
REMARK                         _______ _______ _______ _____ _____    ______ ____
ROOT
ATOM      1  N   UNL     1       3.165   5.228  18.267  0.00  0.00    +0.000 N 
ATOM      2  C   UNL     1       2.426   4.123  18.645  0.00  0.00    +0.000 C 
ATOM      3  N   UNL     1       1.176   3.877  18.362  0.00  0.00    +0.000 NA
ATOM      4  C   UNL     1       0.966   2.473  18.822  0.00  0.00    +0.000 C 
ATOM      5  C   UNL     1       1.987   2.283  19.918  0.00  0.00    +0.000 C 
ATOM      6  N   UNL     1       3.022   3.127  19.417  0.00  0.00    +0.000 N 
ATOM      7  C   UNL     1       4.373   2.976  19.587  0.00  0.00    +0.000 C 
ATOM      8  O   UNL     1       4.907   2.031  20.156  0.00  0.00    +0.000 OA
ATOM      9  C   UNL     1       5.096   4.041  18.973  0.00  0.00    +0.000 A 
ATOM     10  N   UNL     1       6.436   4.230  18.815  0.00  0.00    +0.000 N 
ATOM     11  C   UNL     1       6.591   5.440  18.188  0.00  0.00    +0.000 A 
ATOM     12  N   UNL     1       5.431   6.011  17.926  0.00  0.00    +0.000 NA
ATOM     13  C   UNL     1       4.505   5.125  18.380  0.00  0.00    +0.000 A 
ATOM     14  H   UNL     1       7.170   3.591  19.095  0.00  0.00    +0.000 HD
ENDROOT
BRANCH   1  15
ATOM     15  C   UNL     1       2.543   6.484  17.893  0.00  0.00    +0.000 C 
BRANCH  15  16
ATOM     16  C   UNL     1       2.405   7.380  19.134  0.00  0.00    +0.000 C 
BRANCH  16  17
ATOM     17  C   UNL     1       1.858   8.776  18.821  0.00  0.00    +0.000 C 
BRANCH  17  18
ATOM     18  C   UNL     1       0.875   9.257  19.886  0.00  0.00    +0.000 C 
BRANCH  18  19
ATOM     19  C   UNL     1       0.945   8.428  21.163  0.00  0.00    +0.000 C 
BRANCH  19  20
ATOM     20  C   UNL     1       1.081   9.356  22.370  0.00  0.00    +0.000 C 
BRANCH  20  22
ATOM     21  C   UNL     1      -0.906  10.802  22.871  0.00  0.00    +0.000 C 
ATOM     22  C   UNL     1      -0.225   9.471  23.148  0.00  0.00    +0.000 C 
ENDBRANCH  20  22
ENDBRANCH  19  20
ENDBRANCH  18  19
ENDBRANCH  17  18
ENDBRANCH  16  17
ENDBRANCH  15  16
ENDBRANCH   1  15
TORSDOF 7
ENDMDL
MODEL 4
REMARK VINA RESULT:      -6.8      4.519      7.407
REMARK  Name = 
REMARK  8 active torsions:
REMARK  status: ('A' for Active; 'I' for Inactive)
REMARK    1  A    between atoms: C_1  and  C_2
REMARK    2  A    between atoms: C_2  and  C_3
REMARK    3  A    between atoms: C_3  and  C_4
REMARK    4  A    between atoms: C_4  and  C_5
REMARK    5  A    between atoms: C_5  and  C_6
REMARK    6  A    between atoms: C_6  and  C_7
REMARK    7  A    between atoms: C_7  and  C_8
REMARK    8  A    between atoms: C_8  and  N_9
REMARK                            x       y       z     vdW  Elec       q    Type
REMARK                         _______ _______ _______ _____ _____    ______ ____
ROOT
ATOM      1  N   UNL     1       3.233   5.445  19.519  0.00  0.00    +0.000 N 
ATOM      2  C   UNL     1       2.527   4.432  20.138  0.00  0.00    +0.000 C 
ATOM      3  N   UNL     1       1.259   4.433  20.451  0.00  0.00    +0.000 NA
ATOM      4  C   UNL     1       0.989   3.030  20.883  0.00  0.00    +0.000 C 
ATOM      5  C   UNL     1       2.325   2.525  21.372  0.00  0.00    +0.000 C 
ATOM      6  N   UNL     1       3.182   3.255  20.495  0.00  0.00    +0.000 N 
ATOM      7  C   UNL     1       4.404   2.866  20.014  0.00  0.00    +0.000 C 
ATOM      8  O   UNL     1       4.926   1.776  20.222  0.00  0.00    +0.000 OA
ATOM      9  C   UNL     1       4.984   3.877  19.192  0.00  0.00    +0.000 A 
ATOM     10  N   UNL     1       6.123   3.868  18.443  0.00  0.00    +0.000 N 
ATOM     11  C   UNL     1       6.231   5.113  17.879  0.00  0.00    +0.000 A 
ATOM     12  N   UNL     1       5.221   5.894  18.212  0.00  0.00    +0.000 NA
ATOM     13  C   UNL     1       4.431   5.114  18.996  0.00  0.00    +0.000 A 
ATOM     14  H   UNL     1       6.754   3.086  18.319  0.00  0.00    +0.000 HD
ENDROOT
BRANCH   1  15
ATOM     15  C   UNL     1       2.785   6.825  19.541  0.00  0.00    +0.000 C 
BRANCH  15  16
ATOM     16  C   UNL     1       2.125   7.175  18.197  0.00  0.00    +0.000 C 
BRANCH  16  17
ATOM     17  C   UNL     1       2.352   8.626  17.766  0.00  0.00    +0.000 C 
BRANCH  17  18
ATOM     18  C   UNL     1       1.061   9.443  17.805  0.00  0.00    +0.000 C 
BRANCH  18  19
ATOM     19  C   UNL     1       1.030  10.430  18.966  0.00  0.00    +0.000 C 
BRANCH  19  20
ATOM     20  C   UNL     1       0.101   9.905  20.060  0.00  0.00    +0.000 C 
BRANCH  20  22
ATOM     21  C   UNL     1       1.174   8.930  22.107  0.00  0.00    +0.000 C 
ATOM     22  C   UNL     1       0.644  10.197  21.455  0.00  0.00    +0.000 C 
ENDBRANCH  20  22
ENDBRANCH  19  20
ENDBRANCH  18  19
ENDBRANCH  17  18
ENDBRANCH  16  17
ENDBRANCH  15  16
ENDBRANCH   1  15
TORSDOF 7
ENDMDL
MODEL 5
REMARK VINA RESULT:      -6.7      2.812      3.697
REMARK  Name = 
REMARK  8 active torsions:
REMARK  status: ('A' for Active; 'I' for Inactive)
REMARK    1  A    between atoms: C_1  and  C_2
REMARK    2  A    between atoms: C_2  and  C_3
REMARK    3  A    between atoms: C_3  and  C_4
REMARK    4  A    between atoms: C_4  and  C_5
REMARK    5  A    between atoms: C_5  and  C_6
REMARK    6  A    between atoms: C_6  and  C_7
REMARK    7  A    between atoms: C_7  and  C_8
REMARK    8  A    between atoms: C_8  and  N_9
REMARK                            x       y       z     vdW  Elec       q    Type
REMARK                         _______ _______ _______ _____ _____    ______ ____
ROOT
ATOM      1  N   UNL     1       4.182   5.233  17.948  0.00  0.00    +0.000 N 
ATOM      2  C   UNL     1       3.404   6.268  18.431  0.00  0.00    +0.000 C 
ATOM      3  N   UNL     1       3.443   7.520  18.062  0.00  0.00    +0.000 NA
ATOM      4  C   UNL     1       2.259   8.134  18.733  0.00  0.00    +0.000 C 
ATOM      5  C   UNL     1       2.027   7.268  19.948  0.00  0.00    +0.000 C 
ATOM      6  N   UNL     1       2.458   6.014  19.422  0.00  0.00    +0.000 N 
ATOM      7  C   UNL     1       1.996   4.769  19.758  0.00  0.00    +0.000 C 
ATOM      8  O   UNL     1       1.074   4.549  20.535  0.00  0.00    +0.000 OA
ATOM      9  C   UNL     1       2.695   3.747  19.050  0.00  0.00    +0.000 A 
ATOM     10  N   UNL     1       2.494   2.400  19.006  0.00  0.00    +0.000 N 
ATOM     11  C   UNL     1       3.475   1.883  18.200  0.00  0.00    +0.000 A 
ATOM     12  N   UNL     1       4.266   2.824  17.721  0.00  0.00    +0.000 NA
ATOM     13  C   UNL     1       3.759   3.983  18.220  0.00  0.00    +0.000 A 
ATOM     14  H   UNL     1       1.753   1.888  19.468  0.00  0.00    +0.000 HD
ENDROOT
BRANCH   1  15
ATOM     15  C   UNL     1       5.459   5.463  17.300  0.00  0.00    +0.000 C 
BRANCH  15  16
ATOM     16  C   UNL     1       5.256   5.563  15.780  0.00  0.00    +0.000 C 
BRANCH  16  17
ATOM     17  C   UNL     1       6.325   4.825  14.971  0.00  0.00    +0.000 C 
BRANCH  17  18
ATOM     18  C   UNL     1       5.726   3.714  14.110  0.00  0.00    +0.000 C 
BRANCH  18  19
ATOM     19  C   UNL     1       6.283   3.711  12.691  0.00  0.00    +0.000 C 
BRANCH  19  20
ATOM     20  C   UNL     1       5.309   2.988  11.760  0.00  0.00    +0.000 C 
BRANCH  20  22
ATOM     21  C   UNL     1       7.286   1.660  10.971  0.00  0.00    +0.000 C 
ATOM     22  C   UNL     1       5.819   1.605  11.369  0.00  0.00    +0.000 C 
ENDBRANCH  20  22
ENDBRANCH  19  20
ENDBRANCH  18  19
ENDBRANCH  17  18
ENDBRANCH  16  17
ENDBRANCH  15  16
ENDBRANCH   1  15
TORSDOF 7
ENDMDL
MODEL 6
REMARK VINA RESULT:      -6.6      2.460      4.482
REMARK  Name = 
REMARK  8 active torsions:
REMARK  status: ('A' for Active; 'I' for Inactive)
REMARK    1  A    between atoms: C_1  and  C_2
REMARK    2  A    between atoms: C_2  and  C_3
REMARK    3  A    between atoms: C_3  and  C_4
REMARK    4  A    between atoms: C_4  and  C_5
REMARK    5  A    between atoms: C_5  and  C_6
REMARK    6  A    between atoms: C_6  and  C_7
REMARK    7  A    between atoms: C_7  and  C_8
REMARK    8  A    between atoms: C_8  and  N_9
REMARK                            x       y       z     vdW  Elec       q    Type
REMARK                         _______ _______ _______ _____ _____    ______ ____
ROOT
ATOM      1  N   UNL     1       4.956   5.032  18.627  0.00  0.00    +0.000 N 
ATOM      2  C   UNL     1       4.489   3.774  18.956  0.00  0.00    +0.000 C 
ATOM      3  N   UNL     1       5.112   2.858  19.646  0.00  0.00    +0.000 NA
ATOM      4  C   UNL     1       4.076   1.810  19.881  0.00  0.00    +0.000 C 
ATOM      5  C   UNL     1       3.115   1.969  18.727  0.00  0.00    +0.000 C 
ATOM      6  N   UNL     1       3.222   3.377  18.531  0.00  0.00    +0.000 N 
ATOM      7  C   UNL     1       2.251   4.229  18.075  0.00  0.00    +0.000 C 
ATOM      8  O   UNL     1       1.095   3.905  17.824  0.00  0.00    +0.000 OA
ATOM      9  C   UNL     1       2.738   5.565  17.972  0.00  0.00    +0.000 A 
ATOM     10  N   UNL     1       2.092   6.725  17.664  0.00  0.00    +0.000 N 
ATOM     11  C   UNL     1       3.041   7.715  17.669  0.00  0.00    +0.000 A 
ATOM     12  N   UNL     1       4.236   7.251  17.980  0.00  0.00    +0.000 NA
ATOM     13  C   UNL     1       4.039   5.925  18.203  0.00  0.00    +0.000 A 
ATOM     14  H   UNL     1       1.102   6.832  17.483  0.00  0.00    +0.000 HD
ENDROOT
BRANCH   1  15
ATOM     15  C   UNL     1       6.371   5.350  18.605  0.00  0.00    +0.000 C 
BRANCH  15  16
ATOM     16  C   UNL     1       7.020   4.733  17.356  0.00  0.00    +0.000 C 
BRANCH  16  17
ATOM     17  C   UNL     1       6.784   5.547  16.081  0.00  0.00    +0.000 C 
BRANCH  17  18
ATOM     18  C   UNL     1       7.191   4.777  14.826  0.00  0.00    +0.000 C 
BRANCH  18  19
ATOM     19  C   UNL     1       6.019   4.044  14.184  0.00  0.00    +0.000 C 
BRANCH  19  20
ATOM     20  C   UNL     1       6.239   3.950  12.674  0.00  0.00    +0.000 C 
BRANCH  20  22
ATOM     21  C   UNL     1       4.221   3.254  11.356  0.00  0.00    +0.000 C 
ATOM     22  C   UNL     1       5.481   2.778  12.062  0.00  0.00    +0.000 C 
ENDBRANCH  20  22
ENDBRANCH  19  20
ENDBRANCH  18  19
ENDBRANCH  17  18
ENDBRANCH  16  17
ENDBRANCH  15  16
ENDBRANCH   1  15
TORSDOF 7
ENDMDL
MODEL 7
REMARK VINA RESULT:      -6.6      1.819      3.437
REMARK  Name = 
REMARK  8 active torsions:
REMARK  status: ('A' for Active; 'I' for Inactive)
REMARK    1  A    between atoms: C_1  and  C_2
REMARK    2  A    between atoms: C_2  and  C_3
REMARK    3  A    between atoms: C_3  and  C_4
REMARK    4  A    between atoms: C_4  and  C_5
REMARK    5  A    between atoms: C_5  and  C_6
REMARK    6  A    between atoms: C_6  and  C_7
REMARK    7  A    between atoms: C_7  and  C_8
REMARK    8  A    between atoms: C_8  and  N_9
REMARK                            x       y       z     vdW  Elec       q    Type
REMARK                         _______ _______ _______ _____ _____    ______ ____
ROOT
ATOM      1  N   UNL     1       5.297   3.969  16.840  0.00  0.00    +0.000 N 
ATOM      2  C   UNL     1       3.966   3.891  17.201  0.00  0.00    +0.000 C 
ATOM      3  N   UNL     1       3.050   3.126  16.671  0.00  0.00    +0.000 NA
ATOM      4  C   UNL     1       1.874   3.284  17.576  0.00  0.00    +0.000 C 
ATOM      5  C   UNL     1       2.058   4.649  18.194  0.00  0.00    +0.000 C 
ATOM      6  N   UNL     1       3.483   4.693  18.234  0.00  0.00    +0.000 N 
ATOM      7  C   UNL     1       4.269   5.340  19.150  0.00  0.00    +0.000 C 
ATOM      8  O   UNL     1       3.851   5.939  20.135  0.00  0.00    +0.000 OA
ATOM      9  C   UNL     1       5.654   5.191  18.844  0.00  0.00    +0.000 A 
ATOM     10  N   UNL     1       6.763   5.578  19.534  0.00  0.00    +0.000 N 
ATOM     11  C   UNL     1       7.845   5.222  18.771  0.00  0.00    +0.000 A 
ATOM     12  N   UNL     1       7.483   4.617  17.655  0.00  0.00    +0.000 NA
ATOM     13  C   UNL     1       6.126   4.567  17.720  0.00  0.00    +0.000 A 
ATOM     14  H   UNL     1       6.780   6.028  20.441  0.00  0.00    +0.000 HD
ENDROOT
BRANCH   1  15
ATOM     15  C   UNL     1       5.770   3.557  15.533  0.00  0.00    +0.000 C 
BRANCH  15  16
ATOM     16  C   UNL     1       5.977   4.794  14.645  0.00  0.00    +0.000 C 
BRANCH  16  17
ATOM     17  C   UNL     1       6.493   4.460  13.243  0.00  0.00    +0.000 C 
BRANCH  17  18
ATOM     18  C   UNL     1       6.152   3.029  12.834  0.00  0.00    +0.000 C 
BRANCH  18  19
ATOM     19  C   UNL     1       5.476   2.957  11.469  0.00  0.00    +0.000 C 
BRANCH  19  20
ATOM     20  C   UNL     1       4.049   3.497  11.575  0.00  0.00    +0.000 C 
BRANCH  20  22
ATOM     21  C   UNL     1       2.844   4.349   9.547  0.00  0.00    +0.000 C 
ATOM     22  C   UNL     1       3.208   3.118  10.361  0.00  0.00    +0.000 C 
ENDBRANCH  20  22
ENDBRANCH  19  20
ENDBRANCH  18  19
ENDBRANCH  17  18
ENDBRANCH  16  17
ENDBRANCH  15  16
ENDBRANCH   1  15
TORSDOF 7
ENDMDL
MODEL 8
REMARK VINA RESULT:      -6.5      4.476      7.333
REMARK  Name = 
REMARK  8 active torsions:
REMARK  status: ('A' for Active; 'I' for Inactive)
REMARK    1  A    between atoms: C_1  and  C_2
REMARK    2  A    between atoms: C_2  and  C_3
REMARK    3  A    between atoms: C_3  and  C_4
REMARK    4  A    between atoms: C_4  and  C_5
REMARK    5  A    between atoms: C_5  and  C_6
REMARK    6  A    between atoms: C_6  and  C_7
REMARK    7  A    between atoms: C_7  and  C_8
REMARK    8  A    between atoms: C_8  and  N_9
REMARK                            x       y       z     vdW  Elec       q    Type
REMARK                         _______ _______ _______ _____ _____    ______ ____
ROOT
ATOM      1  N   UNL     1       3.977   5.861  17.756  0.00  0.00    +0.000 N 
ATOM      2  C   UNL     1       3.034   4.932  18.152  0.00  0.00    +0.000 C 
ATOM      3  N   UNL     1       1.777   4.886  17.799  0.00  0.00    +0.000 NA
ATOM      4  C   UNL     1       1.296   3.577  18.331  0.00  0.00    +0.000 C 
ATOM      5  C   UNL     1       2.204   3.295  19.504  0.00  0.00    +0.000 C 
ATOM      6  N   UNL     1       3.399   3.908  19.024  0.00  0.00    +0.000 N 
ATOM      7  C   UNL     1       4.689   3.538  19.296  0.00  0.00    +0.000 C 
ATOM      8  O   UNL     1       5.014   2.559  19.958  0.00  0.00    +0.000 OA
ATOM      9  C   UNL     1       5.623   4.413  18.667  0.00  0.00    +0.000 A 
ATOM     10  N   UNL     1       6.983   4.355  18.590  0.00  0.00    +0.000 N 
ATOM     11  C   UNL     1       7.385   5.470  17.900  0.00  0.00    +0.000 A 
ATOM     12  N   UNL     1       6.361   6.212  17.523  0.00  0.00    +0.000 NA
ATOM     13  C   UNL     1       5.268   5.536  17.968  0.00  0.00    +0.000 A 
ATOM     14  H   UNL     1       7.574   3.621  18.959  0.00  0.00    +0.000 HD
ENDROOT
BRANCH   1  15
ATOM     15  C   UNL     1       3.610   7.174  17.263  0.00  0.00    +0.000 C 
BRANCH  15  16
ATOM     16  C   UNL     1       2.658   7.853  18.260  0.00  0.00    +0.000 C 
BRANCH  16  17
ATOM     17  C   UNL     1       2.059   9.162  17.739  0.00  0.00    +0.000 C 
BRANCH  17  18
ATOM     18  C   UNL     1       0.725   9.487  18.408  0.00  0.00    +0.000 C 
BRANCH  18  19
ATOM     19  C   UNL     1       0.891  10.358  19.649  0.00  0.00    +0.000 C 
BRANCH  19  20
ATOM     20  C   UNL     1      -0.005   9.829  20.769  0.00  0.00    +0.000 C 
BRANCH  20  22
ATOM     21  C   UNL     1      -0.024   9.447  23.248  0.00  0.00    +0.000 C 
ATOM     22  C   UNL     1       0.806   9.372  21.976  0.00  0.00    +0.000 C 
ENDBRANCH  20  22
ENDBRANCH  19  20
ENDBRANCH  18  19
ENDBRANCH  17  18
ENDBRANCH  16  17
ENDBRANCH  15  16
ENDBRANCH   1  15
TORSDOF 7
ENDMDL
MODEL 9
REMARK VINA RESULT:      -6.5      4.985      7.301
REMARK  Name = 
REMARK  8 active torsions:
REMARK  status: ('A' for Active; 'I' for Inactive)
REMARK    1  A    between atoms: C_1  and  C_2
REMARK    2  A    between atoms: C_2  and  C_3
REMARK    3  A    between atoms: C_3  and  C_4
REMARK    4  A    between atoms: C_4  and  C_5
REMARK    5  A    between atoms: C_5  and  C_6
REMARK    6  A    between atoms: C_6  and  C_7
REMARK    7  A    between atoms: C_7  and  C_8
REMARK    8  A    between atoms: C_8  and  N_9
REMARK                            x       y       z     vdW  Elec       q    Type
REMARK                         _______ _______ _______ _____ _____    ______ ____
ROOT
ATOM      1  N   UNL     1       3.237   5.502  19.433  0.00  0.00    +0.000 N 
ATOM      2  C   UNL     1       2.522   4.498  20.058  0.00  0.00    +0.000 C 
ATOM      3  N   UNL     1       1.249   4.501  20.346  0.00  0.00    +0.000 NA
ATOM      4  C   UNL     1       0.975   3.106  20.801  0.00  0.00    +0.000 C 
ATOM      5  C   UNL     1       2.303   2.617  21.327  0.00  0.00    +0.000 C 
ATOM      6  N   UNL     1       3.174   3.331  20.452  0.00  0.00    +0.000 N 
ATOM      7  C   UNL     1       4.407   2.938  20.004  0.00  0.00    +0.000 C 
ATOM      8  O   UNL     1       4.928   1.854  20.244  0.00  0.00    +0.000 OA
ATOM      9  C   UNL     1       5.000   3.934  19.172  0.00  0.00    +0.000 A 
ATOM     10  N   UNL     1       6.153   3.915  18.447  0.00  0.00    +0.000 N 
ATOM     11  C   UNL     1       6.268   5.148  17.860  0.00  0.00    +0.000 A 
ATOM     12  N   UNL     1       5.249   5.932  18.157  0.00  0.00    +0.000 NA
ATOM     13  C   UNL     1       4.446   5.165  18.941  0.00  0.00    +0.000 A 
ATOM     14  H   UNL     1       6.789   3.133  18.351  0.00  0.00    +0.000 HD
ENDROOT
BRANCH   1  15
ATOM     15  C   UNL     1       2.784   6.880  19.418  0.00  0.00    +0.000 C 
BRANCH  15  16
ATOM     16  C   UNL     1       2.271   7.240  18.015  0.00  0.00    +0.000 C 
BRANCH  16  17
ATOM     17  C   UNL     1       2.115   8.746  17.789  0.00  0.00    +0.000 C 
BRANCH  17  18
ATOM     18  C   UNL     1       1.200   9.388  18.830  0.00  0.00    +0.000 C 
BRANCH  18  19
ATOM     19  C   UNL     1      -0.011  10.070  18.202  0.00  0.00    +0.000 C 
BRANCH  19  20
ATOM     20  C   UNL     1      -1.029  10.409  19.291  0.00  0.00    +0.000 C 
BRANCH  20  22
ATOM     21  C   UNL     1      -0.694  12.704  18.335  0.00  0.00    +0.000 C 
ATOM     22  C   UNL     1      -1.651  11.785  19.078  0.00  0.00    +0.000 C 
ENDBRANCH  20  22
ENDBRANCH  19  20
ENDBRANCH  18  19
ENDBRANCH  17  18
ENDBRANCH  16  17
ENDBRANCH  15  16
ENDBRANCH   1  15
TORSDOF 7
ENDMDL
