MODEL 1
REMARK VINA RESULT:      -6.8      0.000      0.000
REMARK  Name = 
REMARK  8 active torsions:
REMARK  status: ('A' for Active; 'I' for Inactive)
REMARK    1  A    between atoms: C_1  and  C_2
REMARK    2  A    between atoms: C_2  and  N_3
REMARK    3  A    between atoms: N_6  and  C_7
REMARK    4  A    between atoms: C_9  and  N_10
REMARK    5  A    between atoms: C_11  and  C_13
REMARK    6  A    between atoms: N_18  and  C_19
REMARK    7  A    between atoms: C_21  and  O_22
REMARK    8  A    between atoms: O_22  and  C_23
REMARK                            x       y       z     vdW  Elec       q    Type
REMARK                         _______ _______ _______ _____ _____    ______ ____
ROOT
ATOM      1  N   UNL     1       1.248   8.734  19.064  0.00  0.00    +0.000 N 
ATOM      2  C   UNL     1       1.649   7.967  20.146  0.00  0.00    +0.000 C 
ATOM      3  O   UNL     1       1.596   8.373  21.297  0.00  0.00    +0.000 OA
ATOM      4  H   UNL     1       1.114   8.304  18.158  0.00  0.00    +0.000 HD
ENDROOT
BRANCH   2   5
ATOM      5  C   UNL     1       2.222   6.637  19.816  0.00  0.00    +0.000 A 
ATOM      6  C   UNL     1       1.847   5.516  20.565  0.00  0.00    +0.000 A 
ATOM      7  C   UNL     1       2.379   4.254  20.275  0.00  0.00    +0.000 A 
ATOM      8 BR   UNL     1       1.934   2.885  21.513  0.00  0.00    +0.000 Br
ATOM      9  C   UNL     1       3.239   4.117  19.188  0.00  0.00    +0.000 A 
ATOM     10  N   UNL     1       3.923   2.993  18.788  0.00  0.00    +0.000 N 
ATOM     11  C   UNL     1       3.342   1.673  18.679  0.00  0.00    +0.000 C 
ATOM     12  N   UNL     1       3.589   5.197  18.441  0.00  0.00    +0.000 NA
ATOM     13  C   UNL     1       3.094   6.426  18.754  0.00  0.00    +0.000 A 
ATOM     14  H   UNL     1       4.423   3.263  17.941  0.00  0.00    +0.000 HD
BRANCH  13  15
ATOM     15  O   UNL     1       3.519   7.494  17.996  0.00  0.00    +0.000 OA
ATOM     16  C   UNL     1       4.510   7.160  17.026  0.00  0.00    +0.000 C 
ENDBRANCH  13  15
ENDBRANCH   2   5
BRANCH   1  23
ATOM     17  N   UNL     1       1.948  12.470  19.027  0.00  0.00    +0.000 NA
ATOM     18  C   UNL     1       0.656  13.021  19.455  0.00  0.00    +0.000 C 
ATOM     19  C   UNL     1      -0.542  12.779  18.515  0.00  0.00    +0.000 C 
ATOM     20  N   UNL     1      -1.312  11.596  18.933  0.00  0.00    +0.000 NA
ATOM     21  C   UNL     1      -2.630  11.601  18.290  0.00  0.00    +0.000 C 
ATOM     22  C   UNL     1      -0.614  10.335  18.616  0.00  0.00    +0.000 C 
ATOM     23  C   UNL     1       0.828  10.145  19.173  0.00  0.00    +0.000 C 
ATOM     24  C   UNL     1       1.862  11.086  18.507  0.00  0.00    +0.000 C 
BRANCH  17  26
ATOM     25  C   UNL     1       2.664  14.797  18.407  0.00  0.00    +0.000 C 
ATOM     26  C   UNL     1       2.668  13.312  18.060  0.00  0.00    +0.000 C 
ENDBRANCH  17  26
ENDBRANCH   1  23
TORSDOF 4
ENDMDL
MODEL 2
REMARK VINA RESULT:      -6.7      1.821      2.680
REMARK  Name = 
REMARK  8 active torsions:
REMARK  status: ('A' for Active; 'I' for Inactive)
REMARK    1  A    between atoms: C_1  and  C_2
REMARK    2  A    between atoms: C_2  and  N_3
REMARK    3  A    between atoms: N_6  and  C_7
REMARK    4  A    between atoms: C_9  and  N_10
REMARK    5  A    between atoms: C_11  and  C_13
REMARK    6  A    between atoms: N_18  and  C_19
REMARK    7  A    between atoms: C_21  and  O_22
REMARK    8  A    between atoms: O_22  and  C_23
REMARK                            x       y       z     vdW  Elec       q    Type
REMARK                         _______ _______ _______ _____ _____    ______ ____
ROOT
ATOM      1  N   UNL     1       1.505   8.546  19.674  0.00  0.00    +0.000 N 
ATOM      2  C   UNL     1       2.171   8.118  18.536  0.00  0.00    +0.000 C 
ATOM      3  O   UNL     1       2.276   8.812  17.535  0.00  0.00    +0.000 OA
ATOM      4  H   UNL     1       1.609   8.039  20.543  0.00  0.00    +0.000 HD
ENDROOT
BRANCH   2   5
ATOM      5  C   UNL     1       2.692   6.728  18.578  0.00  0.00    +0.000 A 
ATOM      6  C   UNL     1       2.098   5.791  19.431  0.00  0.00    +0.000 A 
ATOM      7  C   UNL     1       2.576   4.477  19.490  0.00  0.00    +0.000 A 
ATOM      8 BR   UNL     1       1.802   3.395  20.845  0.00  0.00    +0.000 Br
ATOM      9  C   UNL     1       3.612   4.096  18.640  0.00  0.00    +0.000 A 
ATOM     10  N   UNL     1       4.269   2.889  18.599  0.00  0.00    +0.000 N 
ATOM     11  C   UNL     1       3.620   1.597  18.621  0.00  0.00    +0.000 C 
ATOM     12  N   UNL     1       4.177   4.994  17.791  0.00  0.00    +0.000 NA
ATOM     13  C   UNL     1       3.728   6.279  17.768  0.00  0.00    +0.000 A 
ATOM     14  H   UNL     1       4.939   2.969  17.833  0.00  0.00    +0.000 HD
BRANCH  13  15
ATOM     15  O   UNL     1       4.369   7.160  16.926  0.00  0.00    +0.000 OA
ATOM     16  C   UNL     1       5.169   6.531  15.927  0.00  0.00    +0.000 C 
ENDBRANCH  13  15
ENDBRANCH   2   5
BRANCH   1  23
ATOM     17  N   UNL     1      -0.682  11.273  18.182  0.00  0.00    +0.000 NA
ATOM     18  C   UNL     1      -0.688  12.272  19.257  0.00  0.00    +0.000 C 
ATOM     19  C   UNL     1      -1.342  11.850  20.588  0.00  0.00    +0.000 C 
ATOM     20  N   UNL     1      -0.334  11.356  21.539  0.00  0.00    +0.000 NA
ATOM     21  C   UNL     1      -0.893  11.325  22.894  0.00  0.00    +0.000 C 
ATOM     22  C   UNL     1       0.162  10.012  21.181  0.00  0.00    +0.000 C 
ATOM     23  C   UNL     1       0.762   9.817  19.756  0.00  0.00    +0.000 C 
ATOM     24  C   UNL     1      -0.301   9.915  18.634  0.00  0.00    +0.000 C 
BRANCH  17  26
ATOM     25  C   UNL     1      -2.672   9.870  17.562  0.00  0.00    +0.000 C 
ATOM     26  C   UNL     1      -1.940  11.200  17.423  0.00  0.00    +0.000 C 
ENDBRANCH  17  26
ENDBRANCH   1  23
TORSDOF 4
ENDMDL
MODEL 3
REMARK VINA RESULT:      -6.4      1.611      2.878
REMARK  Name = 
REMARK  8 active torsions:
REMARK  status: ('A' for Active; 'I' for Inactive)
REMARK    1  A    between atoms: C_1  and  C_2
REMARK    2  A    between atoms: C_2  and  N_3
REMARK    3  A    between atoms: N_6  and  C_7
REMARK    4  A    between atoms: C_9  and  N_10
REMARK    5  A    between atoms: C_11  and  C_13
REMARK    6  A    between atoms: N_18  and  C_19
REMARK    7  A    between atoms: C_21  and  O_22
REMARK    8  A    between atoms: O_22  and  C_23
REMARK                            x       y       z     vdW  Elec       q    Type
REMARK                         _______ _______ _______ _____ _____    ______ ____
ROOT
ATOM      1  N   UNL     1       1.693   8.574  19.312  0.00  0.00    +0.000 N 
ATOM      2  C   UNL     1       2.267   8.023  18.177  0.00  0.00    +0.000 C 
ATOM      3  O   UNL     1       2.317   8.618  17.110  0.00  0.00    +0.000 OA
ATOM      4  H   UNL     1       1.846   8.147  20.216  0.00  0.00    +0.000 HD
ENDROOT
BRANCH   2   5
ATOM      5  C   UNL     1       2.757   6.628  18.314  0.00  0.00    +0.000 A 
ATOM      6  C   UNL     1       1.967   5.679  18.974  0.00  0.00    +0.000 A 
ATOM      7  C   UNL     1       2.411   4.359  19.119  0.00  0.00    +0.000 A 
ATOM      8 BR   UNL     1       1.324   3.256  20.217  0.00  0.00    +0.000 Br
ATOM      9  C   UNL     1       3.624   3.987  18.543  0.00  0.00    +0.000 A 
ATOM     10  N   UNL     1       4.267   2.776  18.637  0.00  0.00    +0.000 N 
ATOM     11  C   UNL     1       3.628   1.489  18.470  0.00  0.00    +0.000 C 
ATOM     12  N   UNL     1       4.384   4.897  17.880  0.00  0.00    +0.000 NA
ATOM     13  C   UNL     1       3.959   6.186  17.775  0.00  0.00    +0.000 A 
ATOM     14  H   UNL     1       5.105   2.865  18.062  0.00  0.00    +0.000 HD
BRANCH  13  15
ATOM     15  O   UNL     1       4.790   7.080  17.138  0.00  0.00    +0.000 OA
ATOM     16  C   UNL     1       6.179   6.784  17.279  0.00  0.00    +0.000 C 
ENDBRANCH  13  15
ENDBRANCH   2   5
BRANCH   1  23
ATOM     17  N   UNL     1      -0.886  10.993  20.706  0.00  0.00    +0.000 NA
ATOM     18  C   UNL     1      -0.831  12.085  19.727  0.00  0.00    +0.000 C 
ATOM     19  C   UNL     1       0.500  12.856  19.628  0.00  0.00    +0.000 C 
ATOM     20  N   UNL     1       1.341  12.322  18.545  0.00  0.00    +0.000 NA
ATOM     21  C   UNL     1       2.401  13.279  18.212  0.00  0.00    +0.000 C 
ATOM     22  C   UNL     1       1.945  11.021  18.896  0.00  0.00    +0.000 C 
ATOM     23  C   UNL     1       0.987   9.869  19.324  0.00  0.00    +0.000 C 
ATOM     24  C   UNL     1       0.312  10.123  20.695  0.00  0.00    +0.000 C 
BRANCH  17  26
ATOM     25  C   UNL     1      -0.838  10.387  23.144  0.00  0.00    +0.000 C 
ATOM     26  C   UNL     1      -1.157  11.435  22.083  0.00  0.00    +0.000 C 
ENDBRANCH  17  26
ENDBRANCH   1  23
TORSDOF 4
ENDMDL
MODEL 4
REMARK VINA RESULT:      -6.3      4.522      7.247
REMARK  Name = 
REMARK  8 active torsions:
REMARK  status: ('A' for Active; 'I' for Inactive)
REMARK    1  A    between atoms: C_1  and  C_2
REMARK    2  A    between atoms: C_2  and  N_3
REMARK    3  A    between atoms: N_6  and  C_7
REMARK    4  A    between atoms: C_9  and  N_10
REMARK    5  A    between atoms: C_11  and  C_13
REMARK    6  A    between atoms: N_18  and  C_19
REMARK    7  A    between atoms: C_21  and  O_22
REMARK    8  A    between atoms: O_22  and  C_23
REMARK                            x       y       z     vdW  Elec       q    Type
REMARK                         _______ _______ _______ _____ _____    ______ ____
ROOT
ATOM      1  N   UNL     1       4.121   4.375  17.423  0.00  0.00    +0.000 N 
ATOM      2  C   UNL     1       5.503   4.274  17.453  0.00  0.00    +0.000 C 
ATOM      3  O   UNL     1       6.119   3.989  18.470  0.00  0.00    +0.000 OA
ATOM      4  H   UNL     1       3.634   4.411  16.536  0.00  0.00    +0.000 HD
ENDROOT
BRANCH   2   5
ATOM      5  C   UNL     1       6.202   4.607  16.186  0.00  0.00    +0.000 A 
ATOM      6  C   UNL     1       5.780   4.021  14.988  0.00  0.00    +0.000 A 
ATOM      7  C   UNL     1       6.428   4.316  13.783  0.00  0.00    +0.000 A 
ATOM      8 BR   UNL     1       5.872   3.281  12.291  0.00  0.00    +0.000 Br
ATOM      9  C   UNL     1       7.460   5.251  13.782  0.00  0.00    +0.000 A 
ATOM     10  N   UNL     1       8.267   5.617  12.731  0.00  0.00    +0.000 N 
ATOM     11  C   UNL     1       7.795   5.926  11.399  0.00  0.00    +0.000 C 
ATOM     12  N   UNL     1       7.860   5.842  14.938  0.00  0.00    +0.000 NA
ATOM     13  C   UNL     1       7.246   5.521  16.110  0.00  0.00    +0.000 A 
ATOM     14  H   UNL     1       8.881   6.345  13.098  0.00  0.00    +0.000 HD
BRANCH  13  15
ATOM     15  O   UNL     1       7.722   6.111  17.260  0.00  0.00    +0.000 OA
ATOM     16  C   UNL     1       7.400   7.496  17.378  0.00  0.00    +0.000 C 
ENDBRANCH  13  15
ENDBRANCH   2   5
BRANCH   1  23
ATOM     17  N   UNL     1       2.421   5.835  20.492  0.00  0.00    +0.000 NA
ATOM     18  C   UNL     1       1.868   4.633  21.128  0.00  0.00    +0.000 C 
ATOM     19  C   UNL     1       0.788   3.869  20.337  0.00  0.00    +0.000 C 
ATOM     20  N   UNL     1       1.378   2.759  19.573  0.00  0.00    +0.000 NA
ATOM     21  C   UNL     1       0.329   1.826  19.147  0.00  0.00    +0.000 C 
ATOM     22  C   UNL     1       2.127   3.230  18.390  0.00  0.00    +0.000 C 
ATOM     23  C   UNL     1       3.267   4.266  18.620  0.00  0.00    +0.000 C 
ATOM     24  C   UNL     1       2.741   5.656  19.058  0.00  0.00    +0.000 C 
BRANCH  17  26
ATOM     25  C   UNL     1       1.892   8.145  19.656  0.00  0.00    +0.000 C 
ATOM     26  C   UNL     1       1.591   7.039  20.661  0.00  0.00    +0.000 C 
ENDBRANCH  17  26
ENDBRANCH   1  23
TORSDOF 4
ENDMDL
MODEL 5
REMARK VINA RESULT:      -6.3      3.068      7.941
REMARK  Name = 
REMARK  8 active torsions:
REMARK  status: ('A' for Active; 'I' for Inactive)
REMARK    1  A    between atoms: C_1  and  C_2
REMARK    2  A    between atoms: C_2  and  N_3
REMARK    3  A    between atoms: N_6  and  C_7
REMARK    4  A    between atoms: C_9  and  N_10
REMARK    5  A    between atoms: C_11  and  C_13
REMARK    6  A    between atoms: N_18  and  C_19
REMARK    7  A    between atoms: C_21  and  O_22
REMARK    8  A    between atoms: O_22  and  C_23
REMARK                            x       y       z     vdW  Elec       q    Type
REMARK                         _______ _______ _______ _____ _____    ______ ____
ROOT
ATOM      1  N   UNL     1       1.446   8.003  18.886  0.00  0.00    +0.000 N 
ATOM      2  C   UNL     1       1.373   9.199  18.190  0.00  0.00    +0.000 C 
ATOM      3  O   UNL     1       2.266   9.585  17.450  0.00  0.00    +0.000 OA
ATOM      4  H   UNL     1       0.619   7.619  19.324  0.00  0.00    +0.000 HD
ENDROOT
BRANCH   2   5
ATOM      5  C   UNL     1       0.169  10.027  18.455  0.00  0.00    +0.000 A 
ATOM      6  C   UNL     1      -0.876  10.047  17.524  0.00  0.00    +0.000 A 
ATOM      7  C   UNL     1      -2.018  10.824  17.751  0.00  0.00    +0.000 A 
ATOM      8 BR   UNL     1      -3.241  10.906  16.301  0.00  0.00    +0.000 Br
ATOM      9  C   UNL     1      -2.129  11.530  18.947  0.00  0.00    +0.000 A 
ATOM     10  N   UNL     1      -3.121  12.403  19.323  0.00  0.00    +0.000 N 
ATOM     11  C   UNL     1      -4.538  12.153  19.173  0.00  0.00    +0.000 C 
ATOM     12  N   UNL     1      -1.129  11.495  19.866  0.00  0.00    +0.000 NA
ATOM     13  C   UNL     1      -0.007  10.765  19.620  0.00  0.00    +0.000 A 
ATOM     14  H   UNL     1      -2.883  12.697  20.271  0.00  0.00    +0.000 HD
BRANCH  13  15
ATOM     15  O   UNL     1       0.997  10.804  20.561  0.00  0.00    +0.000 OA
ATOM     16  C   UNL     1       0.685  10.118  21.772  0.00  0.00    +0.000 C 
ENDBRANCH  13  15
ENDBRANCH   2   5
BRANCH   1  23
ATOM     17  N   UNL     1       3.390   4.963  20.078  0.00  0.00    +0.000 NA
ATOM     18  C   UNL     1       4.708   5.195  19.477  0.00  0.00    +0.000 C 
ATOM     19  C   UNL     1       4.773   5.195  17.937  0.00  0.00    +0.000 C 
ATOM     20  N   UNL     1       4.684   6.563  17.403  0.00  0.00    +0.000 NA
ATOM     21  C   UNL     1       5.126   6.589  16.005  0.00  0.00    +0.000 C 
ATOM     22  C   UNL     1       3.316   7.111  17.496  0.00  0.00    +0.000 C 
ATOM     23  C   UNL     1       2.640   7.137  18.899  0.00  0.00    +0.000 C 
ATOM     24  C   UNL     1       2.297   5.723  19.431  0.00  0.00    +0.000 C 
BRANCH  17  26
ATOM     25  C   UNL     1       2.319   3.164  21.469  0.00  0.00    +0.000 C 
ATOM     26  C   UNL     1       3.013   3.543  20.165  0.00  0.00    +0.000 C 
ENDBRANCH  17  26
ENDBRANCH   1  23
TORSDOF 4
ENDMDL
MODEL 6
REMARK VINA RESULT:      -6.3      1.353      1.457
REMARK  Name = 
REMARK  8 active torsions:
REMARK  status: ('A' for Active; 'I' for Inactive)
REMARK    1  A    between atoms: C_1  and  C_2
REMARK    2  A    between atoms: C_2  and  N_3
REMARK    3  A    between atoms: N_6  and  C_7
REMARK    4  A    between atoms: C_9  and  N_10
REMARK    5  A    between atoms: C_11  and  C_13
REMARK    6  A    between atoms: N_18  and  C_19
REMARK    7  A    between atoms: C_21  and  O_22
REMARK    8  A    between atoms: O_22  and  C_23
REMARK                            x       y       z     vdW  Elec       q    Type
REMARK                         _______ _______ _______ _____ _____    ______ ____
ROOT
ATOM      1  N   UNL     1       1.477   8.722  19.489  0.00  0.00    +0.000 N 
ATOM      2  C   UNL     1       2.195   8.185  18.432  0.00  0.00    +0.000 C 
ATOM      3  O   UNL     1       2.240   8.713  17.331  0.00  0.00    +0.000 OA
ATOM      4  H   UNL     1       1.622   8.377  20.429  0.00  0.00    +0.000 HD
ENDROOT
BRANCH   2   5
ATOM      5  C   UNL     1       2.851   6.879  18.697  0.00  0.00    +0.000 A 
ATOM      6  C   UNL     1       2.311   6.014  19.656  0.00  0.00    +0.000 A 
ATOM      7  C   UNL     1       2.917   4.781  19.925  0.00  0.00    +0.000 A 
ATOM      8 BR   UNL     1       2.187   3.826  21.395  0.00  0.00    +0.000 Br
ATOM      9  C   UNL     1       4.030   4.398  19.180  0.00  0.00    +0.000 A 
ATOM     10  N   UNL     1       4.808   3.276  19.341  0.00  0.00    +0.000 N 
ATOM     11  C   UNL     1       4.294   1.937  19.529  0.00  0.00    +0.000 C 
ATOM     12  N   UNL     1       4.545   5.222  18.230  0.00  0.00    +0.000 NA
ATOM     13  C   UNL     1       3.969   6.434  18.002  0.00  0.00    +0.000 A 
ATOM     14  H   UNL     1       5.505   3.318  18.598  0.00  0.00    +0.000 HD
BRANCH  13  15
ATOM     15  O   UNL     1       4.560   7.252  17.064  0.00  0.00    +0.000 OA
ATOM     16  C   UNL     1       5.159   6.549  15.976  0.00  0.00    +0.000 C 
ENDBRANCH  13  15
ENDBRANCH   2   5
BRANCH   1  23
ATOM     17  N   UNL     1       0.804  12.450  19.804  0.00  0.00    +0.000 NA
ATOM     18  C   UNL     1      -0.634  12.520  19.515  0.00  0.00    +0.000 C 
ATOM     19  C   UNL     1      -1.074  12.101  18.098  0.00  0.00    +0.000 C 
ATOM     20  N   UNL     1      -1.500  10.693  18.070  0.00  0.00    +0.000 NA
ATOM     21  C   UNL     1      -2.262  10.422  16.847  0.00  0.00    +0.000 C 
ATOM     22  C   UNL     1      -0.357   9.762  18.154  0.00  0.00    +0.000 C 
ATOM     23  C   UNL     1       0.609   9.910  19.367  0.00  0.00    +0.000 C 
ATOM     24  C   UNL     1       1.449  11.210  19.315  0.00  0.00    +0.000 C 
BRANCH  17  26
ATOM     25  C   UNL     1       2.520  13.311  18.182  0.00  0.00    +0.000 C 
ATOM     26  C   UNL     1       1.567  13.617  19.333  0.00  0.00    +0.000 C 
ENDBRANCH  17  26
ENDBRANCH   1  23
TORSDOF 4
ENDMDL
MODEL 7
REMARK VINA RESULT:      -6.2      2.928      7.987
REMARK  Name = 
REMARK  8 active torsions:
REMARK  status: ('A' for Active; 'I' for Inactive)
REMARK    1  A    between atoms: C_1  and  C_2
REMARK    2  A    between atoms: C_2  and  N_3
REMARK    3  A    between atoms: N_6  and  C_7
REMARK    4  A    between atoms: C_9  and  N_10
REMARK    5  A    between atoms: C_11  and  C_13
REMARK    6  A    between atoms: N_18  and  C_19
REMARK    7  A    between atoms: C_21  and  O_22
REMARK    8  A    between atoms: O_22  and  C_23
REMARK                            x       y       z     vdW  Elec       q    Type
REMARK                         _______ _______ _______ _____ _____    ______ ____
ROOT
ATOM      1  N   UNL     1       1.945   7.468  19.757  0.00  0.00    +0.000 N 
ATOM      2  C   UNL     1       1.679   8.403  18.769  0.00  0.00    +0.000 C 
ATOM      3  O   UNL     1       1.769   8.146  17.577  0.00  0.00    +0.000 OA
ATOM      4  H   UNL     1       1.668   7.648  20.713  0.00  0.00    +0.000 HD
ENDROOT
BRANCH   2   5
ATOM      5  C   UNL     1       1.348   9.770  19.247  0.00  0.00    +0.000 A 
ATOM      6  C   UNL     1       1.889  10.883  18.593  0.00  0.00    +0.000 A 
ATOM      7  C   UNL     1       1.594  12.179  19.030  0.00  0.00    +0.000 A 
ATOM      8 BR   UNL     1       2.571  13.563  18.172  0.00  0.00    +0.000 Br
ATOM      9  C   UNL     1       0.703  12.350  20.087  0.00  0.00    +0.000 A 
ATOM     10  N   UNL     1       0.346  13.522  20.710  0.00  0.00    +0.000 N 
ATOM     11  C   UNL     1      -0.011  14.744  20.023  0.00  0.00    +0.000 C 
ATOM     12  N   UNL     1       0.154  11.275  20.711  0.00  0.00    +0.000 NA
ATOM     13  C   UNL     1       0.476  10.017  20.301  0.00  0.00    +0.000 A 
ATOM     14  H   UNL     1      -0.347  13.260  21.411  0.00  0.00    +0.000 HD
BRANCH  13  15
ATOM     15  O   UNL     1      -0.068   8.962  20.999  0.00  0.00    +0.000 OA
ATOM     16  C   UNL     1      -0.236   9.214  22.393  0.00  0.00    +0.000 C 
ENDBRANCH  13  15
ENDBRANCH   2   5
BRANCH   1  23
ATOM     17  N   UNL     1       4.604   5.086  18.454  0.00  0.00    +0.000 NA
ATOM     18  C   UNL     1       3.921   3.791  18.554  0.00  0.00    +0.000 C 
ATOM     19  C   UNL     1       3.547   3.316  19.972  0.00  0.00    +0.000 C 
ATOM     20  N   UNL     1       2.158   3.671  20.301  0.00  0.00    +0.000 NA
ATOM     21  C   UNL     1       1.701   2.898  21.459  0.00  0.00    +0.000 C 
ATOM     22  C   UNL     1       2.000   5.113  20.578  0.00  0.00    +0.000 C 
ATOM     23  C   UNL     1       2.469   6.117  19.482  0.00  0.00    +0.000 C 
ATOM     24  C   UNL     1       4.007   6.141  19.303  0.00  0.00    +0.000 C 
BRANCH  17  26
ATOM     25  C   UNL     1       6.879   4.685  17.465  0.00  0.00    +0.000 C 
ATOM     26  C   UNL     1       6.053   5.020  18.702  0.00  0.00    +0.000 C 
ENDBRANCH  17  26
ENDBRANCH   1  23
TORSDOF 4
ENDMDL
MODEL 8
REMARK VINA RESULT:      -6.1      3.047      7.831
REMARK  Name = 
REMARK  8 active torsions:
REMARK  status: ('A' for Active; 'I' for Inactive)
REMARK    1  A    between atoms: C_1  and  C_2
REMARK    2  A    between atoms: C_2  and  N_3
REMARK    3  A    between atoms: N_6  and  C_7
REMARK    4  A    between atoms: C_9  and  N_10
REMARK    5  A    between atoms: C_11  and  C_13
REMARK    6  A    between atoms: N_18  and  C_19
REMARK    7  A    between atoms: C_21  and  O_22
REMARK    8  A    between atoms: O_22  and  C_23
REMARK                            x       y       z     vdW  Elec       q    Type
REMARK                         _______ _______ _______ _____ _____    ______ ____
ROOT
ATOM      1  N   UNL     1       2.145   7.428  19.045  0.00  0.00    +0.000 N 
ATOM      2  C   UNL     1       1.966   8.595  18.321  0.00  0.00    +0.000 C 
ATOM      3  O   UNL     1       2.201   8.670  17.123  0.00  0.00    +0.000 OA
ATOM      4  H   UNL     1       1.755   7.342  19.974  0.00  0.00    +0.000 HD
ENDROOT
BRANCH   2   5
ATOM      5  C   UNL     1       1.537   9.781  19.105  0.00  0.00    +0.000 A 
ATOM      6  C   UNL     1       1.750  11.066  18.591  0.00  0.00    +0.000 A 
ATOM      7  C   UNL     1       1.358  12.197  19.315  0.00  0.00    +0.000 A 
ATOM      8 BR   UNL     1       1.908  13.859  18.579  0.00  0.00    +0.000 Br
ATOM      9  C   UNL     1       0.696  12.027  20.529  0.00  0.00    +0.000 A 
ATOM     10  N   UNL     1       0.304  12.997  21.421  0.00  0.00    +0.000 N 
ATOM     11  C   UNL     1      -0.374  14.223  21.058  0.00  0.00    +0.000 C 
ATOM     12  N   UNL     1       0.464  10.783  21.022  0.00  0.00    +0.000 NA
ATOM     13  C   UNL     1       0.881   9.690  20.326  0.00  0.00    +0.000 A 
ATOM     14  H   UNL     1      -0.177  12.501  22.171  0.00  0.00    +0.000 HD
BRANCH  13  15
ATOM     15  O   UNL     1       0.666   8.454  20.895  0.00  0.00    +0.000 OA
ATOM     16  C   UNL     1      -0.385   8.434  21.859  0.00  0.00    +0.000 C 
ENDBRANCH  13  15
ENDBRANCH   2   5
BRANCH   1  23
ATOM     17  N   UNL     1       5.112   5.315  17.958  0.00  0.00    +0.000 NA
ATOM     18  C   UNL     1       4.448   4.175  17.315  0.00  0.00    +0.000 C 
ATOM     19  C   UNL     1       3.571   3.287  18.220  0.00  0.00    +0.000 C 
ATOM     20  N   UNL     1       2.158   3.692  18.150  0.00  0.00    +0.000 NA
ATOM     21  C   UNL     1       1.303   2.630  18.690  0.00  0.00    +0.000 C 
ATOM     22  C   UNL     1       1.901   4.950  18.878  0.00  0.00    +0.000 C 
ATOM     23  C   UNL     1       2.741   6.201  18.482  0.00  0.00    +0.000 C 
ATOM     24  C   UNL     1       4.234   6.075  18.876  0.00  0.00    +0.000 C 
BRANCH  17  26
ATOM     25  C   UNL     1       7.471   6.001  18.490  0.00  0.00    +0.000 C 
ATOM     26  C   UNL     1       6.362   4.967  18.654  0.00  0.00    +0.000 C 
ENDBRANCH  17  26
ENDBRANCH   1  23
TORSDOF 4
ENDMDL
MODEL 9
REMARK VINA RESULT:      -6.1      3.046      7.861
REMARK  Name = 
REMARK  8 active torsions:
REMARK  status: ('A' for Active; 'I' for Inactive)
REMARK    1  A    between atoms: C_1  and  C_2
REMARK    2  A    between atoms: C_2  and  N_3
REMARK    3  A    between atoms: N_6  and  C_7
REMARK    4  A    between atoms: C_9  and  N_10
REMARK    5  A    between atoms: C_11  and  C_13
REMARK    6  A    between atoms: N_18  and  C_19
REMARK    7  A    between atoms: C_21  and  O_22
REMARK    8  A    between atoms: O_22  and  C_23
REMARK                            x       y       z     vdW  Elec       q    Type
REMARK                         _______ _______ _______ _____ _____    ______ ____
ROOT
ATOM      1  N   UNL     1       2.058   7.852  19.553  0.00  0.00    +0.000 N 
ATOM      2  C   UNL     1       1.502   8.861  18.783  0.00  0.00    +0.000 C 
ATOM      3  O   UNL     1       1.201   8.702  17.609  0.00  0.00    +0.000 OA
ATOM      4  H   UNL     1       2.106   7.950  20.559  0.00  0.00    +0.000 HD
ENDROOT
BRANCH   2   5
ATOM      5  C   UNL     1       1.359  10.179  19.451  0.00  0.00    +0.000 A 
ATOM      6  C   UNL     1       1.721  11.345  18.767  0.00  0.00    +0.000 A 
ATOM      7  C   UNL     1       1.600  12.598  19.380  0.00  0.00    +0.000 A 
ATOM      8 BR   UNL     1       2.328  14.051  18.399  0.00  0.00    +0.000 Br
ATOM      9  C   UNL     1       1.054  12.674  20.659  0.00  0.00    +0.000 A 
ATOM     10  N   UNL     1       0.924  13.787  21.457  0.00  0.00    +0.000 N 
ATOM     11  C   UNL     1       0.419  15.066  21.009  0.00  0.00    +0.000 C 
ATOM     12  N   UNL     1       0.678  11.549  21.320  0.00  0.00    +0.000 NA
ATOM     13  C   UNL     1       0.834  10.332  20.729  0.00  0.00    +0.000 A 
ATOM     14  H   UNL     1       0.454  13.464  22.302  0.00  0.00    +0.000 HD
BRANCH  13  15
ATOM     15  O   UNL     1       0.484   9.220  21.461  0.00  0.00    +0.000 OA
ATOM     16  C   UNL     1       0.005   9.515  22.772  0.00  0.00    +0.000 C 
ENDBRANCH  13  15
ENDBRANCH   2   5
BRANCH   1  23
ATOM     17  N   UNL     1       4.054   5.628  17.205  0.00  0.00    +0.000 NA
ATOM     18  C   UNL     1       3.462   4.310  17.466  0.00  0.00    +0.000 C 
ATOM     19  C   UNL     1       3.643   3.741  18.887  0.00  0.00    +0.000 C 
ATOM     20  N   UNL     1       2.474   4.037  19.729  0.00  0.00    +0.000 NA
ATOM     21  C   UNL     1       2.483   3.183  20.921  0.00  0.00    +0.000 C 
ATOM     22  C   UNL     1       2.425   5.454  20.139  0.00  0.00    +0.000 C 
ATOM     23  C   UNL     1       2.449   6.535  19.017  0.00  0.00    +0.000 C 
ATOM     24  C   UNL     1       3.810   6.613  18.283  0.00  0.00    +0.000 C 
BRANCH  17  26
ATOM     25  C   UNL     1       6.224   6.894  17.183  0.00  0.00    +0.000 C 
ATOM     26  C   UNL     1       5.492   5.588  16.895  0.00  0.00    +0.000 C 
ENDBRANCH  17  26
ENDBRANCH   1  23
TORSDOF 4
ENDMDL
