MODEL 1
REMARK VINA RESULT:      -8.1      0.000      0.000
REMARK  Name = 
REMARK  5 active torsions:
REMARK  status: ('A' for Active; 'I' for Inactive)
REMARK    1  A    between atoms: C_1  and  O_2
REMARK    2  A    between atoms: O_2  and  C_3
REMARK    3  A    between atoms: N_10  and  C_11
REMARK    4  A    between atoms: C_11  and  C_12
REMARK    5  A    between atoms: C_20  and  C_21
REMARK                            x       y       z     vdW  Elec       q    Type
REMARK                         _______ _______ _______ _____ _____    ______ ____
ROOT
ATOM      1  C   UNL     1       6.191   5.586  16.894  0.00  0.00    +0.000 A 
ATOM      2  C   UNL     1       5.703   4.736  15.903  0.00  0.00    +0.000 A 
ATOM      3  C   UNL     1       4.780   3.742  16.221  0.00  0.00    +0.000 A 
ATOM      4  C   UNL     1       4.303   3.609  17.529  0.00  0.00    +0.000 A 
ATOM      5  C   UNL     1       4.757   4.488  18.531  0.00  0.00    +0.000 A 
ATOM      6  C   UNL     1       5.713   5.467  18.202  0.00  0.00    +0.000 A 
ATOM      7  C   UNL     1       4.228   4.418  19.940  0.00  0.00    +0.000 C 
ATOM      8  N   UNL     1       2.790   4.641  20.034  0.00  0.00    +0.000 N 
ATOM      9  C   UNL     1       1.917   3.614  19.725  0.00  0.00    +0.000 C 
ATOM     10  O   UNL     1       1.070   3.189  20.505  0.00  0.00    +0.000 OA
ATOM     11  C   UNL     1       1.909   3.195  18.264  0.00  0.00    +0.000 C 
ATOM     12  C   UNL     1       1.445   4.379  17.403  0.00  0.00    +0.000 C 
ATOM     13  C   UNL     1       3.237   2.580  17.823  0.00  0.00    +0.000 C 
ENDROOT
BRANCH   1  15
ATOM     14  C   UNL     1       7.461   7.486  17.452  0.00  0.00    +0.000 C 
ATOM     15  O   UNL     1       7.077   6.535  16.467  0.00  0.00    +0.000 OA
ENDBRANCH   1  15
BRANCH   8  16
ATOM     16  C   UNL     1       2.293   5.753  20.825  0.00  0.00    +0.000 C 
BRANCH  16  17
ATOM     17  C   UNL     1       2.028   7.020  20.056  0.00  0.00    +0.000 A 
ATOM     18  C   UNL     1       1.329   8.075  20.660  0.00  0.00    +0.000 A 
ATOM     19  C   UNL     1       1.061   9.244  19.948  0.00  0.00    +0.000 A 
ATOM     20  C   UNL     1       1.496   9.371  18.630  0.00  0.00    +0.000 A 
ATOM     21  C   UNL     1       2.212   8.339  18.029  0.00  0.00    +0.000 A 
ATOM     22  C   UNL     1       2.482   7.172  18.741  0.00  0.00    +0.000 A 
ENDBRANCH  16  17
ENDBRANCH   8  16
TORSDOF 3
ENDMDL
MODEL 2
REMARK VINA RESULT:      -8.0      0.216      1.050
REMARK  Name = 
REMARK  5 active torsions:
REMARK  status: ('A' for Active; 'I' for Inactive)
REMARK    1  A    between atoms: C_1  and  O_2
REMARK    2  A    between atoms: O_2  and  C_3
REMARK    3  A    between atoms: N_10  and  C_11
REMARK    4  A    between atoms: C_11  and  C_12
REMARK    5  A    between atoms: C_20  and  C_21
REMARK                            x       y       z     vdW  Elec       q    Type
REMARK                         _______ _______ _______ _____ _____    ______ ____
ROOT
ATOM      1  C   UNL     1       6.316   5.482  16.931  0.00  0.00    +0.000 A 
ATOM      2  C   UNL     1       5.829   4.622  15.950  0.00  0.00    +0.000 A 
ATOM      3  C   UNL     1       4.850   3.681  16.264  0.00  0.00    +0.000 A 
ATOM      4  C   UNL     1       4.318   3.614  17.555  0.00  0.00    +0.000 A 
ATOM      5  C   UNL     1       4.773   4.505  18.545  0.00  0.00    +0.000 A 
ATOM      6  C   UNL     1       5.784   5.429  18.223  0.00  0.00    +0.000 A 
ATOM      7  C   UNL     1       4.189   4.506  19.934  0.00  0.00    +0.000 C 
ATOM      8  N   UNL     1       2.760   4.796  19.964  0.00  0.00    +0.000 N 
ATOM      9  C   UNL     1       1.853   3.799  19.653  0.00  0.00    +0.000 C 
ATOM     10  O   UNL     1       0.959   3.438  20.413  0.00  0.00    +0.000 OA
ATOM     11  C   UNL     1       1.881   3.331  18.208  0.00  0.00    +0.000 C 
ATOM     12  C   UNL     1       1.505   4.505  17.291  0.00  0.00    +0.000 C 
ATOM     13  C   UNL     1       3.196   2.644  17.839  0.00  0.00    +0.000 C 
ENDROOT
BRANCH   1  15
ATOM     14  C   UNL     1       7.521   7.446  17.409  0.00  0.00    +0.000 C 
ATOM     15  O   UNL     1       7.261   6.376  16.509  0.00  0.00    +0.000 OA
ENDBRANCH   1  15
BRANCH   8  16
ATOM     16  C   UNL     1       2.284   5.956  20.698  0.00  0.00    +0.000 C 
BRANCH  16  17
ATOM     17  C   UNL     1       2.051   7.190  19.868  0.00  0.00    +0.000 A 
ATOM     18  C   UNL     1       2.566   7.268  18.566  0.00  0.00    +0.000 A 
ATOM     19  C   UNL     1       2.372   8.417  17.799  0.00  0.00    +0.000 A 
ATOM     20  C   UNL     1       1.657   9.492  18.322  0.00  0.00    +0.000 A 
ATOM     21  C   UNL     1       1.121   9.414  19.605  0.00  0.00    +0.000 A 
ATOM     22  C   UNL     1       1.312   8.267  20.372  0.00  0.00    +0.000 A 
ENDBRANCH  16  17
ENDBRANCH   8  16
TORSDOF 3
ENDMDL
MODEL 3
REMARK VINA RESULT:      -7.5      2.986      4.862
REMARK  Name = 
REMARK  5 active torsions:
REMARK  status: ('A' for Active; 'I' for Inactive)
REMARK    1  A    between atoms: C_1  and  O_2
REMARK    2  A    between atoms: O_2  and  C_3
REMARK    3  A    between atoms: N_10  and  C_11
REMARK    4  A    between atoms: C_11  and  C_12
REMARK    5  A    between atoms: C_20  and  C_21
REMARK                            x       y       z     vdW  Elec       q    Type
REMARK                         _______ _______ _______ _____ _____    ______ ____
ROOT
ATOM      1  C   UNL     1       5.930   3.773  13.423  0.00  0.00    +0.000 A 
ATOM      2  C   UNL     1       7.076   4.563  13.408  0.00  0.00    +0.000 A 
ATOM      3  C   UNL     1       7.341   5.437  14.461  0.00  0.00    +0.000 A 
ATOM      4  C   UNL     1       6.482   5.502  15.563  0.00  0.00    +0.000 A 
ATOM      5  C   UNL     1       5.342   4.678  15.609  0.00  0.00    +0.000 A 
ATOM      6  C   UNL     1       5.070   3.824  14.524  0.00  0.00    +0.000 A 
ATOM      7  C   UNL     1       4.420   4.674  16.800  0.00  0.00    +0.000 C 
ATOM      8  N   UNL     1       5.074   4.278  18.042  0.00  0.00    +0.000 N 
ATOM      9  C   UNL     1       5.851   5.194  18.728  0.00  0.00    +0.000 C 
ATOM     10  O   UNL     1       5.650   5.509  19.897  0.00  0.00    +0.000 OA
ATOM     11  C   UNL     1       7.125   5.619  18.015  0.00  0.00    +0.000 C 
ATOM     12  C   UNL     1       8.031   4.393  17.831  0.00  0.00    +0.000 C 
ATOM     13  C   UNL     1       6.846   6.392  16.727  0.00  0.00    +0.000 C 
ENDROOT
BRANCH   1  15
ATOM     14  C   UNL     1       4.609   3.167  11.572  0.00  0.00    +0.000 C 
ATOM     15  O   UNL     1       5.778   2.941  12.349  0.00  0.00    +0.000 OA
ENDBRANCH   1  15
BRANCH   8  16
ATOM     16  C   UNL     1       4.595   3.108  18.757  0.00  0.00    +0.000 C 
BRANCH  16  17
ATOM     17  C   UNL     1       3.140   3.140  19.140  0.00  0.00    +0.000 A 
ATOM     18  C   UNL     1       2.715   3.930  20.218  0.00  0.00    +0.000 A 
ATOM     19  C   UNL     1       1.371   3.949  20.592  0.00  0.00    +0.000 A 
ATOM     20  C   UNL     1       0.441   3.186  19.888  0.00  0.00    +0.000 A 
ATOM     21  C   UNL     1       0.850   2.418  18.801  0.00  0.00    +0.000 A 
ATOM     22  C   UNL     1       2.191   2.400  18.425  0.00  0.00    +0.000 A 
ENDBRANCH  16  17
ENDBRANCH   8  16
TORSDOF 3
ENDMDL
MODEL 4
REMARK VINA RESULT:      -7.5      2.047      4.918
REMARK  Name = 
REMARK  5 active torsions:
REMARK  status: ('A' for Active; 'I' for Inactive)
REMARK    1  A    between atoms: C_1  and  O_2
REMARK    2  A    between atoms: O_2  and  C_3
REMARK    3  A    between atoms: N_10  and  C_11
REMARK    4  A    between atoms: C_11  and  C_12
REMARK    5  A    between atoms: C_20  and  C_21
REMARK                            x       y       z     vdW  Elec       q    Type
REMARK                         _______ _______ _______ _____ _____    ______ ____
ROOT
ATOM      1  C   UNL     1       1.925   7.324  19.410  0.00  0.00    +0.000 A 
ATOM      2  C   UNL     1       1.588   6.752  20.634  0.00  0.00    +0.000 A 
ATOM      3  C   UNL     1       1.510   5.366  20.765  0.00  0.00    +0.000 A 
ATOM      4  C   UNL     1       1.808   4.533  19.682  0.00  0.00    +0.000 A 
ATOM      5  C   UNL     1       2.191   5.099  18.451  0.00  0.00    +0.000 A 
ATOM      6  C   UNL     1       2.234   6.500  18.324  0.00  0.00    +0.000 A 
ATOM      7  C   UNL     1       2.575   4.240  17.274  0.00  0.00    +0.000 C 
ATOM      8  N   UNL     1       3.725   3.380  17.531  0.00  0.00    +0.000 N 
ATOM      9  C   UNL     1       3.557   2.210  18.248  0.00  0.00    +0.000 C 
ATOM     10  O   UNL     1       3.866   1.103  17.817  0.00  0.00    +0.000 OA
ATOM     11  C   UNL     1       3.180   2.398  19.709  0.00  0.00    +0.000 C 
ATOM     12  C   UNL     1       4.314   3.142  20.429  0.00  0.00    +0.000 C 
ATOM     13  C   UNL     1       1.802   3.036  19.881  0.00  0.00    +0.000 C 
ENDROOT
BRANCH   1  15
ATOM     14  C   UNL     1       1.933   9.285  18.110  0.00  0.00    +0.000 C 
ATOM     15  O   UNL     1       1.989   8.689  19.400  0.00  0.00    +0.000 OA
ENDBRANCH   1  15
BRANCH   8  16
ATOM     16  C   UNL     1       4.917   3.522  16.713  0.00  0.00    +0.000 C 
BRANCH  16  17
ATOM     17  C   UNL     1       5.806   4.684  17.069  0.00  0.00    +0.000 A 
ATOM     18  C   UNL     1       6.862   4.508  17.974  0.00  0.00    +0.000 A 
ATOM     19  C   UNL     1       7.677   5.584  18.324  0.00  0.00    +0.000 A 
ATOM     20  C   UNL     1       7.449   6.841  17.767  0.00  0.00    +0.000 A 
ATOM     21  C   UNL     1       6.418   7.020  16.848  0.00  0.00    +0.000 A 
ATOM     22  C   UNL     1       5.605   5.945  16.496  0.00  0.00    +0.000 A 
ENDBRANCH  16  17
ENDBRANCH   8  16
TORSDOF 3
ENDMDL
MODEL 5
REMARK VINA RESULT:      -7.5      2.048      4.931
REMARK  Name = 
REMARK  5 active torsions:
REMARK  status: ('A' for Active; 'I' for Inactive)
REMARK    1  A    between atoms: C_1  and  O_2
REMARK    2  A    between atoms: O_2  and  C_3
REMARK    3  A    between atoms: N_10  and  C_11
REMARK    4  A    between atoms: C_11  and  C_12
REMARK    5  A    between atoms: C_20  and  C_21
REMARK                            x       y       z     vdW  Elec       q    Type
REMARK                         _______ _______ _______ _____ _____    ______ ____
ROOT
ATOM      1  C   UNL     1       1.923   7.315  19.444  0.00  0.00    +0.000 A 
ATOM      2  C   UNL     1       1.565   6.724  20.653  0.00  0.00    +0.000 A 
ATOM      3  C   UNL     1       1.485   5.336  20.760  0.00  0.00    +0.000 A 
ATOM      4  C   UNL     1       1.800   4.521  19.669  0.00  0.00    +0.000 A 
ATOM      5  C   UNL     1       2.203   5.106  18.453  0.00  0.00    +0.000 A 
ATOM      6  C   UNL     1       2.248   6.509  18.350  0.00  0.00    +0.000 A 
ATOM      7  C   UNL     1       2.605   4.266  17.269  0.00  0.00    +0.000 C 
ATOM      8  N   UNL     1       3.750   3.402  17.531  0.00  0.00    +0.000 N 
ATOM      9  C   UNL     1       3.570   2.220  18.226  0.00  0.00    +0.000 C 
ATOM     10  O   UNL     1       3.886   1.120  17.782  0.00  0.00    +0.000 OA
ATOM     11  C   UNL     1       3.171   2.385  19.683  0.00  0.00    +0.000 C 
ATOM     12  C   UNL     1       4.293   3.116  20.433  0.00  0.00    +0.000 C 
ATOM     13  C   UNL     1       1.790   3.021  19.844  0.00  0.00    +0.000 C 
ENDROOT
BRANCH   1  15
ATOM     14  C   UNL     1       1.808   9.304  18.192  0.00  0.00    +0.000 C 
ATOM     15  O   UNL     1       1.987   8.680  19.457  0.00  0.00    +0.000 OA
ENDBRANCH   1  15
BRANCH   8  16
ATOM     16  C   UNL     1       4.955   3.556  16.734  0.00  0.00    +0.000 C 
BRANCH  16  17
ATOM     17  C   UNL     1       5.843   4.707  17.127  0.00  0.00    +0.000 A 
ATOM     18  C   UNL     1       5.654   5.969  16.546  0.00  0.00    +0.000 A 
ATOM     19  C   UNL     1       6.485   7.035  16.889  0.00  0.00    +0.000 A 
ATOM     20  C   UNL     1       7.504   6.851  17.821  0.00  0.00    +0.000 A 
ATOM     21  C   UNL     1       7.683   5.608  18.423  0.00  0.00    +0.000 A 
ATOM     22  C   UNL     1       6.853   4.543  18.082  0.00  0.00    +0.000 A 
ENDBRANCH  16  17
ENDBRANCH   8  16
TORSDOF 3
ENDMDL
MODEL 6
REMARK VINA RESULT:      -7.4      3.010      4.951
REMARK  Name = 
REMARK  5 active torsions:
REMARK  status: ('A' for Active; 'I' for Inactive)
REMARK    1  A    between atoms: C_1  and  O_2
REMARK    2  A    between atoms: O_2  and  C_3
REMARK    3  A    between atoms: N_10  and  C_11
REMARK    4  A    between atoms: C_11  and  C_12
REMARK    5  A    between atoms: C_20  and  C_21
REMARK                            x       y       z     vdW  Elec       q    Type
REMARK                         _______ _______ _______ _____ _____    ______ ____
ROOT
ATOM      1  C   UNL     1       5.930   3.774  13.436  0.00  0.00    +0.000 A 
ATOM      2  C   UNL     1       7.074   4.568  13.419  0.00  0.00    +0.000 A 
ATOM      3  C   UNL     1       7.340   5.439  14.474  0.00  0.00    +0.000 A 
ATOM      4  C   UNL     1       6.485   5.498  15.579  0.00  0.00    +0.000 A 
ATOM      5  C   UNL     1       5.348   4.670  15.626  0.00  0.00    +0.000 A 
ATOM      6  C   UNL     1       5.074   3.819  14.540  0.00  0.00    +0.000 A 
ATOM      7  C   UNL     1       4.430   4.660  16.822  0.00  0.00    +0.000 C 
ATOM      8  N   UNL     1       5.090   4.262  18.059  0.00  0.00    +0.000 N 
ATOM      9  C   UNL     1       5.866   5.178  18.745  0.00  0.00    +0.000 C 
ATOM     10  O   UNL     1       5.669   5.489  19.917  0.00  0.00    +0.000 OA
ATOM     11  C   UNL     1       7.136   5.609  18.030  0.00  0.00    +0.000 C 
ATOM     12  C   UNL     1       8.046   4.387  17.838  0.00  0.00    +0.000 C 
ATOM     13  C   UNL     1       6.850   6.386  16.745  0.00  0.00    +0.000 C 
ENDROOT
BRANCH   1  15
ATOM     14  C   UNL     1       4.594   3.156  11.600  0.00  0.00    +0.000 C 
ATOM     15  O   UNL     1       5.777   2.945  12.360  0.00  0.00    +0.000 OA
ENDBRANCH   1  15
BRANCH   8  16
ATOM     16  C   UNL     1       4.617   3.089  18.773  0.00  0.00    +0.000 C 
BRANCH  16  17
ATOM     17  C   UNL     1       3.159   3.108  19.147  0.00  0.00    +0.000 A 
ATOM     18  C   UNL     1       2.235   2.351  18.412  0.00  0.00    +0.000 A 
ATOM     19  C   UNL     1       0.880   2.380  18.739  0.00  0.00    +0.000 A 
ATOM     20  C   UNL     1       0.438   3.157  19.808  0.00  0.00    +0.000 A 
ATOM     21  C   UNL     1       1.351   3.892  20.560  0.00  0.00    +0.000 A 
ATOM     22  C   UNL     1       2.705   3.863  20.235  0.00  0.00    +0.000 A 
ENDBRANCH  16  17
ENDBRANCH   8  16
TORSDOF 3
ENDMDL
MODEL 7
REMARK VINA RESULT:      -7.3      2.350      6.483
REMARK  Name = 
REMARK  5 active torsions:
REMARK  status: ('A' for Active; 'I' for Inactive)
REMARK    1  A    between atoms: C_1  and  O_2
REMARK    2  A    between atoms: O_2  and  C_3
REMARK    3  A    between atoms: N_10  and  C_11
REMARK    4  A    between atoms: C_11  and  C_12
REMARK    5  A    between atoms: C_20  and  C_21
REMARK                            x       y       z     vdW  Elec       q    Type
REMARK                         _______ _______ _______ _____ _____    ______ ____
ROOT
ATOM      1  C   UNL     1       2.343   3.344  17.962  0.00  0.00    +0.000 A 
ATOM      2  C   UNL     1       1.612   4.523  17.840  0.00  0.00    +0.000 A 
ATOM      3  C   UNL     1       2.255   5.758  17.903  0.00  0.00    +0.000 A 
ATOM      4  C   UNL     1       3.644   5.829  18.051  0.00  0.00    +0.000 A 
ATOM      5  C   UNL     1       4.398   4.643  18.135  0.00  0.00    +0.000 A 
ATOM      6  C   UNL     1       3.732   3.404  18.101  0.00  0.00    +0.000 A 
ATOM      7  C   UNL     1       5.901   4.671  18.238  0.00  0.00    +0.000 C 
ATOM      8  N   UNL     1       6.552   5.310  17.100  0.00  0.00    +0.000 N 
ATOM      9  C   UNL     1       6.596   6.690  17.025  0.00  0.00    +0.000 C 
ATOM     10  O   UNL     1       7.641   7.328  16.929  0.00  0.00    +0.000 OA
ATOM     11  C   UNL     1       5.250   7.368  16.829  0.00  0.00    +0.000 C 
ATOM     12  C   UNL     1       4.651   6.919  15.488  0.00  0.00    +0.000 C 
ATOM     13  C   UNL     1       4.319   7.179  18.026  0.00  0.00    +0.000 C 
ENDROOT
BRANCH   1  15
ATOM     14  C   UNL     1       0.675   1.985  18.915  0.00  0.00    +0.000 C 
ATOM     15  O   UNL     1       1.614   2.192  17.868  0.00  0.00    +0.000 OA
ENDBRANCH   1  15
BRANCH   8  16
ATOM     16  C   UNL     1       7.485   4.545  16.292  0.00  0.00    +0.000 C 
BRANCH  16  17
ATOM     17  C   UNL     1       7.141   4.450  14.830  0.00  0.00    +0.000 A 
ATOM     18  C   UNL     1       6.061   3.660  14.412  0.00  0.00    +0.000 A 
ATOM     19  C   UNL     1       5.748   3.551  13.057  0.00  0.00    +0.000 A 
ATOM     20  C   UNL     1       6.507   4.235  12.110  0.00  0.00    +0.000 A 
ATOM     21  C   UNL     1       7.567   5.042  12.517  0.00  0.00    +0.000 A 
ATOM     22  C   UNL     1       7.878   5.153  13.870  0.00  0.00    +0.000 A 
ENDBRANCH  16  17
ENDBRANCH   8  16
TORSDOF 3
ENDMDL
MODEL 8
REMARK VINA RESULT:      -7.1      2.339      6.520
REMARK  Name = 
REMARK  5 active torsions:
REMARK  status: ('A' for Active; 'I' for Inactive)
REMARK    1  A    between atoms: C_1  and  O_2
REMARK    2  A    between atoms: O_2  and  C_3
REMARK    3  A    between atoms: N_10  and  C_11
REMARK    4  A    between atoms: C_11  and  C_12
REMARK    5  A    between atoms: C_20  and  C_21
REMARK                            x       y       z     vdW  Elec       q    Type
REMARK                         _______ _______ _______ _____ _____    ______ ____
ROOT
ATOM      1  C   UNL     1       2.246   3.446  17.944  0.00  0.00    +0.000 A 
ATOM      2  C   UNL     1       1.565   4.653  17.812  0.00  0.00    +0.000 A 
ATOM      3  C   UNL     1       2.256   5.862  17.875  0.00  0.00    +0.000 A 
ATOM      4  C   UNL     1       3.646   5.876  18.030  0.00  0.00    +0.000 A 
ATOM      5  C   UNL     1       4.351   4.661  18.123  0.00  0.00    +0.000 A 
ATOM      6  C   UNL     1       3.636   3.450  18.090  0.00  0.00    +0.000 A 
ATOM      7  C   UNL     1       5.854   4.628  18.235  0.00  0.00    +0.000 C 
ATOM      8  N   UNL     1       6.536   5.236  17.098  0.00  0.00    +0.000 N 
ATOM      9  C   UNL     1       6.637   6.613  17.018  0.00  0.00    +0.000 C 
ATOM     10  O   UNL     1       7.707   7.208  16.926  0.00  0.00    +0.000 OA
ATOM     11  C   UNL     1       5.320   7.344  16.811  0.00  0.00    +0.000 C 
ATOM     12  C   UNL     1       4.711   6.915  15.469  0.00  0.00    +0.000 C 
ATOM     13  C   UNL     1       4.376   7.198  18.004  0.00  0.00    +0.000 C 
ENDROOT
BRANCH   1  15
ATOM     14  C   UNL     1       0.694   2.030  19.002  0.00  0.00    +0.000 C 
ATOM     15  O   UNL     1       1.472   2.324  17.849  0.00  0.00    +0.000 OA
ENDBRANCH   1  15
BRANCH   8  16
ATOM     16  C   UNL     1       7.442   4.431  16.299  0.00  0.00    +0.000 C 
BRANCH  16  17
ATOM     17  C   UNL     1       7.113   4.358  14.831  0.00  0.00    +0.000 A 
ATOM     18  C   UNL     1       7.910   5.036  13.899  0.00  0.00    +0.000 A 
ATOM     19  C   UNL     1       7.599   4.990  12.540  0.00  0.00    +0.000 A 
ATOM     20  C   UNL     1       6.496   4.260  12.102  0.00  0.00    +0.000 A 
ATOM     21  C   UNL     1       5.713   3.563  13.018  0.00  0.00    +0.000 A 
ATOM     22  C   UNL     1       6.023   3.607  14.375  0.00  0.00    +0.000 A 
ENDBRANCH  16  17
ENDBRANCH   8  16
TORSDOF 3
ENDMDL
MODEL 9
REMARK VINA RESULT:      -6.7      1.754      4.948
REMARK  Name = 
REMARK  5 active torsions:
REMARK  status: ('A' for Active; 'I' for Inactive)
REMARK    1  A    between atoms: C_1  and  O_2
REMARK    2  A    between atoms: O_2  and  C_3
REMARK    3  A    between atoms: N_10  and  C_11
REMARK    4  A    between atoms: C_11  and  C_12
REMARK    5  A    between atoms: C_20  and  C_21
REMARK                            x       y       z     vdW  Elec       q    Type
REMARK                         _______ _______ _______ _____ _____    ______ ____
ROOT
ATOM      1  C   UNL     1       2.262   7.760  18.877  0.00  0.00    +0.000 A 
ATOM      2  C   UNL     1       1.887   7.612  20.210  0.00  0.00    +0.000 A 
ATOM      3  C   UNL     1       1.475   6.370  20.691  0.00  0.00    +0.000 A 
ATOM      4  C   UNL     1       1.473   5.250  19.853  0.00  0.00    +0.000 A 
ATOM      5  C   UNL     1       1.890   5.378  18.515  0.00  0.00    +0.000 A 
ATOM      6  C   UNL     1       2.272   6.644  18.035  0.00  0.00    +0.000 A 
ATOM      7  C   UNL     1       1.956   4.188  17.593  0.00  0.00    +0.000 C 
ATOM      8  N   UNL     1       2.871   3.148  18.049  0.00  0.00    +0.000 N 
ATOM      9  C   UNL     1       2.471   2.274  19.043  0.00  0.00    +0.000 C 
ATOM     10  O   UNL     1       2.460   1.054  18.906  0.00  0.00    +0.000 OA
ATOM     11  C   UNL     1       2.265   2.904  20.411  0.00  0.00    +0.000 C 
ATOM     12  C   UNL     1       3.601   3.479  20.906  0.00  0.00    +0.000 C 
ATOM     13  C   UNL     1       1.108   3.902  20.429  0.00  0.00    +0.000 C 
ENDROOT
BRANCH   1  15
ATOM     14  C   UNL     1       1.663   9.814  17.899  0.00  0.00    +0.000 C 
ATOM     15  O   UNL     1       2.664   9.016  18.518  0.00  0.00    +0.000 OA
ENDBRANCH   1  15
BRANCH   8  16
ATOM     16  C   UNL     1       3.994   2.770  17.210  0.00  0.00    +0.000 C 
BRANCH  16  17
ATOM     17  C   UNL     1       5.012   3.854  16.971  0.00  0.00    +0.000 A 
ATOM     18  C   UNL     1       5.268   4.301  15.668  0.00  0.00    +0.000 A 
ATOM     19  C   UNL     1       6.224   5.290  15.436  0.00  0.00    +0.000 A 
ATOM     20  C   UNL     1       6.924   5.845  16.505  0.00  0.00    +0.000 A 
ATOM     21  C   UNL     1       6.659   5.425  17.806  0.00  0.00    +0.000 A 
ATOM     22  C   UNL     1       5.703   4.439  18.038  0.00  0.00    +0.000 A 
ENDBRANCH  16  17
ENDBRANCH   8  16
TORSDOF 3
ENDMDL
