MODEL 1
REMARK VINA RESULT:      -8.2      0.000      0.000
REMARK  Name = 
REMARK  7 active torsions:
REMARK  status: ('A' for Active; 'I' for Inactive)
REMARK    1  A    between atoms: C_1  and  C_2
REMARK    2  A    between atoms: C_6  and  C_8
REMARK    3  A    between atoms: C_8  and  S_9
REMARK    4  A    between atoms: S_9  and  C_10
REMARK    5  A    between atoms: C_14  and  N_15
REMARK    6  A    between atoms: C_16  and  C_18
REMARK    7  A    between atoms: C_25  and  O_26
REMARK                            x       y       z     vdW  Elec       q    Type
REMARK                         _______ _______ _______ _____ _____    ______ ____
ROOT
ATOM      1  C   UNL     1       2.436   6.669  19.000  0.00  0.00    +0.000 A 
ATOM      2  N   UNL     1       2.089   6.900  20.276  0.00  0.00    +0.000 NA
ATOM      3  C   UNL     1       1.616   8.125  20.546  0.00  0.00    +0.000 A 
ATOM      4  N   UNL     1       1.251   8.381  21.879  0.00  0.00    +0.000 N 
ATOM      5  C   UNL     1       1.469   9.122  19.588  0.00  0.00    +0.000 A 
ATOM      6  C   UNL     1       1.838   8.757  18.307  0.00  0.00    +0.000 A 
ATOM      7  N   UNL     1       2.328   7.542  17.993  0.00  0.00    +0.000 NA
ATOM      8  H   UNL     1       1.392   7.518  22.398  0.00  0.00    +0.000 HD
ATOM      9  H   UNL     1       0.281   8.678  21.931  0.00  0.00    +0.000 HD
ENDROOT
BRANCH   5  10
ATOM     10  N   UNL     1       1.035  10.402  20.017  0.00  0.00    +0.000 N 
ATOM     11  C   UNL     1      -0.266  10.848  19.950  0.00  0.00    +0.000 C 
ATOM     12  O   UNL     1      -1.157  10.224  19.383  0.00  0.00    +0.000 OA
ATOM     13  H   UNL     1       1.648  10.833  20.705  0.00  0.00    +0.000 HD
BRANCH  11  14
ATOM     14  C   UNL     1      -0.573  12.138  20.638  0.00  0.00    +0.000 A 
ATOM     15  C   UNL     1      -0.666  12.162  22.038  0.00  0.00    +0.000 A 
ATOM     16  C   UNL     1      -0.994  13.348  22.707  0.00  0.00    +0.000 A 
ATOM     17  C   UNL     1      -1.233  14.518  21.983  0.00  0.00    +0.000 A 
ATOM     18  C   UNL     1      -1.130  14.507  20.595  0.00  0.00    +0.000 A 
ATOM     19  C   UNL     1      -0.796  13.325  19.935  0.00  0.00    +0.000 A 
ATOM     20  F   UNL     1      -0.688  13.366  18.598  0.00  0.00    +0.000 F 
ENDBRANCH  11  14
ENDBRANCH   5  10
BRANCH   6  21
ATOM     21  O   UNL     1       1.881   9.648  17.276  0.00  0.00    +0.000 OA
ATOM     22  H   UNL     1       1.289   9.305  16.585  0.00  0.00    +0.000 HD
ENDBRANCH   6  21
BRANCH   1  23
ATOM     23  S   UNL     1       3.237   5.128  18.632  0.00  0.00    +0.000 S 
BRANCH  23  24
ATOM     24  C   UNL     1       4.927   5.545  19.158  0.00  0.00    +0.000 C 
BRANCH  24  30
ATOM     25  C   UNL     1       7.029   4.074  12.180  0.00  0.00    +0.000 C 
ATOM     26  C   UNL     1       6.810   4.472  13.582  0.00  0.00    +0.000 A 
ATOM     27  C   UNL     1       5.849   4.211  14.522  0.00  0.00    +0.000 A 
ATOM     28  C   UNL     1       6.259   4.934  15.674  0.00  0.00    +0.000 A 
ATOM     29  N   UNL     1       5.549   4.949  16.858  0.00  0.00    +0.000 N 
ATOM     30  C   UNL     1       5.890   5.679  17.983  0.00  0.00    +0.000 C 
ATOM     31  O   UNL     1       6.918   6.345  18.120  0.00  0.00    +0.000 OA
ATOM     32  N   UNL     1       7.399   5.579  15.432  0.00  0.00    +0.000 NA
ATOM     33  O   UNL     1       7.744   5.294  14.124  0.00  0.00    +0.000 OA
ATOM     34  H   UNL     1       4.666   4.450  16.875  0.00  0.00    +0.000 HD
ENDBRANCH  24  30
ENDBRANCH  23  24
ENDBRANCH   1  23
TORSDOF 6
ENDMDL
MODEL 2
REMARK VINA RESULT:      -8.1      1.309      1.605
REMARK  Name = 
REMARK  7 active torsions:
REMARK  status: ('A' for Active; 'I' for Inactive)
REMARK    1  A    between atoms: C_1  and  C_2
REMARK    2  A    between atoms: C_6  and  C_8
REMARK    3  A    between atoms: C_8  and  S_9
REMARK    4  A    between atoms: S_9  and  C_10
REMARK    5  A    between atoms: C_14  and  N_15
REMARK    6  A    between atoms: C_16  and  C_18
REMARK    7  A    between atoms: C_25  and  O_26
REMARK                            x       y       z     vdW  Elec       q    Type
REMARK                         _______ _______ _______ _____ _____    ______ ____
ROOT
ATOM      1  C   UNL     1       2.645   7.111  18.550  0.00  0.00    +0.000 A 
ATOM      2  N   UNL     1       2.310   7.050  19.848  0.00  0.00    +0.000 NA
ATOM      3  C   UNL     1       1.674   8.121  20.344  0.00  0.00    +0.000 A 
ATOM      4  N   UNL     1       1.320   8.071  21.703  0.00  0.00    +0.000 N 
ATOM      5  C   UNL     1       1.352   9.243  19.589  0.00  0.00    +0.000 A 
ATOM      6  C   UNL     1       1.728   9.178  18.260  0.00  0.00    +0.000 A 
ATOM      7  N   UNL     1       2.378   8.128  17.723  0.00  0.00    +0.000 NA
ATOM      8  H   UNL     1       1.601   7.158  22.052  0.00  0.00    +0.000 HD
ATOM      9  H   UNL     1       0.319   8.205  21.816  0.00  0.00    +0.000 HD
ENDROOT
BRANCH   5  10
ATOM     10  N   UNL     1       0.752  10.344  20.251  0.00  0.00    +0.000 N 
ATOM     11  C   UNL     1      -0.536  10.782  20.028  0.00  0.00    +0.000 C 
ATOM     12  O   UNL     1      -1.244  10.339  19.130  0.00  0.00    +0.000 OA
ATOM     13  H   UNL     1       1.177  10.564  21.149  0.00  0.00    +0.000 HD
BRANCH  11  14
ATOM     14  C   UNL     1      -1.066  11.819  20.963  0.00  0.00    +0.000 A 
ATOM     15  C   UNL     1      -1.422  13.079  20.457  0.00  0.00    +0.000 A 
ATOM     16  C   UNL     1      -1.882  14.085  21.316  0.00  0.00    +0.000 A 
ATOM     17  C   UNL     1      -1.990  13.840  22.687  0.00  0.00    +0.000 A 
ATOM     18  C   UNL     1      -1.651  12.589  23.195  0.00  0.00    +0.000 A 
ATOM     19  C   UNL     1      -1.201  11.590  22.335  0.00  0.00    +0.000 A 
ATOM     20  F   UNL     1      -0.905  10.394  22.866  0.00  0.00    +0.000 F 
ENDBRANCH  11  14
ENDBRANCH   5  10
BRANCH   6  21
ATOM     21  O   UNL     1       1.607  10.239  17.413  0.00  0.00    +0.000 OA
ATOM     22  H   UNL     1       1.003   9.962  16.702  0.00  0.00    +0.000 HD
ENDBRANCH   6  21
BRANCH   1  23
ATOM     23  S   UNL     1       3.648   5.800  17.896  0.00  0.00    +0.000 S 
BRANCH  23  24
ATOM     24  C   UNL     1       5.274   6.610  17.980  0.00  0.00    +0.000 C 
BRANCH  24  30
ATOM     25  C   UNL     1       6.695   3.023  11.624  0.00  0.00    +0.000 C 
ATOM     26  C   UNL     1       6.613   3.833  12.853  0.00  0.00    +0.000 A 
ATOM     27  C   UNL     1       5.742   3.906  13.906  0.00  0.00    +0.000 A 
ATOM     28  C   UNL     1       6.267   4.925  14.745  0.00  0.00    +0.000 A 
ATOM     29  N   UNL     1       5.671   5.324  15.925  0.00  0.00    +0.000 N 
ATOM     30  C   UNL     1       6.125   6.344  16.742  0.00  0.00    +0.000 C 
ATOM     31  O   UNL     1       7.169   6.979  16.582  0.00  0.00    +0.000 OA
ATOM     32  N   UNL     1       7.387   5.421  14.222  0.00  0.00    +0.000 NA
ATOM     33  O   UNL     1       7.604   4.742  13.038  0.00  0.00    +0.000 OA
ATOM     34  H   UNL     1       4.787   4.890  16.168  0.00  0.00    +0.000 HD
ENDBRANCH  24  30
ENDBRANCH  23  24
ENDBRANCH   1  23
TORSDOF 6
ENDMDL
MODEL 3
REMARK VINA RESULT:      -8.1      2.427      3.704
REMARK  Name = 
REMARK  7 active torsions:
REMARK  status: ('A' for Active; 'I' for Inactive)
REMARK    1  A    between atoms: C_1  and  C_2
REMARK    2  A    between atoms: C_6  and  C_8
REMARK    3  A    between atoms: C_8  and  S_9
REMARK    4  A    between atoms: S_9  and  C_10
REMARK    5  A    between atoms: C_14  and  N_15
REMARK    6  A    between atoms: C_16  and  C_18
REMARK    7  A    between atoms: C_25  and  O_26
REMARK                            x       y       z     vdW  Elec       q    Type
REMARK                         _______ _______ _______ _____ _____    ______ ____
ROOT
ATOM      1  C   UNL     1       3.595   4.633  18.136  0.00  0.00    +0.000 A 
ATOM      2  N   UNL     1       3.013   4.348  19.312  0.00  0.00    +0.000 NA
ATOM      3  C   UNL     1       2.476   5.385  19.971  0.00  0.00    +0.000 A 
ATOM      4  N   UNL     1       1.866   5.101  21.204  0.00  0.00    +0.000 N 
ATOM      5  C   UNL     1       2.492   6.691  19.495  0.00  0.00    +0.000 A 
ATOM      6  C   UNL     1       3.098   6.854  18.264  0.00  0.00    +0.000 A 
ATOM      7  N   UNL     1       3.659   5.844  17.572  0.00  0.00    +0.000 NA
ATOM      8  H   UNL     1       1.924   4.094  21.342  0.00  0.00    +0.000 HD
ATOM      9  H   UNL     1       0.898   5.408  21.202  0.00  0.00    +0.000 HD
ENDROOT
BRANCH   5  10
ATOM     10  N   UNL     1       1.963   7.711  20.326  0.00  0.00    +0.000 N 
ATOM     11  C   UNL     1       1.182   8.755  19.880  0.00  0.00    +0.000 C 
ATOM     12  O   UNL     1       0.981   8.976  18.691  0.00  0.00    +0.000 OA
ATOM     13  H   UNL     1       1.878   7.441  21.303  0.00  0.00    +0.000 HD
BRANCH  11  14
ATOM     14  C   UNL     1       0.544   9.613  20.923  0.00  0.00    +0.000 A 
ATOM     15  C   UNL     1      -0.055   9.005  22.037  0.00  0.00    +0.000 A 
ATOM     16  C   UNL     1      -0.698   9.781  23.009  0.00  0.00    +0.000 A 
ATOM     17  C   UNL     1      -0.749  11.170  22.875  0.00  0.00    +0.000 A 
ATOM     18  C   UNL     1      -0.147  11.783  21.781  0.00  0.00    +0.000 A 
ATOM     19  C   UNL     1       0.498  11.006  20.820  0.00  0.00    +0.000 A 
ATOM     20  F   UNL     1       1.082  11.640  19.792  0.00  0.00    +0.000 F 
ENDBRANCH  11  14
ENDBRANCH   5  10
BRANCH   6  21
ATOM     21  O   UNL     1       3.315   8.082  17.713  0.00  0.00    +0.000 OA
ATOM     22  H   UNL     1       4.250   8.299  17.871  0.00  0.00    +0.000 HD
ENDBRANCH   6  21
BRANCH   1  23
ATOM     23  S   UNL     1       4.478   3.329  17.318  0.00  0.00    +0.000 S 
BRANCH  23  24
ATOM     24  C   UNL     1       5.669   4.330  16.376  0.00  0.00    +0.000 C 
BRANCH  24  30
ATOM     25  C   UNL     1       9.004  10.602  18.572  0.00  0.00    +0.000 C 
ATOM     26  C   UNL     1       8.476   9.256  18.287  0.00  0.00    +0.000 A 
ATOM     27  C   UNL     1       7.605   8.733  17.369  0.00  0.00    +0.000 A 
ATOM     28  C   UNL     1       7.539   7.348  17.674  0.00  0.00    +0.000 A 
ATOM     29  N   UNL     1       6.751   6.451  16.981  0.00  0.00    +0.000 N 
ATOM     30  C   UNL     1       6.623   5.106  17.279  0.00  0.00    +0.000 C 
ATOM     31  O   UNL     1       7.258   4.501  18.145  0.00  0.00    +0.000 OA
ATOM     32  N   UNL     1       8.329   7.066  18.709  0.00  0.00    +0.000 NA
ATOM     33  O   UNL     1       8.914   8.257  19.096  0.00  0.00    +0.000 OA
ATOM     34  H   UNL     1       6.158   6.825  16.248  0.00  0.00    +0.000 HD
ENDBRANCH  24  30
ENDBRANCH  23  24
ENDBRANCH   1  23
TORSDOF 6
ENDMDL
MODEL 4
REMARK VINA RESULT:      -8.1      1.273      1.653
REMARK  Name = 
REMARK  7 active torsions:
REMARK  status: ('A' for Active; 'I' for Inactive)
REMARK    1  A    between atoms: C_1  and  C_2
REMARK    2  A    between atoms: C_6  and  C_8
REMARK    3  A    between atoms: C_8  and  S_9
REMARK    4  A    between atoms: S_9  and  C_10
REMARK    5  A    between atoms: C_14  and  N_15
REMARK    6  A    between atoms: C_16  and  C_18
REMARK    7  A    between atoms: C_25  and  O_26
REMARK                            x       y       z     vdW  Elec       q    Type
REMARK                         _______ _______ _______ _____ _____    ______ ____
ROOT
ATOM      1  C   UNL     1       2.878   5.610  18.999  0.00  0.00    +0.000 A 
ATOM      2  N   UNL     1       2.312   5.932  20.173  0.00  0.00    +0.000 NA
ATOM      3  C   UNL     1       1.850   7.186  20.281  0.00  0.00    +0.000 A 
ATOM      4  N   UNL     1       1.257   7.537  21.506  0.00  0.00    +0.000 N 
ATOM      5  C   UNL     1       1.924   8.124  19.257  0.00  0.00    +0.000 A 
ATOM      6  C   UNL     1       2.506   7.667  18.090  0.00  0.00    +0.000 A 
ATOM      7  N   UNL     1       2.993   6.420  17.941  0.00  0.00    +0.000 NA
ATOM      8  H   UNL     1       1.264   6.705  22.090  0.00  0.00    +0.000 HD
ATOM      9  H   UNL     1       0.307   7.867  21.360  0.00  0.00    +0.000 HD
ENDROOT
BRANCH   5  10
ATOM     10  N   UNL     1       1.473   9.442  19.525  0.00  0.00    +0.000 N 
ATOM     11  C   UNL     1       0.468  10.080  18.831  0.00  0.00    +0.000 C 
ATOM     12  O   UNL     1      -0.044   9.612  17.819  0.00  0.00    +0.000 OA
ATOM     13  H   UNL     1       1.665   9.756  20.473  0.00  0.00    +0.000 HD
BRANCH  11  14
ATOM     14  C   UNL     1      -0.013  11.380  19.385  0.00  0.00    +0.000 A 
ATOM     15  C   UNL     1       0.137  12.548  18.621  0.00  0.00    +0.000 A 
ATOM     16  C   UNL     1      -0.266  13.788  19.132  0.00  0.00    +0.000 A 
ATOM     17  C   UNL     1      -0.822  13.871  20.410  0.00  0.00    +0.000 A 
ATOM     18  C   UNL     1      -0.987  12.717  21.170  0.00  0.00    +0.000 A 
ATOM     19  C   UNL     1      -0.590  11.485  20.654  0.00  0.00    +0.000 A 
ATOM     20  F   UNL     1      -0.787  10.396  21.413  0.00  0.00    +0.000 F 
ENDBRANCH  11  14
ENDBRANCH   5  10
BRANCH   6  21
ATOM     21  O   UNL     1       2.774   8.489  17.036  0.00  0.00    +0.000 OA
ATOM     22  H   UNL     1       2.615   9.399  17.343  0.00  0.00    +0.000 HD
ENDBRANCH   6  21
BRANCH   1  23
ATOM     23  S   UNL     1       3.666   4.025  18.873  0.00  0.00    +0.000 S 
BRANCH  23  24
ATOM     24  C   UNL     1       5.368   4.513  19.288  0.00  0.00    +0.000 C 
BRANCH  24  30
ATOM     25  C   UNL     1       7.070   4.176  12.058  0.00  0.00    +0.000 C 
ATOM     26  C   UNL     1       6.903   4.389  13.507  0.00  0.00    +0.000 A 
ATOM     27  C   UNL     1       6.119   3.834  14.482  0.00  0.00    +0.000 A 
ATOM     28  C   UNL     1       6.465   4.529  15.671  0.00  0.00    +0.000 A 
ATOM     29  N   UNL     1       5.886   4.278  16.898  0.00  0.00    +0.000 N 
ATOM     30  C   UNL     1       6.161   4.966  18.066  0.00  0.00    +0.000 C 
ATOM     31  O   UNL     1       7.024   5.837  18.198  0.00  0.00    +0.000 OA
ATOM     32  N   UNL     1       7.405   5.438  15.416  0.00  0.00    +0.000 NA
ATOM     33  O   UNL     1       7.679   5.354  14.063  0.00  0.00    +0.000 OA
ATOM     34  H   UNL     1       5.141   3.590  16.927  0.00  0.00    +0.000 HD
ENDBRANCH  24  30
ENDBRANCH  23  24
ENDBRANCH   1  23
TORSDOF 6
ENDMDL
MODEL 5
REMARK VINA RESULT:      -8.0      3.849      8.980
REMARK  Name = 
REMARK  7 active torsions:
REMARK  status: ('A' for Active; 'I' for Inactive)
REMARK    1  A    between atoms: C_1  and  C_2
REMARK    2  A    between atoms: C_6  and  C_8
REMARK    3  A    between atoms: C_8  and  S_9
REMARK    4  A    between atoms: S_9  and  C_10
REMARK    5  A    between atoms: C_14  and  N_15
REMARK    6  A    between atoms: C_16  and  C_18
REMARK    7  A    between atoms: C_25  and  O_26
REMARK                            x       y       z     vdW  Elec       q    Type
REMARK                         _______ _______ _______ _____ _____    ______ ____
ROOT
ATOM      1  C   UNL     1       0.806  11.294  20.518  0.00  0.00    +0.000 A 
ATOM      2  N   UNL     1       0.980  10.299  21.402  0.00  0.00    +0.000 NA
ATOM      3  C   UNL     1       1.321   9.108  20.889  0.00  0.00    +0.000 A 
ATOM      4  N   UNL     1       1.504   8.056  21.803  0.00  0.00    +0.000 N 
ATOM      5  C   UNL     1       1.504   8.879  19.530  0.00  0.00    +0.000 A 
ATOM      6  C   UNL     1       1.319   9.986  18.723  0.00  0.00    +0.000 A 
ATOM      7  N   UNL     1       0.966  11.198  19.194  0.00  0.00    +0.000 NA
ATOM      8  H   UNL     1       1.369   8.443  22.734  0.00  0.00    +0.000 HD
ATOM      9  H   UNL     1       2.435   7.661  21.710  0.00  0.00    +0.000 HD
ENDROOT
BRANCH   5  10
ATOM     10  N   UNL     1       1.783   7.555  19.107  0.00  0.00    +0.000 N 
ATOM     11  C   UNL     1       2.813   7.206  18.261  0.00  0.00    +0.000 C 
ATOM     12  O   UNL     1       3.508   8.033  17.681  0.00  0.00    +0.000 OA
ATOM     13  H   UNL     1       1.426   6.840  19.737  0.00  0.00    +0.000 HD
BRANCH  11  14
ATOM     14  C   UNL     1       3.082   5.747  18.093  0.00  0.00    +0.000 A 
ATOM     15  C   UNL     1       2.006   4.872  17.877  0.00  0.00    +0.000 A 
ATOM     16  C   UNL     1       2.225   3.493  17.759  0.00  0.00    +0.000 A 
ATOM     17  C   UNL     1       3.519   2.979  17.856  0.00  0.00    +0.000 A 
ATOM     18  C   UNL     1       4.594   3.840  18.057  0.00  0.00    +0.000 A 
ATOM     19  C   UNL     1       4.371   5.211  18.167  0.00  0.00    +0.000 A 
ATOM     20  F   UNL     1       5.438   6.005  18.340  0.00  0.00    +0.000 F 
ENDBRANCH  11  14
ENDBRANCH   5  10
BRANCH   6  21
ATOM     21  O   UNL     1       1.331   9.910  17.363  0.00  0.00    +0.000 OA
ATOM     22  H   UNL     1       0.510   9.458  17.100  0.00  0.00    +0.000 HD
ENDBRANCH   6  21
BRANCH   1  23
ATOM     23  S   UNL     1       0.176  12.837  21.131  0.00  0.00    +0.000 S 
BRANCH  23  24
ATOM     24  C   UNL     1      -1.516  12.316  21.545  0.00  0.00    +0.000 C 
BRANCH  24  30
ATOM     25  C   UNL     1      -3.257  10.070  14.674  0.00  0.00    +0.000 C 
ATOM     26  C   UNL     1      -3.095  10.645  16.021  0.00  0.00    +0.000 A 
ATOM     27  C   UNL     1      -2.137  10.568  16.997  0.00  0.00    +0.000 A 
ATOM     28  C   UNL     1      -2.631  11.372  18.058  0.00  0.00    +0.000 A 
ATOM     29  N   UNL     1      -1.963  11.554  19.252  0.00  0.00    +0.000 N 
ATOM     30  C   UNL     1      -2.434  12.288  20.326  0.00  0.00    +0.000 C 
ATOM     31  O   UNL     1      -3.471  12.955  20.338  0.00  0.00    +0.000 OA
ATOM     32  N   UNL     1      -3.809  11.899  17.728  0.00  0.00    +0.000 NA
ATOM     33  O   UNL     1      -4.103  11.444  16.456  0.00  0.00    +0.000 OA
ATOM     34  H   UNL     1      -1.096  11.042  19.381  0.00  0.00    +0.000 HD
ENDBRANCH  24  30
ENDBRANCH  23  24
ENDBRANCH   1  23
TORSDOF 6
ENDMDL
MODEL 6
REMARK VINA RESULT:      -8.0      4.239      9.114
REMARK  Name = 
REMARK  7 active torsions:
REMARK  status: ('A' for Active; 'I' for Inactive)
REMARK    1  A    between atoms: C_1  and  C_2
REMARK    2  A    between atoms: C_6  and  C_8
REMARK    3  A    between atoms: C_8  and  S_9
REMARK    4  A    between atoms: S_9  and  C_10
REMARK    5  A    between atoms: C_14  and  N_15
REMARK    6  A    between atoms: C_16  and  C_18
REMARK    7  A    between atoms: C_25  and  O_26
REMARK                            x       y       z     vdW  Elec       q    Type
REMARK                         _______ _______ _______ _____ _____    ______ ____
ROOT
ATOM      1  C   UNL     1       0.354  11.210  20.519  0.00  0.00    +0.000 A 
ATOM      2  N   UNL     1       0.507  10.930  19.215  0.00  0.00    +0.000 NA
ATOM      3  C   UNL     1       1.137   9.782  18.928  0.00  0.00    +0.000 A 
ATOM      4  N   UNL     1       1.307   9.478  17.567  0.00  0.00    +0.000 N 
ATOM      5  C   UNL     1       1.610   8.901  19.895  0.00  0.00    +0.000 A 
ATOM      6  C   UNL     1       1.372   9.287  21.200  0.00  0.00    +0.000 A 
ATOM      7  N   UNL     1       0.753  10.436  21.534  0.00  0.00    +0.000 NA
ATOM      8  H   UNL     1       0.855  10.219  17.036  0.00  0.00    +0.000 HD
ATOM      9  H   UNL     1       0.892   8.577  17.349  0.00  0.00    +0.000 HD
ENDROOT
BRANCH   5  10
ATOM     10  N   UNL     1       2.333   7.760  19.462  0.00  0.00    +0.000 N 
ATOM     11  C   UNL     1       2.053   6.467  19.845  0.00  0.00    +0.000 C 
ATOM     12  O   UNL     1       1.228   6.192  20.710  0.00  0.00    +0.000 OA
ATOM     13  H   UNL     1       2.826   7.897  18.583  0.00  0.00    +0.000 HD
BRANCH  11  14
ATOM     14  C   UNL     1       2.783   5.379  19.129  0.00  0.00    +0.000 A 
ATOM     15  C   UNL     1       4.051   4.988  19.588  0.00  0.00    +0.000 A 
ATOM     16  C   UNL     1       4.777   4.000  18.911  0.00  0.00    +0.000 A 
ATOM     17  C   UNL     1       4.243   3.396  17.771  0.00  0.00    +0.000 A 
ATOM     18  C   UNL     1       2.982   3.767  17.317  0.00  0.00    +0.000 A 
ATOM     19  C   UNL     1       2.261   4.746  17.998  0.00  0.00    +0.000 A 
ATOM     20  F   UNL     1       1.040   5.058  17.536  0.00  0.00    +0.000 F 
ENDBRANCH  11  14
ENDBRANCH   5  10
BRANCH   6  21
ATOM     21  O   UNL     1       1.880   8.609  22.267  0.00  0.00    +0.000 OA
ATOM     22  H   UNL     1       1.201   8.632  22.964  0.00  0.00    +0.000 HD
ENDBRANCH   6  21
BRANCH   1  23
ATOM     23  S   UNL     1      -0.308  12.800  20.947  0.00  0.00    +0.000 S 
BRANCH  23  24
ATOM     24  C   UNL     1      -2.017  12.311  21.330  0.00  0.00    +0.000 C 
BRANCH  24  30
ATOM     25  C   UNL     1      -3.324  10.090  14.356  0.00  0.00    +0.000 C 
ATOM     26  C   UNL     1      -3.261  10.640  15.722  0.00  0.00    +0.000 A 
ATOM     27  C   UNL     1      -2.327  10.637  16.723  0.00  0.00    +0.000 A 
ATOM     28  C   UNL     1      -2.931  11.354  17.790  0.00  0.00    +0.000 A 
ATOM     29  N   UNL     1      -2.318  11.571  19.007  0.00  0.00    +0.000 N 
ATOM     30  C   UNL     1      -2.893  12.220  20.085  0.00  0.00    +0.000 C 
ATOM     31  O   UNL     1      -3.995  12.773  20.083  0.00  0.00    +0.000 OA
ATOM     32  N   UNL     1      -4.150  11.763  17.438  0.00  0.00    +0.000 NA
ATOM     33  O   UNL     1      -4.359  11.316  16.147  0.00  0.00    +0.000 OA
ATOM     34  H   UNL     1      -1.406  11.150  19.149  0.00  0.00    +0.000 HD
ENDBRANCH  24  30
ENDBRANCH  23  24
ENDBRANCH   1  23
TORSDOF 6
ENDMDL
MODEL 7
REMARK VINA RESULT:      -7.8      0.989      1.620
REMARK  Name = 
REMARK  7 active torsions:
REMARK  status: ('A' for Active; 'I' for Inactive)
REMARK    1  A    between atoms: C_1  and  C_2
REMARK    2  A    between atoms: C_6  and  C_8
REMARK    3  A    between atoms: C_8  and  S_9
REMARK    4  A    between atoms: S_9  and  C_10
REMARK    5  A    between atoms: C_14  and  N_15
REMARK    6  A    between atoms: C_16  and  C_18
REMARK    7  A    between atoms: C_25  and  O_26
REMARK                            x       y       z     vdW  Elec       q    Type
REMARK                         _______ _______ _______ _____ _____    ______ ____
ROOT
ATOM      1  C   UNL     1       2.324   7.151  18.925  0.00  0.00    +0.000 A 
ATOM      2  N   UNL     1       2.224   8.161  18.047  0.00  0.00    +0.000 NA
ATOM      3  C   UNL     1       1.704   9.303  18.518  0.00  0.00    +0.000 A 
ATOM      4  N   UNL     1       1.591  10.368  17.608  0.00  0.00    +0.000 N 
ATOM      5  C   UNL     1       1.289   9.474  19.834  0.00  0.00    +0.000 A 
ATOM      6  C   UNL     1       1.464   8.371  20.648  0.00  0.00    +0.000 A 
ATOM      7  N   UNL     1       1.972   7.202  20.215  0.00  0.00    +0.000 NA
ATOM      8  H   UNL     1       1.988  10.051  16.727  0.00  0.00    +0.000 HD
ATOM      9  H   UNL     1       2.088  11.185  17.952  0.00  0.00    +0.000 HD
ENDROOT
BRANCH   5  10
ATOM     10  N   UNL     1       0.679  10.705  20.187  0.00  0.00    +0.000 N 
ATOM     11  C   UNL     1      -0.637  11.026  19.933  0.00  0.00    +0.000 C 
ATOM     12  O   UNL     1      -1.374  10.323  19.251  0.00  0.00    +0.000 OA
ATOM     13  H   UNL     1       1.144  11.188  20.952  0.00  0.00    +0.000 HD
BRANCH  11  14
ATOM     14  C   UNL     1      -1.159  12.277  20.560  0.00  0.00    +0.000 A 
ATOM     15  C   UNL     1      -1.673  12.226  21.865  0.00  0.00    +0.000 A 
ATOM     16  C   UNL     1      -2.208  13.373  22.463  0.00  0.00    +0.000 A 
ATOM     17  C   UNL     1      -2.235  14.581  21.761  0.00  0.00    +0.000 A 
ATOM     18  C   UNL     1      -1.715  14.644  20.472  0.00  0.00    +0.000 A 
ATOM     19  C   UNL     1      -1.177  13.500  19.885  0.00  0.00    +0.000 A 
ATOM     20  F   UNL     1      -0.669  13.613  18.648  0.00  0.00    +0.000 F 
ENDBRANCH  11  14
ENDBRANCH   5  10
BRANCH   6  21
ATOM     21  O   UNL     1       0.994   8.324  21.927  0.00  0.00    +0.000 OA
ATOM     22  H   UNL     1       1.139   9.206  22.311  0.00  0.00    +0.000 HD
ENDBRANCH   6  21
BRANCH   1  23
ATOM     23  S   UNL     1       2.833   5.568  18.304  0.00  0.00    +0.000 S 
BRANCH  23  24
ATOM     24  C   UNL     1       4.528   5.529  18.965  0.00  0.00    +0.000 C 
BRANCH  24  30
ATOM     25  C   UNL     1       7.163   4.135  12.154  0.00  0.00    +0.000 C 
ATOM     26  C   UNL     1       6.838   4.514  13.540  0.00  0.00    +0.000 A 
ATOM     27  C   UNL     1       5.801   4.254  14.396  0.00  0.00    +0.000 A 
ATOM     28  C   UNL     1       6.127   4.951  15.589  0.00  0.00    +0.000 A 
ATOM     29  N   UNL     1       5.325   4.959  16.712  0.00  0.00    +0.000 N 
ATOM     30  C   UNL     1       5.584   5.665  17.873  0.00  0.00    +0.000 C 
ATOM     31  O   UNL     1       6.608   6.312  18.104  0.00  0.00    +0.000 OA
ATOM     32  N   UNL     1       7.293   5.582  15.451  0.00  0.00    +0.000 NA
ATOM     33  O   UNL     1       7.738   5.312  14.170  0.00  0.00    +0.000 OA
ATOM     34  H   UNL     1       4.435   4.475  16.650  0.00  0.00    +0.000 HD
ENDBRANCH  24  30
ENDBRANCH  23  24
ENDBRANCH   1  23
TORSDOF 6
ENDMDL
MODEL 8
REMARK VINA RESULT:      -7.7      1.815      2.515
REMARK  Name = 
REMARK  7 active torsions:
REMARK  status: ('A' for Active; 'I' for Inactive)
REMARK    1  A    between atoms: C_1  and  C_2
REMARK    2  A    between atoms: C_6  and  C_8
REMARK    3  A    between atoms: C_8  and  S_9
REMARK    4  A    between atoms: S_9  and  C_10
REMARK    5  A    between atoms: C_14  and  N_15
REMARK    6  A    between atoms: C_16  and  C_18
REMARK    7  A    between atoms: C_25  and  O_26
REMARK                            x       y       z     vdW  Elec       q    Type
REMARK                         _______ _______ _______ _____ _____    ______ ____
ROOT
ATOM      1  C   UNL     1       2.598   5.284  19.110  0.00  0.00    +0.000 A 
ATOM      2  N   UNL     1       2.965   6.042  18.065  0.00  0.00    +0.000 NA
ATOM      3  C   UNL     1       2.740   7.358  18.183  0.00  0.00    +0.000 A 
ATOM      4  N   UNL     1       3.116   8.164  17.095  0.00  0.00    +0.000 N 
ATOM      5  C   UNL     1       2.172   7.943  19.309  0.00  0.00    +0.000 A 
ATOM      6  C   UNL     1       1.859   7.063  20.328  0.00  0.00    +0.000 A 
ATOM      7  N   UNL     1       2.058   5.733  20.247  0.00  0.00    +0.000 NA
ATOM      8  H   UNL     1       3.547   7.553  16.405  0.00  0.00    +0.000 HD
ATOM      9  H   UNL     1       3.768   8.884  17.394  0.00  0.00    +0.000 HD
ENDROOT
BRANCH   5  10
ATOM     10  N   UNL     1       1.910   9.337  19.278  0.00  0.00    +0.000 N 
ATOM     11  C   UNL     1       0.890   9.924  18.562  0.00  0.00    +0.000 C 
ATOM     12  O   UNL     1       0.189   9.304  17.770  0.00  0.00    +0.000 OA
ATOM     13  H   UNL     1       2.271   9.840  20.086  0.00  0.00    +0.000 HD
BRANCH  11  14
ATOM     14  C   UNL     1       0.638  11.375  18.814  0.00  0.00    +0.000 A 
ATOM     15  C   UNL     1      -0.596  11.772  19.351  0.00  0.00    +0.000 A 
ATOM     16  C   UNL     1      -0.877  13.128  19.558  0.00  0.00    +0.000 A 
ATOM     17  C   UNL     1       0.073  14.098  19.228  0.00  0.00    +0.000 A 
ATOM     18  C   UNL     1       1.304  13.713  18.707  0.00  0.00    +0.000 A 
ATOM     19  C   UNL     1       1.580  12.361  18.510  0.00  0.00    +0.000 A 
ATOM     20  F   UNL     1       2.788  12.034  18.025  0.00  0.00    +0.000 F 
ENDBRANCH  11  14
ENDBRANCH   5  10
BRANCH   6  21
ATOM     21  O   UNL     1       1.180   7.448  21.445  0.00  0.00    +0.000 OA
ATOM     22  H   UNL     1       1.366   8.394  21.574  0.00  0.00    +0.000 HD
ENDBRANCH   6  21
BRANCH   1  23
ATOM     23  S   UNL     1       2.707   3.521  18.925  0.00  0.00    +0.000 S 
BRANCH  23  24
ATOM     24  C   UNL     1       4.410   3.272  19.513  0.00  0.00    +0.000 C 
BRANCH  24  30
ATOM     25  C   UNL     1       7.423   5.015  12.944  0.00  0.00    +0.000 C 
ATOM     26  C   UNL     1       6.997   4.785  14.335  0.00  0.00    +0.000 A 
ATOM     27  C   UNL     1       6.018   4.041  14.936  0.00  0.00    +0.000 A 
ATOM     28  C   UNL     1       6.167   4.293  16.326  0.00  0.00    +0.000 A 
ATOM     29  N   UNL     1       5.356   3.736  17.294  0.00  0.00    +0.000 N 
ATOM     30  C   UNL     1       5.439   3.996  18.650  0.00  0.00    +0.000 C 
ATOM     31  O   UNL     1       6.301   4.688  19.195  0.00  0.00    +0.000 OA
ATOM     32  N   UNL     1       7.179   5.133  16.536  0.00  0.00    +0.000 NA
ATOM     33  O   UNL     1       7.698   5.445  15.293  0.00  0.00    +0.000 OA
ATOM     34  H   UNL     1       4.588   3.154  16.977  0.00  0.00    +0.000 HD
ENDBRANCH  24  30
ENDBRANCH  23  24
ENDBRANCH   1  23
TORSDOF 6
ENDMDL
MODEL 9
REMARK VINA RESULT:      -7.7      4.415      9.220
REMARK  Name = 
REMARK  7 active torsions:
REMARK  status: ('A' for Active; 'I' for Inactive)
REMARK    1  A    between atoms: C_1  and  C_2
REMARK    2  A    between atoms: C_6  and  C_8
REMARK    3  A    between atoms: C_8  and  S_9
REMARK    4  A    between atoms: S_9  and  C_10
REMARK    5  A    between atoms: C_14  and  N_15
REMARK    6  A    between atoms: C_16  and  C_18
REMARK    7  A    between atoms: C_25  and  O_26
REMARK                            x       y       z     vdW  Elec       q    Type
REMARK                         _______ _______ _______ _____ _____    ______ ____
ROOT
ATOM      1  C   UNL     1       0.648  10.919  20.305  0.00  0.00    +0.000 A 
ATOM      2  N   UNL     1       0.862  10.574  19.026  0.00  0.00    +0.000 NA
ATOM      3  C   UNL     1       1.391   9.359  18.824  0.00  0.00    +0.000 A 
ATOM      4  N   UNL     1       1.623   8.986  17.489  0.00  0.00    +0.000 N 
ATOM      5  C   UNL     1       1.703   8.475  19.851  0.00  0.00    +0.000 A 
ATOM      6  C   UNL     1       1.415   8.934  21.122  0.00  0.00    +0.000 A 
ATOM      7  N   UNL     1       0.894  10.151  21.372  0.00  0.00    +0.000 NA
ATOM      8  H   UNL     1       1.287   9.747  16.903  0.00  0.00    +0.000 HD
ATOM      9  H   UNL     1       1.136   8.122  17.271  0.00  0.00    +0.000 HD
ENDROOT
BRANCH   5  10
ATOM     10  N   UNL     1       2.335   7.252  19.510  0.00  0.00    +0.000 N 
ATOM     11  C   UNL     1       1.919   6.011  19.941  0.00  0.00    +0.000 C 
ATOM     12  O   UNL     1       1.035   5.858  20.778  0.00  0.00    +0.000 OA
ATOM     13  H   UNL     1       2.876   7.296  18.650  0.00  0.00    +0.000 HD
BRANCH  11  14
ATOM     14  C   UNL     1       2.575   4.825  19.315  0.00  0.00    +0.000 A 
ATOM     15  C   UNL     1       2.798   4.817  17.929  0.00  0.00    +0.000 A 
ATOM     16  C   UNL     1       3.372   3.701  17.309  0.00  0.00    +0.000 A 
ATOM     17  C   UNL     1       3.728   2.584  18.068  0.00  0.00    +0.000 A 
ATOM     18  C   UNL     1       3.523   2.588  19.444  0.00  0.00    +0.000 A 
ATOM     19  C   UNL     1       2.957   3.704  20.057  0.00  0.00    +0.000 A 
ATOM     20  F   UNL     1       2.797   3.672  21.389  0.00  0.00    +0.000 F 
ENDBRANCH  11  14
ENDBRANCH   5  10
BRANCH   6  21
ATOM     21  O   UNL     1       1.776   8.252  22.245  0.00  0.00    +0.000 OA
ATOM     22  H   UNL     1       1.467   8.777  23.003  0.00  0.00    +0.000 HD
ENDBRANCH   6  21
BRANCH   1  23
ATOM     23  S   UNL     1       0.123  12.584  20.631  0.00  0.00    +0.000 S 
BRANCH  23  24
ATOM     24  C   UNL     1      -1.591  12.253  21.143  0.00  0.00    +0.000 C 
BRANCH  24  30
ATOM     25  C   UNL     1      -3.391  10.055  14.272  0.00  0.00    +0.000 C 
ATOM     26  C   UNL     1      -3.229  10.603  15.630  0.00  0.00    +0.000 A 
ATOM     27  C   UNL     1      -2.230  10.588  16.567  0.00  0.00    +0.000 A 
ATOM     28  C   UNL     1      -2.753  11.311  17.672  0.00  0.00    +0.000 A 
ATOM     29  N   UNL     1      -2.057  11.519  18.845  0.00  0.00    +0.000 N 
ATOM     30  C   UNL     1      -2.550  12.174  19.959  0.00  0.00    +0.000 C 
ATOM     31  O   UNL     1      -3.643  12.741  20.032  0.00  0.00    +0.000 OA
ATOM     32  N   UNL     1      -3.987  11.735  17.403  0.00  0.00    +0.000 NA
ATOM     33  O   UNL     1      -4.288  11.292  16.128  0.00  0.00    +0.000 OA
ATOM     34  H   UNL     1      -1.143  11.088  18.925  0.00  0.00    +0.000 HD
ENDBRANCH  24  30
ENDBRANCH  23  24
ENDBRANCH   1  23
TORSDOF 6
ENDMDL
