MODEL 1
REMARK VINA RESULT:      -7.9      0.000      0.000
REMARK  Name = 
REMARK  4 active torsions:
REMARK  status: ('A' for Active; 'I' for Inactive)
REMARK    1  A    between atoms: S_1  and  C_2
REMARK    2  A    between atoms: C_5  and  C_6
REMARK    3  A    between atoms: C_6  and  C_7
REMARK    4  A    between atoms: N_17  and  C_18
REMARK                            x       y       z     vdW  Elec       q    Type
REMARK                         _______ _______ _______ _____ _____    ______ ____
ROOT
ATOM      1  C   UNL     1       4.120   4.134  17.006  0.00  0.00    +0.000 A 
ATOM      2  N   UNL     1       2.903   3.683  17.182  0.00  0.00    +0.000 NA
ATOM      3  N   UNL     1       2.330   4.413  18.175  0.00  0.00    +0.000 NA
ATOM      4  C   UNL     1       3.200   5.317  18.593  0.00  0.00    +0.000 A 
ATOM      5  N   UNL     1       4.417   5.147  17.913  0.00  0.00    +0.000 N 
ENDROOT
BRANCH   5   6
ATOM      6  C   UNL     1       5.667   5.818  18.124  0.00  0.00    +0.000 A 
ATOM      7  C   UNL     1       6.029   6.928  17.347  0.00  0.00    +0.000 A 
ATOM      8  C   UNL     1       7.254   7.577  17.544  0.00  0.00    +0.000 A 
ATOM      9  C   UNL     1       8.151   7.108  18.497  0.00  0.00    +0.000 A 
ATOM     10  C   UNL     1       7.810   6.007  19.272  0.00  0.00    +0.000 A 
ATOM     11  C   UNL     1       6.572   5.381  19.098  0.00  0.00    +0.000 A 
ENDBRANCH   5   6
BRANCH   1  12
ATOM     12  S   UNL     1       5.086   3.617  15.662  0.00  0.00    +0.000 S 
ATOM     13  H   UNL     1       4.490   4.393  14.745  0.00  0.00    +0.000 HD
ENDBRANCH   1  12
BRANCH   4  14
ATOM     14  C   UNL     1       2.875   6.279  19.702  0.00  0.00    +0.000 C 
BRANCH  14  15
ATOM     15  C   UNL     1       2.235   7.588  19.245  0.00  0.00    +0.000 A 
ATOM     16  C   UNL     1       2.470   8.045  17.932  0.00  0.00    +0.000 A 
ATOM     17  C   UNL     1       2.023   9.292  17.514  0.00  0.00    +0.000 A 
ATOM     18  C   UNL     1       1.321  10.106  18.394  0.00  0.00    +0.000 A 
ATOM     19  C   UNL     1       1.008   9.664  19.686  0.00  0.00    +0.000 A 
ATOM     20  C   UNL     1       0.283  10.504  20.547  0.00  0.00    +0.000 A 
ATOM     21  C   UNL     1      -0.070  10.090  21.827  0.00  0.00    +0.000 A 
ATOM     22  C   UNL     1       0.287   8.820  22.257  0.00  0.00    +0.000 A 
ATOM     23  C   UNL     1       1.021   7.977  21.418  0.00  0.00    +0.000 A 
ATOM     24  C   UNL     1       1.425   8.378  20.119  0.00  0.00    +0.000 A 
ENDBRANCH  14  15
ENDBRANCH   4  14
TORSDOF 4
ENDMDL
MODEL 2
REMARK VINA RESULT:      -7.7      1.405      2.029
REMARK  Name = 
REMARK  4 active torsions:
REMARK  status: ('A' for Active; 'I' for Inactive)
REMARK    1  A    between atoms: S_1  and  C_2
REMARK    2  A    between atoms: C_5  and  C_6
REMARK    3  A    between atoms: C_6  and  C_7
REMARK    4  A    between atoms: N_17  and  C_18
REMARK                            x       y       z     vdW  Elec       q    Type
REMARK                         _______ _______ _______ _____ _____    ______ ____
ROOT
ATOM      1  C   UNL     1       2.256   3.747  18.932  0.00  0.00    +0.000 A 
ATOM      2  N   UNL     1       1.197   3.648  19.697  0.00  0.00    +0.000 NA
ATOM      3  N   UNL     1       1.108   4.788  20.430  0.00  0.00    +0.000 NA
ATOM      4  C   UNL     1       2.109   5.586  20.100  0.00  0.00    +0.000 A 
ATOM      5  N   UNL     1       2.938   4.938  19.169  0.00  0.00    +0.000 N 
ENDROOT
BRANCH   5   6
ATOM      6  C   UNL     1       4.192   5.370  18.626  0.00  0.00    +0.000 A 
ATOM      7  C   UNL     1       5.396   5.111  19.298  0.00  0.00    +0.000 A 
ATOM      8  C   UNL     1       6.621   5.543  18.773  0.00  0.00    +0.000 A 
ATOM      9  C   UNL     1       6.660   6.269  17.588  0.00  0.00    +0.000 A 
ATOM     10  C   UNL     1       5.477   6.538  16.913  0.00  0.00    +0.000 A 
ATOM     11  C   UNL     1       4.258   6.076  17.420  0.00  0.00    +0.000 A 
ENDBRANCH   5   6
BRANCH   1  12
ATOM     12  S   UNL     1       2.571   2.593  17.677  0.00  0.00    +0.000 S 
ATOM     13  H   UNL     1       3.852   2.939  17.477  0.00  0.00    +0.000 HD
ENDBRANCH   1  12
BRANCH   4  14
ATOM     14  C   UNL     1       2.303   6.929  20.747  0.00  0.00    +0.000 C 
BRANCH  14  15
ATOM     15  C   UNL     1       1.635   8.092  20.015  0.00  0.00    +0.000 A 
ATOM     16  C   UNL     1       1.881   8.270  18.639  0.00  0.00    +0.000 A 
ATOM     17  C   UNL     1       1.408   9.387  17.962  0.00  0.00    +0.000 A 
ATOM     18  C   UNL     1       0.666  10.344  18.642  0.00  0.00    +0.000 A 
ATOM     19  C   UNL     1       0.341  10.175  19.994  0.00  0.00    +0.000 A 
ATOM     20  C   UNL     1      -0.423  11.153  20.649  0.00  0.00    +0.000 A 
ATOM     21  C   UNL     1      -0.788  11.007  21.984  0.00  0.00    +0.000 A 
ATOM     22  C   UNL     1      -0.404   9.868  22.676  0.00  0.00    +0.000 A 
ATOM     23  C   UNL     1       0.369   8.891  22.043  0.00  0.00    +0.000 A 
ATOM     24  C   UNL     1       0.787   9.022  20.693  0.00  0.00    +0.000 A 
ENDBRANCH  14  15
ENDBRANCH   4  14
TORSDOF 4
ENDMDL
MODEL 3
REMARK VINA RESULT:      -7.7      1.407      1.777
REMARK  Name = 
REMARK  4 active torsions:
REMARK  status: ('A' for Active; 'I' for Inactive)
REMARK    1  A    between atoms: S_1  and  C_2
REMARK    2  A    between atoms: C_5  and  C_6
REMARK    3  A    between atoms: C_6  and  C_7
REMARK    4  A    between atoms: N_17  and  C_18
REMARK                            x       y       z     vdW  Elec       q    Type
REMARK                         _______ _______ _______ _____ _____    ______ ____
ROOT
ATOM      1  C   UNL     1       2.257   3.755  18.905  0.00  0.00    +0.000 A 
ATOM      2  N   UNL     1       1.189   3.647  19.656  0.00  0.00    +0.000 NA
ATOM      3  N   UNL     1       1.090   4.779  20.401  0.00  0.00    +0.000 NA
ATOM      4  C   UNL     1       2.095   5.580  20.092  0.00  0.00    +0.000 A 
ATOM      5  N   UNL     1       2.935   4.943  19.164  0.00  0.00    +0.000 N 
ENDROOT
BRANCH   5   6
ATOM      6  C   UNL     1       4.196   5.382  18.641  0.00  0.00    +0.000 A 
ATOM      7  C   UNL     1       4.268   6.088  17.431  0.00  0.00    +0.000 A 
ATOM      8  C   UNL     1       5.500   6.507  16.914  0.00  0.00    +0.000 A 
ATOM      9  C   UNL     1       6.681   6.201  17.580  0.00  0.00    +0.000 A 
ATOM     10  C   UNL     1       6.629   5.499  18.776  0.00  0.00    +0.000 A 
ATOM     11  C   UNL     1       5.395   5.111  19.309  0.00  0.00    +0.000 A 
ENDBRANCH   5   6
BRANCH   1  12
ATOM     12  S   UNL     1       2.588   2.615  17.640  0.00  0.00    +0.000 S 
ATOM     13  H   UNL     1       3.843   3.023  17.400  0.00  0.00    +0.000 HD
ENDBRANCH   1  12
BRANCH   4  14
ATOM     14  C   UNL     1       2.281   6.916  20.756  0.00  0.00    +0.000 C 
BRANCH  14  15
ATOM     15  C   UNL     1       1.622   8.088  20.029  0.00  0.00    +0.000 A 
ATOM     16  C   UNL     1       1.862   8.263  18.651  0.00  0.00    +0.000 A 
ATOM     17  C   UNL     1       1.398   9.385  17.978  0.00  0.00    +0.000 A 
ATOM     18  C   UNL     1       0.672  10.352  18.663  0.00  0.00    +0.000 A 
ATOM     19  C   UNL     1       0.354  10.186  20.017  0.00  0.00    +0.000 A 
ATOM     20  C   UNL     1      -0.394  11.173  20.677  0.00  0.00    +0.000 A 
ATOM     21  C   UNL     1      -0.753  11.031  22.014  0.00  0.00    +0.000 A 
ATOM     22  C   UNL     1      -0.378   9.887  22.704  0.00  0.00    +0.000 A 
ATOM     23  C   UNL     1       0.379   8.901  22.065  0.00  0.00    +0.000 A 
ATOM     24  C   UNL     1       0.790   9.028  20.713  0.00  0.00    +0.000 A 
ENDBRANCH  14  15
ENDBRANCH   4  14
TORSDOF 4
ENDMDL
MODEL 4
REMARK VINA RESULT:      -7.6      0.348      1.058
REMARK  Name = 
REMARK  4 active torsions:
REMARK  status: ('A' for Active; 'I' for Inactive)
REMARK    1  A    between atoms: S_1  and  C_2
REMARK    2  A    between atoms: C_5  and  C_6
REMARK    3  A    between atoms: C_6  and  C_7
REMARK    4  A    between atoms: N_17  and  C_18
REMARK                            x       y       z     vdW  Elec       q    Type
REMARK                         _______ _______ _______ _____ _____    ______ ____
ROOT
ATOM      1  C   UNL     1       3.753   4.020  17.363  0.00  0.00    +0.000 A 
ATOM      2  N   UNL     1       2.531   3.647  17.652  0.00  0.00    +0.000 NA
ATOM      3  N   UNL     1       2.061   4.480  18.617  0.00  0.00    +0.000 NA
ATOM      4  C   UNL     1       2.998   5.368  18.904  0.00  0.00    +0.000 A 
ATOM      5  N   UNL     1       4.157   5.084  18.164  0.00  0.00    +0.000 N 
ENDROOT
BRANCH   5   6
ATOM      6  C   UNL     1       5.447   5.705  18.239  0.00  0.00    +0.000 A 
ATOM      7  C   UNL     1       6.381   5.311  19.209  0.00  0.00    +0.000 A 
ATOM      8  C   UNL     1       7.637   5.924  19.290  0.00  0.00    +0.000 A 
ATOM      9  C   UNL     1       7.969   6.961  18.426  0.00  0.00    +0.000 A 
ATOM     10  C   UNL     1       7.055   7.367  17.463  0.00  0.00    +0.000 A 
ATOM     11  C   UNL     1       5.814   6.730  17.360  0.00  0.00    +0.000 A 
ENDBRANCH   5   6
BRANCH   1  12
ATOM     12  S   UNL     1       4.601   3.351  16.006  0.00  0.00    +0.000 S 
ATOM     13  H   UNL     1       3.832   3.911  15.061  0.00  0.00    +0.000 HD
ENDBRANCH   1  12
BRANCH   4  14
ATOM     14  C   UNL     1       2.793   6.430  19.950  0.00  0.00    +0.000 C 
BRANCH  14  15
ATOM     15  C   UNL     1       2.141   7.713  19.438  0.00  0.00    +0.000 A 
ATOM     16  C   UNL     1       2.325   8.087  18.091  0.00  0.00    +0.000 A 
ATOM     17  C   UNL     1       1.868   9.309  17.615  0.00  0.00    +0.000 A 
ATOM     18  C   UNL     1       1.204  10.179  18.471  0.00  0.00    +0.000 A 
ATOM     19  C   UNL     1       0.940   9.820  19.799  0.00  0.00    +0.000 A 
ATOM     20  C   UNL     1       0.253  10.715  20.634  0.00  0.00    +0.000 A 
ATOM     21  C   UNL     1      -0.051  10.383  21.950  0.00  0.00    +0.000 A 
ATOM     22  C   UNL     1       0.317   9.139  22.443  0.00  0.00    +0.000 A 
ATOM     23  C   UNL     1       1.014   8.241  21.629  0.00  0.00    +0.000 A 
ATOM     24  C   UNL     1       1.369   8.560  20.293  0.00  0.00    +0.000 A 
ENDBRANCH  14  15
ENDBRANCH   4  14
TORSDOF 4
ENDMDL
MODEL 5
REMARK VINA RESULT:      -7.2      1.989      4.274
REMARK  Name = 
REMARK  4 active torsions:
REMARK  status: ('A' for Active; 'I' for Inactive)
REMARK    1  A    between atoms: S_1  and  C_2
REMARK    2  A    between atoms: C_5  and  C_6
REMARK    3  A    between atoms: C_6  and  C_7
REMARK    4  A    between atoms: N_17  and  C_18
REMARK                            x       y       z     vdW  Elec       q    Type
REMARK                         _______ _______ _______ _____ _____    ______ ____
ROOT
ATOM      1  C   UNL     1       4.566   5.928  18.108  0.00  0.00    +0.000 A 
ATOM      2  N   UNL     1       4.974   7.034  17.539  0.00  0.00    +0.000 NA
ATOM      3  N   UNL     1       3.911   7.876  17.459  0.00  0.00    +0.000 NA
ATOM      4  C   UNL     1       2.857   7.281  17.992  0.00  0.00    +0.000 A 
ATOM      5  N   UNL     1       3.201   5.976  18.379  0.00  0.00    +0.000 N 
ENDROOT
BRANCH   5   6
ATOM      6  C   UNL     1       2.356   4.936  18.889  0.00  0.00    +0.000 A 
ATOM      7  C   UNL     1       2.114   4.813  20.266  0.00  0.00    +0.000 A 
ATOM      8  C   UNL     1       1.298   3.791  20.765  0.00  0.00    +0.000 A 
ATOM      9  C   UNL     1       0.736   2.856  19.903  0.00  0.00    +0.000 A 
ATOM     10  C   UNL     1       0.969   2.960  18.538  0.00  0.00    +0.000 A 
ATOM     11  C   UNL     1       1.756   4.002  18.037  0.00  0.00    +0.000 A 
ENDBRANCH   5   6
BRANCH   1  12
ATOM     12  S   UNL     1       5.688   4.702  18.604  0.00  0.00    +0.000 S 
ATOM     13  H   UNL     1       6.678   5.066  17.775  0.00  0.00    +0.000 HD
ENDBRANCH   1  12
BRANCH   4  14
ATOM     14  C   UNL     1       1.510   7.948  18.047  0.00  0.00    +0.000 C 
BRANCH  14  15
ATOM     15  C   UNL     1       1.205   8.664  19.361  0.00  0.00    +0.000 A 
ATOM     16  C   UNL     1       1.763   8.170  20.558  0.00  0.00    +0.000 A 
ATOM     17  C   UNL     1       1.407   8.702  21.790  0.00  0.00    +0.000 A 
ATOM     18  C   UNL     1       0.496   9.749  21.854  0.00  0.00    +0.000 A 
ATOM     19  C   UNL     1      -0.032  10.314  20.686  0.00  0.00    +0.000 A 
ATOM     20  C   UNL     1      -0.939  11.381  20.784  0.00  0.00    +0.000 A 
ATOM     21  C   UNL     1      -1.464  11.987  19.647  0.00  0.00    +0.000 A 
ATOM     22  C   UNL     1      -1.073  11.538  18.393  0.00  0.00    +0.000 A 
ATOM     23  C   UNL     1      -0.182  10.467  18.278  0.00  0.00    +0.000 A 
ATOM     24  C   UNL     1       0.347   9.806  19.416  0.00  0.00    +0.000 A 
ENDBRANCH  14  15
ENDBRANCH   4  14
TORSDOF 4
ENDMDL
MODEL 6
REMARK VINA RESULT:      -7.2      1.975      4.201
REMARK  Name = 
REMARK  4 active torsions:
REMARK  status: ('A' for Active; 'I' for Inactive)
REMARK    1  A    between atoms: S_1  and  C_2
REMARK    2  A    between atoms: C_5  and  C_6
REMARK    3  A    between atoms: C_6  and  C_7
REMARK    4  A    between atoms: N_17  and  C_18
REMARK                            x       y       z     vdW  Elec       q    Type
REMARK                         _______ _______ _______ _____ _____    ______ ____
ROOT
ATOM      1  C   UNL     1       4.611   5.915  18.110  0.00  0.00    +0.000 A 
ATOM      2  N   UNL     1       5.011   7.013  17.518  0.00  0.00    +0.000 NA
ATOM      3  N   UNL     1       3.944   7.849  17.430  0.00  0.00    +0.000 NA
ATOM      4  C   UNL     1       2.896   7.260  17.982  0.00  0.00    +0.000 A 
ATOM      5  N   UNL     1       3.248   5.963  18.390  0.00  0.00    +0.000 N 
ENDROOT
BRANCH   5   6
ATOM      6  C   UNL     1       2.410   4.929  18.924  0.00  0.00    +0.000 A 
ATOM      7  C   UNL     1       1.751   4.025  18.077  0.00  0.00    +0.000 A 
ATOM      8  C   UNL     1       0.924   3.023  18.598  0.00  0.00    +0.000 A 
ATOM      9  C   UNL     1       0.716   2.926  19.969  0.00  0.00    +0.000 A 
ATOM     10  C   UNL     1       1.357   3.815  20.821  0.00  0.00    +0.000 A 
ATOM     11  C   UNL     1       2.210   4.794  20.303  0.00  0.00    +0.000 A 
ENDBRANCH   5   6
BRANCH   1  12
ATOM     12  S   UNL     1       5.742   4.703  18.621  0.00  0.00    +0.000 S 
ATOM     13  H   UNL     1       6.141   5.335  19.735  0.00  0.00    +0.000 HD
ENDBRANCH   1  12
BRANCH   4  14
ATOM     14  C   UNL     1       1.547   7.922  18.033  0.00  0.00    +0.000 C 
BRANCH  14  15
ATOM     15  C   UNL     1       1.232   8.628  19.351  0.00  0.00    +0.000 A 
ATOM     16  C   UNL     1       1.783   8.126  20.547  0.00  0.00    +0.000 A 
ATOM     17  C   UNL     1       1.418   8.649  21.781  0.00  0.00    +0.000 A 
ATOM     18  C   UNL     1       0.505   9.694  21.847  0.00  0.00    +0.000 A 
ATOM     19  C   UNL     1      -0.016  10.267  20.680  0.00  0.00    +0.000 A 
ATOM     20  C   UNL     1      -0.925  11.332  20.779  0.00  0.00    +0.000 A 
ATOM     21  C   UNL     1      -1.443  11.945  19.643  0.00  0.00    +0.000 A 
ATOM     22  C   UNL     1      -1.044  11.506  18.389  0.00  0.00    +0.000 A 
ATOM     23  C   UNL     1      -0.151  10.437  18.272  0.00  0.00    +0.000 A 
ATOM     24  C   UNL     1       0.372   9.769  19.408  0.00  0.00    +0.000 A 
ENDBRANCH  14  15
ENDBRANCH   4  14
TORSDOF 4
ENDMDL
MODEL 7
REMARK VINA RESULT:      -7.1      1.806      3.717
REMARK  Name = 
REMARK  4 active torsions:
REMARK  status: ('A' for Active; 'I' for Inactive)
REMARK    1  A    between atoms: S_1  and  C_2
REMARK    2  A    between atoms: C_5  and  C_6
REMARK    3  A    between atoms: C_6  and  C_7
REMARK    4  A    between atoms: N_17  and  C_18
REMARK                            x       y       z     vdW  Elec       q    Type
REMARK                         _______ _______ _______ _____ _____    ______ ____
ROOT
ATOM      1  C   UNL     1       6.257   5.679  17.421  0.00  0.00    +0.000 A 
ATOM      2  N   UNL     1       6.420   6.889  16.946  0.00  0.00    +0.000 NA
ATOM      3  N   UNL     1       5.196   7.474  16.875  0.00  0.00    +0.000 NA
ATOM      4  C   UNL     1       4.290   6.619  17.319  0.00  0.00    +0.000 A 
ATOM      5  N   UNL     1       4.911   5.398  17.633  0.00  0.00    +0.000 N 
ENDROOT
BRANCH   5   6
ATOM      6  C   UNL     1       4.310   4.160  18.033  0.00  0.00    +0.000 A 
ATOM      7  C   UNL     1       3.435   3.474  17.177  0.00  0.00    +0.000 A 
ATOM      8  C   UNL     1       2.839   2.270  17.571  0.00  0.00    +0.000 A 
ATOM      9  C   UNL     1       3.080   1.748  18.837  0.00  0.00    +0.000 A 
ATOM     10  C   UNL     1       3.940   2.417  19.698  0.00  0.00    +0.000 A 
ATOM     11  C   UNL     1       4.562   3.601  19.291  0.00  0.00    +0.000 A 
ENDBRANCH   5   6
BRANCH   1  12
ATOM     12  S   UNL     1       7.615   4.704  17.884  0.00  0.00    +0.000 S 
ATOM     13  H   UNL     1       7.717   4.034  16.726  0.00  0.00    +0.000 HD
ENDBRANCH   1  12
BRANCH   4  14
ATOM     14  C   UNL     1       2.826   6.959  17.357  0.00  0.00    +0.000 C 
BRANCH  14  15
ATOM     15  C   UNL     1       2.305   7.386  18.728  0.00  0.00    +0.000 A 
ATOM     16  C   UNL     1       2.254   6.437  19.769  0.00  0.00    +0.000 A 
ATOM     17  C   UNL     1       1.663   6.739  20.989  0.00  0.00    +0.000 A 
ATOM     18  C   UNL     1       1.123   8.002  21.202  0.00  0.00    +0.000 A 
ATOM     19  C   UNL     1       1.212   8.996  20.220  0.00  0.00    +0.000 A 
ATOM     20  C   UNL     1       0.670  10.266  20.471  0.00  0.00    +0.000 A 
ATOM     21  C   UNL     1       0.762  11.287  19.531  0.00  0.00    +0.000 A 
ATOM     22  C   UNL     1       1.414  11.052  18.329  0.00  0.00    +0.000 A 
ATOM     23  C   UNL     1       1.947   9.788  18.057  0.00  0.00    +0.000 A 
ATOM     24  C   UNL     1       1.843   8.716  18.979  0.00  0.00    +0.000 A 
ENDBRANCH  14  15
ENDBRANCH   4  14
TORSDOF 4
ENDMDL
MODEL 8
REMARK VINA RESULT:      -7.0      1.807      3.811
REMARK  Name = 
REMARK  4 active torsions:
REMARK  status: ('A' for Active; 'I' for Inactive)
REMARK    1  A    between atoms: S_1  and  C_2
REMARK    2  A    between atoms: C_5  and  C_6
REMARK    3  A    between atoms: C_6  and  C_7
REMARK    4  A    between atoms: N_17  and  C_18
REMARK                            x       y       z     vdW  Elec       q    Type
REMARK                         _______ _______ _______ _____ _____    ______ ____
ROOT
ATOM      1  C   UNL     1       6.397   5.645  17.353  0.00  0.00    +0.000 A 
ATOM      2  N   UNL     1       6.609   6.840  16.859  0.00  0.00    +0.000 NA
ATOM      3  N   UNL     1       5.407   7.464  16.755  0.00  0.00    +0.000 NA
ATOM      4  C   UNL     1       4.466   6.649  17.199  0.00  0.00    +0.000 A 
ATOM      5  N   UNL     1       5.038   5.415  17.546  0.00  0.00    +0.000 N 
ENDROOT
BRANCH   5   6
ATOM      6  C   UNL     1       4.388   4.205  17.959  0.00  0.00    +0.000 A 
ATOM      7  C   UNL     1       4.683   3.614  19.197  0.00  0.00    +0.000 A 
ATOM      8  C   UNL     1       4.056   2.427  19.595  0.00  0.00    +0.000 A 
ATOM      9  C   UNL     1       3.152   1.793  18.751  0.00  0.00    +0.000 A 
ATOM     10  C   UNL     1       2.852   2.362  17.520  0.00  0.00    +0.000 A 
ATOM     11  C   UNL     1       3.452   3.566  17.138  0.00  0.00    +0.000 A 
ENDBRANCH   5   6
BRANCH   1  12
ATOM     12  S   UNL     1       7.712   4.633  17.859  0.00  0.00    +0.000 S 
ATOM     13  H   UNL     1       7.605   4.897  19.169  0.00  0.00    +0.000 HD
ENDBRANCH   1  12
BRANCH   4  14
ATOM     14  C   UNL     1       3.013   7.040  17.204  0.00  0.00    +0.000 C 
BRANCH  14  15
ATOM     15  C   UNL     1       2.449   7.380  18.582  0.00  0.00    +0.000 A 
ATOM     16  C   UNL     1       2.413   6.381  19.576  0.00  0.00    +0.000 A 
ATOM     17  C   UNL     1       1.787   6.601  20.796  0.00  0.00    +0.000 A 
ATOM     18  C   UNL     1       1.195   7.831  21.056  0.00  0.00    +0.000 A 
ATOM     19  C   UNL     1       1.265   8.874  20.125  0.00  0.00    +0.000 A 
ATOM     20  C   UNL     1       0.671  10.110  20.424  0.00  0.00    +0.000 A 
ATOM     21  C   UNL     1       0.742  11.178  19.536  0.00  0.00    +0.000 A 
ATOM     22  C   UNL     1       1.427  11.025  18.339  0.00  0.00    +0.000 A 
ATOM     23  C   UNL     1       2.014   9.797  18.019  0.00  0.00    +0.000 A 
ATOM     24  C   UNL     1       1.931   8.678  18.886  0.00  0.00    +0.000 A 
ENDBRANCH  14  15
ENDBRANCH   4  14
TORSDOF 4
ENDMDL
MODEL 9
REMARK VINA RESULT:      -7.0      2.317      3.947
REMARK  Name = 
REMARK  4 active torsions:
REMARK  status: ('A' for Active; 'I' for Inactive)
REMARK    1  A    between atoms: S_1  and  C_2
REMARK    2  A    between atoms: C_5  and  C_6
REMARK    3  A    between atoms: C_6  and  C_7
REMARK    4  A    between atoms: N_17  and  C_18
REMARK                            x       y       z     vdW  Elec       q    Type
REMARK                         _______ _______ _______ _____ _____    ______ ____
ROOT
ATOM      1  C   UNL     1       3.479   6.067  17.795  0.00  0.00    +0.000 A 
ATOM      2  N   UNL     1       3.621   7.305  17.391  0.00  0.00    +0.000 NA
ATOM      3  N   UNL     1       2.994   8.108  18.289  0.00  0.00    +0.000 NA
ATOM      4  C   UNL     1       2.481   7.355  19.247  0.00  0.00    +0.000 A 
ATOM      5  N   UNL     1       2.707   6.001  18.952  0.00  0.00    +0.000 N 
ENDROOT
BRANCH   5   6
ATOM      6  C   UNL     1       2.230   4.837  19.641  0.00  0.00    +0.000 A 
ATOM      7  C   UNL     1       1.315   3.964  19.033  0.00  0.00    +0.000 A 
ATOM      8  C   UNL     1       0.840   2.834  19.710  0.00  0.00    +0.000 A 
ATOM      9  C   UNL     1       1.246   2.575  21.014  0.00  0.00    +0.000 A 
ATOM     10  C   UNL     1       2.148   3.431  21.632  0.00  0.00    +0.000 A 
ATOM     11  C   UNL     1       2.648   4.540  20.943  0.00  0.00    +0.000 A 
ENDBRANCH   5   6
BRANCH   1  12
ATOM     12  S   UNL     1       4.347   4.768  17.041  0.00  0.00    +0.000 S 
ATOM     13  H   UNL     1       3.642   3.775  17.603  0.00  0.00    +0.000 HD
ENDBRANCH   1  12
BRANCH   4  14
ATOM     14  C   UNL     1       1.706   7.945  20.394  0.00  0.00    +0.000 C 
BRANCH  14  15
ATOM     15  C   UNL     1       0.792   9.108  20.015  0.00  0.00    +0.000 A 
ATOM     16  C   UNL     1       0.718   9.513  18.667  0.00  0.00    +0.000 A 
ATOM     17  C   UNL     1       0.009  10.648  18.295  0.00  0.00    +0.000 A 
ATOM     18  C   UNL     1      -0.654  11.396  19.260  0.00  0.00    +0.000 A 
ATOM     19  C   UNL     1      -0.662  10.993  20.602  0.00  0.00    +0.000 A 
ATOM     20  C   UNL     1      -1.354  11.763  21.550  0.00  0.00    +0.000 A 
ATOM     21  C   UNL     1      -1.408  11.381  22.886  0.00  0.00    +0.000 A 
ATOM     22  C   UNL     1      -0.779  10.210  23.287  0.00  0.00    +0.000 A 
ATOM     23  C   UNL     1      -0.074   9.440  22.358  0.00  0.00    +0.000 A 
ATOM     24  C   UNL     1       0.028   9.817  20.995  0.00  0.00    +0.000 A 
ENDBRANCH  14  15
ENDBRANCH   4  14
TORSDOF 4
ENDMDL
