MODEL 1
REMARK VINA RESULT:      -9.3      0.000      0.000
REMARK  Name = 
REMARK  9 active torsions:
REMARK  status: ('A' for Active; 'I' for Inactive)
REMARK    1  A    between atoms: C_1  and  C_2
REMARK    2  A    between atoms: C_5  and  C_6
REMARK    3  A    between atoms: C_6  and  N_7
REMARK    4  A    between atoms: C_8  and  C_10
REMARK    5  A    between atoms: C_10  and  S_11
REMARK    6  A    between atoms: S_11  and  C_12
REMARK    7  A    between atoms: C_21  and  C_22
REMARK    8  A    between atoms: C_22  and  C_23
REMARK    9  A    between atoms: C_26  and  C_27
REMARK                            x       y       z     vdW  Elec       q    Type
REMARK                         _______ _______ _______ _____ _____    ______ ____
ROOT
ATOM      1  C   UNL     1       5.760   4.525  18.080  0.00  0.00    +0.000 A 
ATOM      2  N   UNL     1       5.300   3.689  19.047  0.00  0.00    +0.000 NA
ATOM      3  C   UNL     1       3.954   3.567  19.175  0.00  0.00    +0.000 A 
ATOM      4  C   UNL     1       3.405   2.691  20.111  0.00  0.00    +0.000 A 
ATOM      5  C   UNL     1       2.023   2.586  20.300  0.00  0.00    +0.000 A 
ATOM      6  C   UNL     1       1.162   3.374  19.545  0.00  0.00    +0.000 A 
ATOM      7  C   UNL     1       1.695   4.224  18.579  0.00  0.00    +0.000 A 
ATOM      8  C   UNL     1       3.067   4.313  18.371  0.00  0.00    +0.000 A 
ATOM      9  N   UNL     1       3.521   5.107  17.389  0.00  0.00    +0.000 NA
ATOM     10  C   UNL     1       4.873   5.188  17.222  0.00  0.00    +0.000 A 
ENDROOT
BRANCH   1  11
ATOM     11  S   UNL     1       7.532   4.752  17.929  0.00  0.00    +0.000 S 
BRANCH  11  12
ATOM     12  C   UNL     1       7.834   6.278  18.877  0.00  0.00    +0.000 C 
BRANCH  12  14
ATOM     13  N   UNL     1       8.265   8.667  18.483  0.00  0.00    +0.000 N 
ATOM     14  C   UNL     1       8.009   7.442  17.897  0.00  0.00    +0.000 C 
ATOM     15  O   UNL     1       7.951   7.281  16.681  0.00  0.00    +0.000 OA
ATOM     16  H   UNL     1       8.191   8.745  19.489  0.00  0.00    +0.000 HD
BRANCH  13  17
ATOM     17  C   UNL     1       8.361   9.890  17.715  0.00  0.00    +0.000 C 
BRANCH  17  22
ATOM     18  C   UNL     1      11.097  14.163  20.593  0.00  0.00    +0.000 C 
ATOM     19  C   UNL     1      10.418  13.059  19.840  0.00  0.00    +0.000 A 
ATOM     20  C   UNL     1       9.919  13.268  18.550  0.00  0.00    +0.000 A 
ATOM     21  C   UNL     1       9.274  12.233  17.865  0.00  0.00    +0.000 A 
ATOM     22  C   UNL     1       9.105  10.974  18.454  0.00  0.00    +0.000 A 
ATOM     23  C   UNL     1       9.620  10.761  19.741  0.00  0.00    +0.000 A 
ATOM     24  C   UNL     1      10.266  11.796  20.428  0.00  0.00    +0.000 A 
ENDBRANCH  17  22
ENDBRANCH  13  17
ENDBRANCH  12  14
ENDBRANCH  11  12
ENDBRANCH   1  11
BRANCH  10  25
ATOM     25  C   UNL     1       5.325   5.972  16.013  0.00  0.00    +0.000 C 
BRANCH  25  26
ATOM     26  C   UNL     1       5.681   5.158  14.792  0.00  0.00    +0.000 A 
ATOM     27  C   UNL     1       6.976   5.216  14.258  0.00  0.00    +0.000 A 
ATOM     28  C   UNL     1       7.342   4.396  13.189  0.00  0.00    +0.000 A 
ATOM     29  C   UNL     1       6.421   3.503  12.633  0.00  0.00    +0.000 A 
ATOM     30  C   UNL     1       6.815   2.587  11.512  0.00  0.00    +0.000 C 
ATOM     31  C   UNL     1       5.123   3.453  13.154  0.00  0.00    +0.000 A 
ATOM     32  C   UNL     1       4.755   4.275  14.222  0.00  0.00    +0.000 A 
ENDBRANCH  25  26
ENDBRANCH  10  25
TORSDOF 7
ENDMDL
MODEL 2
REMARK VINA RESULT:      -8.6      3.771      8.111
REMARK  Name = 
REMARK  9 active torsions:
REMARK  status: ('A' for Active; 'I' for Inactive)
REMARK    1  A    between atoms: C_1  and  C_2
REMARK    2  A    between atoms: C_5  and  C_6
REMARK    3  A    between atoms: C_6  and  N_7
REMARK    4  A    between atoms: C_8  and  C_10
REMARK    5  A    between atoms: C_10  and  S_11
REMARK    6  A    between atoms: S_11  and  C_12
REMARK    7  A    between atoms: C_21  and  C_22
REMARK    8  A    between atoms: C_22  and  C_23
REMARK    9  A    between atoms: C_26  and  C_27
REMARK                            x       y       z     vdW  Elec       q    Type
REMARK                         _______ _______ _______ _____ _____    ______ ____
ROOT
ATOM      1  C   UNL     1       3.837   6.046  17.558  0.00  0.00    +0.000 A 
ATOM      2  N   UNL     1       3.985   4.699  17.450  0.00  0.00    +0.000 NA
ATOM      3  C   UNL     1       3.036   3.922  18.032  0.00  0.00    +0.000 A 
ATOM      4  C   UNL     1       3.091   2.533  17.922  0.00  0.00    +0.000 A 
ATOM      5  C   UNL     1       2.158   1.706  18.556  0.00  0.00    +0.000 A 
ATOM      6  C   UNL     1       1.145   2.271  19.323  0.00  0.00    +0.000 A 
ATOM      7  C   UNL     1       1.054   3.659  19.407  0.00  0.00    +0.000 A 
ATOM      8  C   UNL     1       1.966   4.484  18.759  0.00  0.00    +0.000 A 
ATOM      9  N   UNL     1       1.798   5.813  18.830  0.00  0.00    +0.000 NA
ATOM     10  C   UNL     1       2.719   6.596  18.199  0.00  0.00    +0.000 A 
ENDROOT
BRANCH   1  11
ATOM     11  S   UNL     1       5.106   7.096  16.853  0.00  0.00    +0.000 S 
BRANCH  11  12
ATOM     12  C   UNL     1       6.617   6.550  17.711  0.00  0.00    +0.000 C 
BRANCH  12  14
ATOM     13  N   UNL     1       7.318   5.772  15.486  0.00  0.00    +0.000 N 
ATOM     14  C   UNL     1       7.332   5.510  16.842  0.00  0.00    +0.000 C 
ATOM     15  O   UNL     1       7.895   4.534  17.330  0.00  0.00    +0.000 OA
ATOM     16  H   UNL     1       6.745   6.532  15.147  0.00  0.00    +0.000 HD
BRANCH  13  17
ATOM     17  C   UNL     1       7.860   4.847  14.512  0.00  0.00    +0.000 C 
BRANCH  17  22
ATOM     18  C   UNL     1       3.700   2.924  10.902  0.00  0.00    +0.000 C 
ATOM     19  C   UNL     1       4.772   3.392  11.840  0.00  0.00    +0.000 A 
ATOM     20  C   UNL     1       4.470   3.746  13.159  0.00  0.00    +0.000 A 
ATOM     21  C   UNL     1       5.476   4.195  14.020  0.00  0.00    +0.000 A 
ATOM     22  C   UNL     1       6.801   4.311  13.580  0.00  0.00    +0.000 A 
ATOM     23  C   UNL     1       7.105   3.942  12.263  0.00  0.00    +0.000 A 
ATOM     24  C   UNL     1       6.099   3.491  11.401  0.00  0.00    +0.000 A 
ENDBRANCH  17  22
ENDBRANCH  13  17
ENDBRANCH  12  14
ENDBRANCH  11  12
ENDBRANCH   1  11
BRANCH  10  25
ATOM     25  C   UNL     1       2.402   8.073  18.181  0.00  0.00    +0.000 C 
BRANCH  25  26
ATOM     26  C   UNL     1       1.558   8.583  19.325  0.00  0.00    +0.000 A 
ATOM     27  C   UNL     1       1.710   8.044  20.610  0.00  0.00    +0.000 A 
ATOM     28  C   UNL     1       1.003   8.574  21.692  0.00  0.00    +0.000 A 
ATOM     29  C   UNL     1       0.131   9.651  21.509  0.00  0.00    +0.000 A 
ATOM     30  C   UNL     1      -0.601  10.255  22.670  0.00  0.00    +0.000 C 
ATOM     31  C   UNL     1      -0.034  10.182  20.225  0.00  0.00    +0.000 A 
ATOM     32  C   UNL     1       0.670   9.651  19.142  0.00  0.00    +0.000 A 
ENDBRANCH  25  26
ENDBRANCH  10  25
TORSDOF 7
ENDMDL
MODEL 3
REMARK VINA RESULT:      -8.6      1.757      5.074
REMARK  Name = 
REMARK  9 active torsions:
REMARK  status: ('A' for Active; 'I' for Inactive)
REMARK    1  A    between atoms: C_1  and  C_2
REMARK    2  A    between atoms: C_5  and  C_6
REMARK    3  A    between atoms: C_6  and  N_7
REMARK    4  A    between atoms: C_8  and  C_10
REMARK    5  A    between atoms: C_10  and  S_11
REMARK    6  A    between atoms: S_11  and  C_12
REMARK    7  A    between atoms: C_21  and  C_22
REMARK    8  A    between atoms: C_22  and  C_23
REMARK    9  A    between atoms: C_26  and  C_27
REMARK                            x       y       z     vdW  Elec       q    Type
REMARK                         _______ _______ _______ _____ _____    ______ ____
ROOT
ATOM      1  C   UNL     1       6.917   5.964  16.622  0.00  0.00    +0.000 A 
ATOM      2  N   UNL     1       7.648   5.834  15.484  0.00  0.00    +0.000 NA
ATOM      3  C   UNL     1       7.086   5.142  14.461  0.00  0.00    +0.000 A 
ATOM      4  C   UNL     1       7.752   5.007  13.243  0.00  0.00    +0.000 A 
ATOM      5  C   UNL     1       7.220   4.254  12.191  0.00  0.00    +0.000 A 
ATOM      6  C   UNL     1       5.997   3.613  12.352  0.00  0.00    +0.000 A 
ATOM      7  C   UNL     1       5.302   3.772  13.549  0.00  0.00    +0.000 A 
ATOM      8  C   UNL     1       5.816   4.540  14.587  0.00  0.00    +0.000 A 
ATOM      9  N   UNL     1       5.079   4.703  15.697  0.00  0.00    +0.000 NA
ATOM     10  C   UNL     1       5.618   5.446  16.705  0.00  0.00    +0.000 A 
ENDROOT
BRANCH   1  11
ATOM     11  S   UNL     1       7.659   6.821  18.011  0.00  0.00    +0.000 S 
BRANCH  11  12
ATOM     12  C   UNL     1       7.467   8.576  17.561  0.00  0.00    +0.000 C 
BRANCH  12  14
ATOM     13  N   UNL     1       8.753  10.662  17.765  0.00  0.00    +0.000 N 
ATOM     14  C   UNL     1       8.557   9.390  18.266  0.00  0.00    +0.000 C 
ATOM     15  O   UNL     1       9.185   8.942  19.222  0.00  0.00    +0.000 OA
ATOM     16  H   UNL     1       8.279  10.924  16.911  0.00  0.00    +0.000 HD
BRANCH  13  17
ATOM     17  C   UNL     1       9.807  11.531  18.246  0.00  0.00    +0.000 C 
BRANCH  17  22
ATOM     18  C   UNL     1       8.370  14.571  23.013  0.00  0.00    +0.000 C 
ATOM     19  C   UNL     1       8.718  13.773  21.793  0.00  0.00    +0.000 A 
ATOM     20  C   UNL     1       9.488  12.609  21.889  0.00  0.00    +0.000 A 
ATOM     21  C   UNL     1       9.818  11.881  20.741  0.00  0.00    +0.000 A 
ATOM     22  C   UNL     1       9.395  12.305  19.474  0.00  0.00    +0.000 A 
ATOM     23  C   UNL     1       8.610  13.462  19.381  0.00  0.00    +0.000 A 
ATOM     24  C   UNL     1       8.278  14.191  20.529  0.00  0.00    +0.000 A 
ENDBRANCH  17  22
ENDBRANCH  13  17
ENDBRANCH  12  14
ENDBRANCH  11  12
ENDBRANCH   1  11
BRANCH  10  25
ATOM     25  C   UNL     1       4.691   5.725  17.864  0.00  0.00    +0.000 C 
BRANCH  25  26
ATOM     26  C   UNL     1       3.608   4.700  18.107  0.00  0.00    +0.000 A 
ATOM     27  C   UNL     1       3.921   3.470  18.700  0.00  0.00    +0.000 A 
ATOM     28  C   UNL     1       2.912   2.556  19.015  0.00  0.00    +0.000 A 
ATOM     29  C   UNL     1       1.575   2.855  18.744  0.00  0.00    +0.000 A 
ATOM     30  C   UNL     1       0.480   1.900  19.117  0.00  0.00    +0.000 C 
ATOM     31  C   UNL     1       1.260   4.077  18.139  0.00  0.00    +0.000 A 
ATOM     32  C   UNL     1       2.268   4.991  17.820  0.00  0.00    +0.000 A 
ENDBRANCH  25  26
ENDBRANCH  10  25
TORSDOF 7
ENDMDL
MODEL 4
REMARK VINA RESULT:      -8.5      3.082      5.450
REMARK  Name = 
REMARK  9 active torsions:
REMARK  status: ('A' for Active; 'I' for Inactive)
REMARK    1  A    between atoms: C_1  and  C_2
REMARK    2  A    between atoms: C_5  and  C_6
REMARK    3  A    between atoms: C_6  and  N_7
REMARK    4  A    between atoms: C_8  and  C_10
REMARK    5  A    between atoms: C_10  and  S_11
REMARK    6  A    between atoms: S_11  and  C_12
REMARK    7  A    between atoms: C_21  and  C_22
REMARK    8  A    between atoms: C_22  and  C_23
REMARK    9  A    between atoms: C_26  and  C_27
REMARK                            x       y       z     vdW  Elec       q    Type
REMARK                         _______ _______ _______ _____ _____    ______ ____
ROOT
ATOM      1  C   UNL     1       4.188   6.192  17.437  0.00  0.00    +0.000 A 
ATOM      2  N   UNL     1       4.462   4.864  17.341  0.00  0.00    +0.000 NA
ATOM      3  C   UNL     1       3.531   4.001  17.821  0.00  0.00    +0.000 A 
ATOM      4  C   UNL     1       3.717   2.624  17.714  0.00  0.00    +0.000 A 
ATOM      5  C   UNL     1       2.800   1.713  18.248  0.00  0.00    +0.000 A 
ATOM      6  C   UNL     1       1.670   2.180  18.910  0.00  0.00    +0.000 A 
ATOM      7  C   UNL     1       1.451   3.553  18.989  0.00  0.00    +0.000 A 
ATOM      8  C   UNL     1       2.348   4.461  18.438  0.00  0.00    +0.000 A 
ATOM      9  N   UNL     1       2.059   5.770  18.496  0.00  0.00    +0.000 NA
ATOM     10  C   UNL     1       2.968   6.637  17.964  0.00  0.00    +0.000 A 
ENDROOT
BRANCH   1  11
ATOM     11  S   UNL     1       5.426   7.356  16.867  0.00  0.00    +0.000 S 
BRANCH  11  12
ATOM     12  C   UNL     1       6.974   6.404  16.989  0.00  0.00    +0.000 C 
BRANCH  12  14
ATOM     13  N   UNL     1       8.101   8.294  18.086  0.00  0.00    +0.000 N 
ATOM     14  C   UNL     1       7.799   6.948  18.159  0.00  0.00    +0.000 C 
ATOM     15  O   UNL     1       8.138   6.236  19.101  0.00  0.00    +0.000 OA
ATOM     16  H   UNL     1       7.883   8.792  17.233  0.00  0.00    +0.000 HD
BRANCH  13  17
ATOM     17  C   UNL     1       8.953   8.952  19.054  0.00  0.00    +0.000 C 
BRANCH  17  22
ATOM     18  C   UNL     1       9.740  14.609  17.868  0.00  0.00    +0.000 C 
ATOM     19  C   UNL     1       9.521  13.163  18.194  0.00  0.00    +0.000 A 
ATOM     20  C   UNL     1      10.283  12.523  19.177  0.00  0.00    +0.000 A 
ATOM     21  C   UNL     1      10.079  11.169  19.461  0.00  0.00    +0.000 A 
ATOM     22  C   UNL     1       9.119  10.423  18.765  0.00  0.00    +0.000 A 
ATOM     23  C   UNL     1       8.345  11.070  17.791  0.00  0.00    +0.000 A 
ATOM     24  C   UNL     1       8.547  12.425  17.506  0.00  0.00    +0.000 A 
ENDBRANCH  17  22
ENDBRANCH  13  17
ENDBRANCH  12  14
ENDBRANCH  11  12
ENDBRANCH   1  11
BRANCH  10  25
ATOM     25  C   UNL     1       2.527   8.081  17.918  0.00  0.00    +0.000 C 
BRANCH  25  26
ATOM     26  C   UNL     1       1.687   8.554  19.081  0.00  0.00    +0.000 A 
ATOM     27  C   UNL     1       1.839   7.969  20.346  0.00  0.00    +0.000 A 
ATOM     28  C   UNL     1       1.136   8.464  21.447  0.00  0.00    +0.000 A 
ATOM     29  C   UNL     1       0.268   9.550  21.304  0.00  0.00    +0.000 A 
ATOM     30  C   UNL     1      -0.459  10.116  22.487  0.00  0.00    +0.000 C 
ATOM     31  C   UNL     1       0.103  10.127  20.039  0.00  0.00    +0.000 A 
ATOM     32  C   UNL     1       0.804   9.632  18.937  0.00  0.00    +0.000 A 
ENDBRANCH  25  26
ENDBRANCH  10  25
TORSDOF 7
ENDMDL
MODEL 5
REMARK VINA RESULT:      -8.5      1.786      5.108
REMARK  Name = 
REMARK  9 active torsions:
REMARK  status: ('A' for Active; 'I' for Inactive)
REMARK    1  A    between atoms: C_1  and  C_2
REMARK    2  A    between atoms: C_5  and  C_6
REMARK    3  A    between atoms: C_6  and  N_7
REMARK    4  A    between atoms: C_8  and  C_10
REMARK    5  A    between atoms: C_10  and  S_11
REMARK    6  A    between atoms: S_11  and  C_12
REMARK    7  A    between atoms: C_21  and  C_22
REMARK    8  A    between atoms: C_22  and  C_23
REMARK    9  A    between atoms: C_26  and  C_27
REMARK                            x       y       z     vdW  Elec       q    Type
REMARK                         _______ _______ _______ _____ _____    ______ ____
ROOT
ATOM      1  C   UNL     1       7.046   5.966  16.747  0.00  0.00    +0.000 A 
ATOM      2  N   UNL     1       7.698   5.890  15.557  0.00  0.00    +0.000 NA
ATOM      3  C   UNL     1       7.119   5.150  14.577  0.00  0.00    +0.000 A 
ATOM      4  C   UNL     1       7.702   5.063  13.314  0.00  0.00    +0.000 A 
ATOM      5  C   UNL     1       7.156   4.266  12.303  0.00  0.00    +0.000 A 
ATOM      6  C   UNL     1       6.003   3.531  12.553  0.00  0.00    +0.000 A 
ATOM      7  C   UNL     1       5.388   3.639  13.798  0.00  0.00    +0.000 A 
ATOM      8  C   UNL     1       5.914   4.450  14.797  0.00  0.00    +0.000 A 
ATOM      9  N   UNL     1       5.250   4.559  15.957  0.00  0.00    +0.000 NA
ATOM     10  C   UNL     1       5.802   5.347  16.924  0.00  0.00    +0.000 A 
ENDROOT
BRANCH   1  11
ATOM     11  S   UNL     1       7.817   6.886  18.078  0.00  0.00    +0.000 S 
BRANCH  11  12
ATOM     12  C   UNL     1       7.590   8.619  17.567  0.00  0.00    +0.000 C 
BRANCH  12  14
ATOM     13  N   UNL     1       9.094  10.565  17.588  0.00  0.00    +0.000 N 
ATOM     14  C   UNL     1       8.607   9.491  18.308  0.00  0.00    +0.000 C 
ATOM     15  O   UNL     1       8.938   9.259  19.468  0.00  0.00    +0.000 OA
ATOM     16  H   UNL     1       8.861  10.632  16.606  0.00  0.00    +0.000 HD
BRANCH  13  17
ATOM     17  C   UNL     1      10.133  11.435  18.097  0.00  0.00    +0.000 C 
BRANCH  17  22
ATOM     18  C   UNL     1       8.428  17.010  18.302  0.00  0.00    +0.000 C 
ATOM     19  C   UNL     1       8.867  15.579  18.221  0.00  0.00    +0.000 A 
ATOM     20  C   UNL     1       7.940  14.552  18.012  0.00  0.00    +0.000 A 
ATOM     21  C   UNL     1       8.361  13.219  17.954  0.00  0.00    +0.000 A 
ATOM     22  C   UNL     1       9.711  12.883  18.113  0.00  0.00    +0.000 A 
ATOM     23  C   UNL     1      10.641  13.914  18.306  0.00  0.00    +0.000 A 
ATOM     24  C   UNL     1      10.222  15.248  18.364  0.00  0.00    +0.000 A 
ENDBRANCH  17  22
ENDBRANCH  13  17
ENDBRANCH  12  14
ENDBRANCH  11  12
ENDBRANCH   1  11
BRANCH  10  25
ATOM     25  C   UNL     1       4.943   5.557  18.149  0.00  0.00    +0.000 C 
BRANCH  25  26
ATOM     26  C   UNL     1       3.779   4.607  18.312  0.00  0.00    +0.000 A 
ATOM     27  C   UNL     1       3.958   3.376  18.958  0.00  0.00    +0.000 A 
ATOM     28  C   UNL     1       2.869   2.534  19.198  0.00  0.00    +0.000 A 
ATOM     29  C   UNL     1       1.583   2.907  18.797  0.00  0.00    +0.000 A 
ATOM     30  C   UNL     1       0.401   2.031  19.087  0.00  0.00    +0.000 C 
ATOM     31  C   UNL     1       1.404   4.130  18.139  0.00  0.00    +0.000 A 
ATOM     32  C   UNL     1       2.492   4.971  17.896  0.00  0.00    +0.000 A 
ENDBRANCH  25  26
ENDBRANCH  10  25
TORSDOF 7
ENDMDL
MODEL 6
REMARK VINA RESULT:      -8.4      4.779      6.928
REMARK  Name = 
REMARK  9 active torsions:
REMARK  status: ('A' for Active; 'I' for Inactive)
REMARK    1  A    between atoms: C_1  and  C_2
REMARK    2  A    between atoms: C_5  and  C_6
REMARK    3  A    between atoms: C_6  and  N_7
REMARK    4  A    between atoms: C_8  and  C_10
REMARK    5  A    between atoms: C_10  and  S_11
REMARK    6  A    between atoms: S_11  and  C_12
REMARK    7  A    between atoms: C_21  and  C_22
REMARK    8  A    between atoms: C_22  and  C_23
REMARK    9  A    between atoms: C_26  and  C_27
REMARK                            x       y       z     vdW  Elec       q    Type
REMARK                         _______ _______ _______ _____ _____    ______ ____
ROOT
ATOM      1  C   UNL     1       3.843   6.007  18.703  0.00  0.00    +0.000 A 
ATOM      2  N   UNL     1       2.772   5.803  19.514  0.00  0.00    +0.000 NA
ATOM      3  C   UNL     1       2.703   4.614  20.165  0.00  0.00    +0.000 A 
ATOM      4  C   UNL     1       1.661   4.349  21.053  0.00  0.00    +0.000 A 
ATOM      5  C   UNL     1       1.536   3.113  21.695  0.00  0.00    +0.000 A 
ATOM      6  C   UNL     1       2.466   2.110  21.447  0.00  0.00    +0.000 A 
ATOM      7  C   UNL     1       3.534   2.374  20.593  0.00  0.00    +0.000 A 
ATOM      8  C   UNL     1       3.675   3.610  19.972  0.00  0.00    +0.000 A 
ATOM      9  N   UNL     1       4.753   3.827  19.203  0.00  0.00    +0.000 NA
ATOM     10  C   UNL     1       4.853   5.043  18.592  0.00  0.00    +0.000 A 
ENDROOT
BRANCH   1  11
ATOM     11  S   UNL     1       3.929   7.543  17.784  0.00  0.00    +0.000 S 
BRANCH  11  12
ATOM     12  C   UNL     1       2.178   7.933  17.469  0.00  0.00    +0.000 C 
BRANCH  12  14
ATOM     13  N   UNL     1       1.040   9.342  19.132  0.00  0.00    +0.000 N 
ATOM     14  C   UNL     1       1.872   9.325  18.030  0.00  0.00    +0.000 C 
ATOM     15  O   UNL     1       2.358  10.343  17.543  0.00  0.00    +0.000 OA
ATOM     16  H   UNL     1       0.591   8.480  19.412  0.00  0.00    +0.000 HD
BRANCH  13  17
ATOM     17  C   UNL     1       0.569  10.573  19.731  0.00  0.00    +0.000 C 
BRANCH  17  22
ATOM     18  C   UNL     1      -4.835  12.016  18.073  0.00  0.00    +0.000 C 
ATOM     19  C   UNL     1      -3.457  11.628  18.518  0.00  0.00    +0.000 A 
ATOM     20  C   UNL     1      -2.855  12.247  19.618  0.00  0.00    +0.000 A 
ATOM     21  C   UNL     1      -1.563  11.886  20.014  0.00  0.00    +0.000 A 
ATOM     22  C   UNL     1      -0.842  10.909  19.315  0.00  0.00    +0.000 A 
ATOM     23  C   UNL     1      -1.453  10.278  18.223  0.00  0.00    +0.000 A 
ATOM     24  C   UNL     1      -2.746  10.637  17.826  0.00  0.00    +0.000 A 
ENDBRANCH  17  22
ENDBRANCH  13  17
ENDBRANCH  12  14
ENDBRANCH  11  12
ENDBRANCH   1  11
BRANCH  10  25
ATOM     25  C   UNL     1       6.154   5.290  17.864  0.00  0.00    +0.000 C 
BRANCH  25  26
ATOM     26  C   UNL     1       6.173   4.921  16.400  0.00  0.00    +0.000 A 
ATOM     27  C   UNL     1       7.271   5.265  15.600  0.00  0.00    +0.000 A 
ATOM     28  C   UNL     1       7.341   4.845  14.269  0.00  0.00    +0.000 A 
ATOM     29  C   UNL     1       6.315   4.074  13.715  0.00  0.00    +0.000 A 
ATOM     30  C   UNL     1       6.400   3.582  12.301  0.00  0.00    +0.000 C 
ATOM     31  C   UNL     1       5.211   3.740  14.507  0.00  0.00    +0.000 A 
ATOM     32  C   UNL     1       5.139   4.162  15.837  0.00  0.00    +0.000 A 
ENDBRANCH  25  26
ENDBRANCH  10  25
TORSDOF 7
ENDMDL
MODEL 7
REMARK VINA RESULT:      -8.4      5.219      7.550
REMARK  Name = 
REMARK  9 active torsions:
REMARK  status: ('A' for Active; 'I' for Inactive)
REMARK    1  A    between atoms: C_1  and  C_2
REMARK    2  A    between atoms: C_5  and  C_6
REMARK    3  A    between atoms: C_6  and  N_7
REMARK    4  A    between atoms: C_8  and  C_10
REMARK    5  A    between atoms: C_10  and  S_11
REMARK    6  A    between atoms: S_11  and  C_12
REMARK    7  A    between atoms: C_21  and  C_22
REMARK    8  A    between atoms: C_22  and  C_23
REMARK    9  A    between atoms: C_26  and  C_27
REMARK                            x       y       z     vdW  Elec       q    Type
REMARK                         _______ _______ _______ _____ _____    ______ ____
ROOT
ATOM      1  C   UNL     1       3.554   6.235  18.634  0.00  0.00    +0.000 A 
ATOM      2  N   UNL     1       2.574   5.881  19.507  0.00  0.00    +0.000 NA
ATOM      3  C   UNL     1       2.695   4.679  20.124  0.00  0.00    +0.000 A 
ATOM      4  C   UNL     1       1.756   4.267  21.069  0.00  0.00    +0.000 A 
ATOM      5  C   UNL     1       1.827   3.011  21.680  0.00  0.00    +0.000 A 
ATOM      6  C   UNL     1       2.854   2.137  21.341  0.00  0.00    +0.000 A 
ATOM      7  C   UNL     1       3.821   2.551  20.428  0.00  0.00    +0.000 A 
ATOM      8  C   UNL     1       3.768   3.808  19.837  0.00  0.00    +0.000 A 
ATOM      9  N   UNL     1       4.756   4.174  19.007  0.00  0.00    +0.000 NA
ATOM     10  C   UNL     1       4.665   5.406  18.429  0.00  0.00    +0.000 A 
ENDROOT
BRANCH   1  11
ATOM     11  S   UNL     1       3.389   7.791  17.760  0.00  0.00    +0.000 S 
BRANCH  11  12
ATOM     12  C   UNL     1       1.592   8.084  17.776  0.00  0.00    +0.000 C 
BRANCH  12  14
ATOM     13  N   UNL     1       0.103   9.912  18.474  0.00  0.00    +0.000 N 
ATOM     14  C   UNL     1       1.336   9.584  17.944  0.00  0.00    +0.000 C 
ATOM     15  O   UNL     1       2.183  10.424  17.650  0.00  0.00    +0.000 OA
ATOM     16  H   UNL     1      -0.583   9.179  18.590  0.00  0.00    +0.000 HD
BRANCH  13  17
ATOM     17  C   UNL     1      -0.343  11.283  18.611  0.00  0.00    +0.000 C 
BRANCH  17  22
ATOM     18  C   UNL     1      -6.037  12.026  17.584  0.00  0.00    +0.000 C 
ATOM     19  C   UNL     1      -4.580  11.811  17.860  0.00  0.00    +0.000 A 
ATOM     20  C   UNL     1      -4.022  12.157  19.095  0.00  0.00    +0.000 A 
ATOM     21  C   UNL     1      -2.658  11.964  19.335  0.00  0.00    +0.000 A 
ATOM     22  C   UNL     1      -1.821  11.433  18.346  0.00  0.00    +0.000 A 
ATOM     23  C   UNL     1      -2.384  11.072  17.114  0.00  0.00    +0.000 A 
ATOM     24  C   UNL     1      -3.749  11.263  16.873  0.00  0.00    +0.000 A 
ENDBRANCH  17  22
ENDBRANCH  13  17
ENDBRANCH  12  14
ENDBRANCH  11  12
ENDBRANCH   1  11
BRANCH  10  25
ATOM     25  C   UNL     1       5.873   5.829  17.626  0.00  0.00    +0.000 C 
BRANCH  25  26
ATOM     26  C   UNL     1       6.043   5.159  16.283  0.00  0.00    +0.000 A 
ATOM     27  C   UNL     1       4.970   4.477  15.694  0.00  0.00    +0.000 A 
ATOM     28  C   UNL     1       5.089   3.937  14.411  0.00  0.00    +0.000 A 
ATOM     29  C   UNL     1       6.282   4.069  13.695  0.00  0.00    +0.000 A 
ATOM     30  C   UNL     1       6.407   3.530  12.300  0.00  0.00    +0.000 C 
ATOM     31  C   UNL     1       7.360   4.737  14.286  0.00  0.00    +0.000 A 
ATOM     32  C   UNL     1       7.243   5.275  15.570  0.00  0.00    +0.000 A 
ENDBRANCH  25  26
ENDBRANCH  10  25
TORSDOF 7
ENDMDL
MODEL 8
REMARK VINA RESULT:      -8.3      7.128     10.998
REMARK  Name = 
REMARK  9 active torsions:
REMARK  status: ('A' for Active; 'I' for Inactive)
REMARK    1  A    between atoms: C_1  and  C_2
REMARK    2  A    between atoms: C_5  and  C_6
REMARK    3  A    between atoms: C_6  and  N_7
REMARK    4  A    between atoms: C_8  and  C_10
REMARK    5  A    between atoms: C_10  and  S_11
REMARK    6  A    between atoms: S_11  and  C_12
REMARK    7  A    between atoms: C_21  and  C_22
REMARK    8  A    between atoms: C_22  and  C_23
REMARK    9  A    between atoms: C_26  and  C_27
REMARK                            x       y       z     vdW  Elec       q    Type
REMARK                         _______ _______ _______ _____ _____    ______ ____
ROOT
ATOM      1  C   UNL     1      -0.054  11.960  21.035  0.00  0.00    +0.000 A 
ATOM      2  N   UNL     1       1.196  12.420  21.302  0.00  0.00    +0.000 NA
ATOM      3  C   UNL     1       1.618  13.511  20.613  0.00  0.00    +0.000 A 
ATOM      4  C   UNL     1       2.869  14.072  20.867  0.00  0.00    +0.000 A 
ATOM      5  C   UNL     1       3.350  15.161  20.135  0.00  0.00    +0.000 A 
ATOM      6  C   UNL     1       2.573  15.707  19.120  0.00  0.00    +0.000 A 
ATOM      7  C   UNL     1       1.305  15.182  18.882  0.00  0.00    +0.000 A 
ATOM      8  C   UNL     1       0.813  14.115  19.624  0.00  0.00    +0.000 A 
ATOM      9  N   UNL     1      -0.437  13.686  19.389  0.00  0.00    +0.000 NA
ATOM     10  C   UNL     1      -0.883  12.625  20.121  0.00  0.00    +0.000 A 
ENDROOT
BRANCH   1  11
ATOM     11  S   UNL     1      -0.615  10.486  21.886  0.00  0.00    +0.000 S 
BRANCH  11  12
ATOM     12  C   UNL     1       0.907   9.498  22.045  0.00  0.00    +0.000 C 
BRANCH  12  14
ATOM     13  N   UNL     1       2.113   7.820  20.712  0.00  0.00    +0.000 N 
ATOM     14  C   UNL     1       1.256   8.903  20.677  0.00  0.00    +0.000 C 
ATOM     15  O   UNL     1       0.782   9.348  19.636  0.00  0.00    +0.000 OA
ATOM     16  H   UNL     1       2.548   7.577  21.592  0.00  0.00    +0.000 HD
BRANCH  13  17
ATOM     17  C   UNL     1       2.624   7.196  19.510  0.00  0.00    +0.000 C 
BRANCH  17  22
ATOM     18  C   UNL     1       0.608   1.753  18.926  0.00  0.00    +0.000 C 
ATOM     19  C   UNL     1       1.151   3.141  19.084  0.00  0.00    +0.000 A 
ATOM     20  C   UNL     1       1.153   3.776  20.330  0.00  0.00    +0.000 A 
ATOM     21  C   UNL     1       1.649   5.077  20.462  0.00  0.00    +0.000 A 
ATOM     22  C   UNL     1       2.142   5.775  19.352  0.00  0.00    +0.000 A 
ATOM     23  C   UNL     1       2.155   5.132  18.107  0.00  0.00    +0.000 A 
ATOM     24  C   UNL     1       1.660   3.830  17.974  0.00  0.00    +0.000 A 
ENDBRANCH  17  22
ENDBRANCH  13  17
ENDBRANCH  12  14
ENDBRANCH  11  12
ENDBRANCH   1  11
BRANCH  10  25
ATOM     25  C   UNL     1      -2.341  12.279  19.926  0.00  0.00    +0.000 C 
BRANCH  25  26
ATOM     26  C   UNL     1      -2.693  11.606  18.621  0.00  0.00    +0.000 A 
ATOM     27  C   UNL     1      -3.966  11.777  18.060  0.00  0.00    +0.000 A 
ATOM     28  C   UNL     1      -4.269  11.238  16.807  0.00  0.00    +0.000 A 
ATOM     29  C   UNL     1      -3.307  10.518  16.094  0.00  0.00    +0.000 A 
ATOM     30  C   UNL     1      -3.607   9.971  14.730  0.00  0.00    +0.000 C 
ATOM     31  C   UNL     1      -2.039  10.334  16.658  0.00  0.00    +0.000 A 
ATOM     32  C   UNL     1      -1.735  10.870  17.912  0.00  0.00    +0.000 A 
ENDBRANCH  25  26
ENDBRANCH  10  25
TORSDOF 7
ENDMDL
MODEL 9
REMARK VINA RESULT:      -8.3      5.407      6.966
REMARK  Name = 
REMARK  9 active torsions:
REMARK  status: ('A' for Active; 'I' for Inactive)
REMARK    1  A    between atoms: C_1  and  C_2
REMARK    2  A    between atoms: C_5  and  C_6
REMARK    3  A    between atoms: C_6  and  N_7
REMARK    4  A    between atoms: C_8  and  C_10
REMARK    5  A    between atoms: C_10  and  S_11
REMARK    6  A    between atoms: S_11  and  C_12
REMARK    7  A    between atoms: C_21  and  C_22
REMARK    8  A    between atoms: C_22  and  C_23
REMARK    9  A    between atoms: C_26  and  C_27
REMARK                            x       y       z     vdW  Elec       q    Type
REMARK                         _______ _______ _______ _____ _____    ______ ____
ROOT
ATOM      1  C   UNL     1       3.216   6.517  18.474  0.00  0.00    +0.000 A 
ATOM      2  N   UNL     1       2.199   6.150  19.298  0.00  0.00    +0.000 NA
ATOM      3  C   UNL     1       2.295   4.939  19.903  0.00  0.00    +0.000 A 
ATOM      4  C   UNL     1       1.316   4.514  20.800  0.00  0.00    +0.000 A 
ATOM      5  C   UNL     1       1.362   3.250  21.397  0.00  0.00    +0.000 A 
ATOM      6  C   UNL     1       2.405   2.382  21.093  0.00  0.00    +0.000 A 
ATOM      7  C   UNL     1       3.411   2.810  20.230  0.00  0.00    +0.000 A 
ATOM      8  C   UNL     1       3.381   4.074  19.654  0.00  0.00    +0.000 A 
ATOM      9  N   UNL     1       4.405   4.453  18.874  0.00  0.00    +0.000 NA
ATOM     10  C   UNL     1       4.337   5.693  18.308  0.00  0.00    +0.000 A 
ENDROOT
BRANCH   1  11
ATOM     11  S   UNL     1       3.087   8.083  17.614  0.00  0.00    +0.000 S 
BRANCH  11  12
ATOM     12  C   UNL     1       1.432   8.678  18.087  0.00  0.00    +0.000 C 
BRANCH  12  14
ATOM     13  N   UNL     1       1.006  10.260  19.922  0.00  0.00    +0.000 N 
ATOM     14  C   UNL     1       1.561  10.090  18.668  0.00  0.00    +0.000 C 
ATOM     15  O   UNL     1       2.140  10.989  18.065  0.00  0.00    +0.000 OA
ATOM     16  H   UNL     1       0.452   9.508  20.310  0.00  0.00    +0.000 HD
BRANCH  13  17
ATOM     17  C   UNL     1       0.951  11.549  20.577  0.00  0.00    +0.000 C 
BRANCH  17  22
ATOM     18  C   UNL     1      -4.250  12.785  22.912  0.00  0.00    +0.000 C 
ATOM     19  C   UNL     1      -2.923  12.441  22.306  0.00  0.00    +0.000 A 
ATOM     20  C   UNL     1      -1.944  11.773  23.048  0.00  0.00    +0.000 A 
ATOM     21  C   UNL     1      -0.704  11.472  22.476  0.00  0.00    +0.000 A 
ATOM     22  C   UNL     1      -0.412  11.840  21.156  0.00  0.00    +0.000 A 
ATOM     23  C   UNL     1      -1.399  12.496  20.408  0.00  0.00    +0.000 A 
ATOM     24  C   UNL     1      -2.641  12.797  20.980  0.00  0.00    +0.000 A 
ENDBRANCH  17  22
ENDBRANCH  13  17
ENDBRANCH  12  14
ENDBRANCH  11  12
ENDBRANCH   1  11
BRANCH  10  25
ATOM     25  C   UNL     1       5.579   6.128  17.566  0.00  0.00    +0.000 C 
BRANCH  25  26
ATOM     26  C   UNL     1       5.865   5.404  16.272  0.00  0.00    +0.000 A 
ATOM     27  C   UNL     1       4.824   4.791  15.561  0.00  0.00    +0.000 A 
ATOM     28  C   UNL     1       5.062   4.203  14.317  0.00  0.00    +0.000 A 
ATOM     29  C   UNL     1       6.344   4.216  13.761  0.00  0.00    +0.000 A 
ATOM     30  C   UNL     1       6.603   3.626  12.407  0.00  0.00    +0.000 C 
ATOM     31  C   UNL     1       7.389   4.816  14.474  0.00  0.00    +0.000 A 
ATOM     32  C   UNL     1       7.152   5.402  15.720  0.00  0.00    +0.000 A 
ENDBRANCH  25  26
ENDBRANCH  10  25
TORSDOF 7
ENDMDL
