MODEL 1
REMARK VINA RESULT:      -7.9      0.000      0.000
REMARK  Name = 
REMARK  8 active torsions:
REMARK  status: ('A' for Active; 'I' for Inactive)
REMARK    1  A    between atoms: C_1  and  C_2
REMARK    2  A    between atoms: C_5  and  C_6
REMARK    3  A    between atoms: C_6  and  C_7
REMARK    4  A    between atoms: C_6  and  C_8
REMARK    5  A    between atoms: C_9  and  C_10
REMARK    6  A    between atoms: C_17  and  C_18
REMARK    7  A    between atoms: C_18  and  C_19
REMARK    8  A    between atoms: C_19  and  C_21
REMARK                            x       y       z     vdW  Elec       q    Type
REMARK                         _______ _______ _______ _____ _____    ______ ____
ROOT
ATOM      1  C   UNL     1       3.738   5.105  18.131  0.00  0.00    +0.000 C 
ATOM      2  O   UNL     1       3.155   4.980  17.053  0.00  0.00    +0.000 OA
ATOM      3  N   UNL     1       5.152   5.059  18.194  0.00  0.00    +0.000 N 
ATOM      4  C   UNL     1       5.841   5.412  19.426  0.00  0.00    +0.000 C 
ATOM      5  C   UNL     1       7.316   5.741  19.335  0.00  0.00    +0.000 C 
ATOM      6  O   UNL     1       7.991   4.699  18.634  0.00  0.00    +0.000 OA
ATOM      7  C   UNL     1       7.439   4.543  17.319  0.00  0.00    +0.000 C 
ATOM      8  C   UNL     1       5.941   4.096  17.355  0.00  0.00    +0.000 C 
ENDROOT
BRANCH   1  14
ATOM      9  C   UNL     1       2.308   7.927  18.963  0.00  0.00    +0.000 C 
ATOM     10  C   UNL     1       2.301   6.622  19.666  0.00  0.00    +0.000 A 
ATOM     11  N   UNL     1       1.611   6.532  20.809  0.00  0.00    +0.000 NA
ATOM     12  O   UNL     1       1.722   5.236  21.217  0.00  0.00    +0.000 OA
ATOM     13  C   UNL     1       2.476   4.520  20.341  0.00  0.00    +0.000 A 
ATOM     14  C   UNL     1       2.930   5.365  19.336  0.00  0.00    +0.000 A 
BRANCH  13  15
ATOM     15  C   UNL     1       2.601   3.058  20.692  0.00  0.00    +0.000 C 
ATOM     16  C   UNL     1       1.680   2.601  21.825  0.00  0.00    +0.000 C 
ATOM     17  C   UNL     1       2.436   2.150  19.469  0.00  0.00    +0.000 C 
ENDBRANCH  13  15
ENDBRANCH   1  14
BRANCH   8  18
ATOM     18  C   UNL     1       5.444   3.807  15.931  0.00  0.00    +0.000 C 
BRANCH  18  19
ATOM     19  C   UNL     1       5.821   4.932  14.972  0.00  0.00    +0.000 C 
ATOM     20  O   UNL     1       5.666   6.104  15.317  0.00  0.00    +0.000 OA
BRANCH  19  21
ATOM     21  C   UNL     1       6.389   4.572  13.685  0.00  0.00    +0.000 A 
ATOM     22  C   UNL     1       6.073   3.542  12.817  0.00  0.00    +0.000 A 
ATOM     23  C   UNL     1       6.974   3.630  11.729  0.00  0.00    +0.000 A 
ATOM     24  C   UNL     1       7.773   4.720  11.987  0.00  0.00    +0.000 A 
ATOM     25  O   UNL     1       7.419   5.303  13.161  0.00  0.00    +0.000 OA
ENDBRANCH  19  21
ENDBRANCH  18  19
ENDBRANCH   8  18
TORSDOF 5
ENDMDL
MODEL 2
REMARK VINA RESULT:      -7.8      2.159      7.073
REMARK  Name = 
REMARK  8 active torsions:
REMARK  status: ('A' for Active; 'I' for Inactive)
REMARK    1  A    between atoms: C_1  and  C_2
REMARK    2  A    between atoms: C_5  and  C_6
REMARK    3  A    between atoms: C_6  and  C_7
REMARK    4  A    between atoms: C_6  and  C_8
REMARK    5  A    between atoms: C_9  and  C_10
REMARK    6  A    between atoms: C_17  and  C_18
REMARK    7  A    between atoms: C_18  and  C_19
REMARK    8  A    between atoms: C_19  and  C_21
REMARK                            x       y       z     vdW  Elec       q    Type
REMARK                         _______ _______ _______ _____ _____    ______ ____
ROOT
ATOM      1  C   UNL     1       4.841   5.697  17.053  0.00  0.00    +0.000 C 
ATOM      2  O   UNL     1       4.685   6.878  16.743  0.00  0.00    +0.000 OA
ATOM      3  N   UNL     1       3.727   4.886  17.381  0.00  0.00    +0.000 N 
ATOM      4  C   UNL     1       3.892   3.448  17.544  0.00  0.00    +0.000 C 
ATOM      5  C   UNL     1       2.646   2.590  17.486  0.00  0.00    +0.000 C 
ATOM      6  O   UNL     1       1.668   3.112  18.382  0.00  0.00    +0.000 OA
ATOM      7  C   UNL     1       1.349   4.467  18.036  0.00  0.00    +0.000 C 
ATOM      8  C   UNL     1       2.578   5.422  18.184  0.00  0.00    +0.000 C 
ENDROOT
BRANCH   1  14
ATOM      9  C   UNL     1       6.901   5.370  19.573  0.00  0.00    +0.000 C 
ATOM     10  C   UNL     1       7.083   4.996  18.149  0.00  0.00    +0.000 A 
ATOM     11  N   UNL     1       8.242   4.426  17.797  0.00  0.00    +0.000 NA
ATOM     12  O   UNL     1       8.132   4.137  16.469  0.00  0.00    +0.000 OA
ATOM     13  C   UNL     1       6.920   4.526  15.992  0.00  0.00    +0.000 A 
ATOM     14  C   UNL     1       6.205   5.138  17.013  0.00  0.00    +0.000 A 
BRANCH  13  15
ATOM     15  C   UNL     1       6.697   4.190  14.537  0.00  0.00    +0.000 C 
ATOM     16  C   UNL     1       5.226   4.153  14.118  0.00  0.00    +0.000 C 
ATOM     17  C   UNL     1       7.499   5.100  13.601  0.00  0.00    +0.000 C 
ENDBRANCH  13  15
ENDBRANCH   1  14
BRANCH   8  18
ATOM     18  C   UNL     1       2.147   6.876  17.941  0.00  0.00    +0.000 C 
BRANCH  18  19
ATOM     19  C   UNL     1       1.950   7.624  19.256  0.00  0.00    +0.000 C 
ATOM     20  O   UNL     1       2.164   7.046  20.324  0.00  0.00    +0.000 OA
BRANCH  19  21
ATOM     21  C   UNL     1       1.548   9.017  19.197  0.00  0.00    +0.000 A 
ATOM     22  C   UNL     1       1.609   9.929  18.158  0.00  0.00    +0.000 A 
ATOM     23  C   UNL     1       1.126  11.160  18.663  0.00  0.00    +0.000 A 
ATOM     24  C   UNL     1       0.779  10.922  19.972  0.00  0.00    +0.000 A 
ATOM     25  O   UNL     1       1.019   9.626  20.301  0.00  0.00    +0.000 OA
ENDBRANCH  19  21
ENDBRANCH  18  19
ENDBRANCH   8  18
TORSDOF 5
ENDMDL
MODEL 3
REMARK VINA RESULT:      -7.8      2.072      6.896
REMARK  Name = 
REMARK  8 active torsions:
REMARK  status: ('A' for Active; 'I' for Inactive)
REMARK    1  A    between atoms: C_1  and  C_2
REMARK    2  A    between atoms: C_5  and  C_6
REMARK    3  A    between atoms: C_6  and  C_7
REMARK    4  A    between atoms: C_6  and  C_8
REMARK    5  A    between atoms: C_9  and  C_10
REMARK    6  A    between atoms: C_17  and  C_18
REMARK    7  A    between atoms: C_18  and  C_19
REMARK    8  A    between atoms: C_19  and  C_21
REMARK                            x       y       z     vdW  Elec       q    Type
REMARK                         _______ _______ _______ _____ _____    ______ ____
ROOT
ATOM      1  C   UNL     1       5.010   4.113  16.820  0.00  0.00    +0.000 C 
ATOM      2  O   UNL     1       5.060   2.887  16.923  0.00  0.00    +0.000 OA
ATOM      3  N   UNL     1       3.910   4.835  17.344  0.00  0.00    +0.000 N 
ATOM      4  C   UNL     1       3.952   6.289  17.405  0.00  0.00    +0.000 C 
ATOM      5  C   UNL     1       2.966   6.980  18.322  0.00  0.00    +0.000 C 
ATOM      6  O   UNL     1       1.650   6.502  18.051  0.00  0.00    +0.000 OA
ATOM      7  C   UNL     1       1.587   5.081  18.241  0.00  0.00    +0.000 C 
ATOM      8  C   UNL     1       2.508   4.308  17.242  0.00  0.00    +0.000 C 
ENDROOT
BRANCH   1  14
ATOM      9  C   UNL     1       6.005   3.848  13.715  0.00  0.00    +0.000 C 
ATOM     10  C   UNL     1       6.553   4.679  14.814  0.00  0.00    +0.000 A 
ATOM     11  N   UNL     1       7.603   5.462  14.541  0.00  0.00    +0.000 NA
ATOM     12  O   UNL     1       7.871   6.148  15.689  0.00  0.00    +0.000 OA
ATOM     13  C   UNL     1       7.001   5.796  16.673  0.00  0.00    +0.000 A 
ATOM     14  C   UNL     1       6.149   4.809  16.194  0.00  0.00    +0.000 A 
BRANCH  13  15
ATOM     15  C   UNL     1       7.196   6.554  17.963  0.00  0.00    +0.000 C 
ATOM     16  C   UNL     1       7.915   5.760  19.056  0.00  0.00    +0.000 C 
ATOM     17  C   UNL     1       7.881   7.907  17.745  0.00  0.00    +0.000 C 
ENDBRANCH  13  15
ENDBRANCH   1  14
BRANCH   8  18
ATOM     18  C   UNL     1       2.294   2.795  17.392  0.00  0.00    +0.000 C 
BRANCH  18  19
ATOM     19  C   UNL     1       1.325   2.481  18.527  0.00  0.00    +0.000 C 
ATOM     20  O   UNL     1       0.171   2.137  18.266  0.00  0.00    +0.000 OA
BRANCH  19  21
ATOM     21  C   UNL     1       1.818   2.566  19.890  0.00  0.00    +0.000 A 
ATOM     22  C   UNL     1       1.163   2.885  21.067  0.00  0.00    +0.000 A 
ATOM     23  C   UNL     1       2.134   2.863  22.096  0.00  0.00    +0.000 A 
ATOM     24  C   UNL     1       3.318   2.512  21.492  0.00  0.00    +0.000 A 
ATOM     25  O   UNL     1       3.135   2.319  20.160  0.00  0.00    +0.000 OA
ENDBRANCH  19  21
ENDBRANCH  18  19
ENDBRANCH   8  18
TORSDOF 5
ENDMDL
MODEL 4
REMARK VINA RESULT:      -7.7      2.110      7.080
REMARK  Name = 
REMARK  8 active torsions:
REMARK  status: ('A' for Active; 'I' for Inactive)
REMARK    1  A    between atoms: C_1  and  C_2
REMARK    2  A    between atoms: C_5  and  C_6
REMARK    3  A    between atoms: C_6  and  C_7
REMARK    4  A    between atoms: C_6  and  C_8
REMARK    5  A    between atoms: C_9  and  C_10
REMARK    6  A    between atoms: C_17  and  C_18
REMARK    7  A    between atoms: C_18  and  C_19
REMARK    8  A    between atoms: C_19  and  C_21
REMARK                            x       y       z     vdW  Elec       q    Type
REMARK                         _______ _______ _______ _____ _____    ______ ____
ROOT
ATOM      1  C   UNL     1       4.244   5.508  17.067  0.00  0.00    +0.000 C 
ATOM      2  O   UNL     1       3.569   6.535  16.994  0.00  0.00    +0.000 OA
ATOM      3  N   UNL     1       3.704   4.330  17.637  0.00  0.00    +0.000 N 
ATOM      4  C   UNL     1       4.425   3.070  17.534  0.00  0.00    +0.000 C 
ATOM      5  C   UNL     1       3.648   1.795  17.784  0.00  0.00    +0.000 C 
ATOM      6  O   UNL     1       2.949   1.901  19.021  0.00  0.00    +0.000 OA
ATOM      7  C   UNL     1       2.057   3.024  18.995  0.00  0.00    +0.000 C 
ATOM      8  C   UNL     1       2.818   4.382  18.848  0.00  0.00    +0.000 C 
ENDROOT
BRANCH   1  14
ATOM      9  C   UNL     1       5.153   4.319  14.158  0.00  0.00    +0.000 C 
ATOM     10  C   UNL     1       5.965   5.000  15.195  0.00  0.00    +0.000 A 
ATOM     11  N   UNL     1       7.266   5.189  14.945  0.00  0.00    +0.000 NA
ATOM     12  O   UNL     1       7.762   5.871  16.017  0.00  0.00    +0.000 OA
ATOM     13  C   UNL     1       6.783   6.104  16.931  0.00  0.00    +0.000 A 
ATOM     14  C   UNL     1       5.601   5.522  16.491  0.00  0.00    +0.000 A 
BRANCH  13  15
ATOM     15  C   UNL     1       7.239   6.906  18.126  0.00  0.00    +0.000 C 
ATOM     16  C   UNL     1       8.053   6.107  19.146  0.00  0.00    +0.000 C 
ATOM     17  C   UNL     1       7.990   8.178  17.720  0.00  0.00    +0.000 C 
ENDBRANCH  13  15
ENDBRANCH   1  14
BRANCH   8  18
ATOM     18  C   UNL     1       1.832   5.553  18.969  0.00  0.00    +0.000 C 
BRANCH  18  19
ATOM     19  C   UNL     1       1.928   6.221  20.338  0.00  0.00    +0.000 C 
ATOM     20  O   UNL     1       2.344   5.576  21.302  0.00  0.00    +0.000 OA
BRANCH  19  21
ATOM     21  C   UNL     1       1.555   7.619  20.444  0.00  0.00    +0.000 A 
ATOM     22  C   UNL     1       1.077   8.345  21.520  0.00  0.00    +0.000 A 
ATOM     23  C   UNL     1       0.832   9.659  21.054  0.00  0.00    +0.000 A 
ATOM     24  C   UNL     1       1.195   9.663  19.728  0.00  0.00    +0.000 A 
ATOM     25  O   UNL     1       1.645   8.438  19.352  0.00  0.00    +0.000 OA
ENDBRANCH  19  21
ENDBRANCH  18  19
ENDBRANCH   8  18
TORSDOF 5
ENDMDL
MODEL 5
REMARK VINA RESULT:      -7.6      2.185      7.246
REMARK  Name = 
REMARK  8 active torsions:
REMARK  status: ('A' for Active; 'I' for Inactive)
REMARK    1  A    between atoms: C_1  and  C_2
REMARK    2  A    between atoms: C_5  and  C_6
REMARK    3  A    between atoms: C_6  and  C_7
REMARK    4  A    between atoms: C_6  and  C_8
REMARK    5  A    between atoms: C_9  and  C_10
REMARK    6  A    between atoms: C_17  and  C_18
REMARK    7  A    between atoms: C_18  and  C_19
REMARK    8  A    between atoms: C_19  and  C_21
REMARK                            x       y       z     vdW  Elec       q    Type
REMARK                         _______ _______ _______ _____ _____    ______ ____
ROOT
ATOM      1  C   UNL     1       4.472   5.620  16.979  0.00  0.00    +0.000 C 
ATOM      2  O   UNL     1       4.181   6.814  16.914  0.00  0.00    +0.000 OA
ATOM      3  N   UNL     1       3.542   4.679  17.484  0.00  0.00    +0.000 N 
ATOM      4  C   UNL     1       3.809   3.252  17.368  0.00  0.00    +0.000 C 
ATOM      5  C   UNL     1       2.640   2.305  17.539  0.00  0.00    +0.000 C 
ATOM      6  O   UNL     1       1.952   2.614  18.748  0.00  0.00    +0.000 OA
ATOM      7  C   UNL     1       1.486   3.971  18.723  0.00  0.00    +0.000 C 
ATOM      8  C   UNL     1       2.661   5.000  18.657  0.00  0.00    +0.000 C 
ENDROOT
BRANCH   1  14
ATOM      9  C   UNL     1       5.097   4.332  14.038  0.00  0.00    +0.000 C 
ATOM     10  C   UNL     1       6.028   4.639  15.152  0.00  0.00    +0.000 A 
ATOM     11  N   UNL     1       7.327   4.378  14.969  0.00  0.00    +0.000 NA
ATOM     12  O   UNL     1       7.959   4.795  16.104  0.00  0.00    +0.000 OA
ATOM     13  C   UNL     1       7.065   5.307  16.990  0.00  0.00    +0.000 A 
ATOM     14  C   UNL     1       5.785   5.192  16.463  0.00  0.00    +0.000 A 
BRANCH  13  15
ATOM     15  C   UNL     1       7.692   5.843  18.254  0.00  0.00    +0.000 C 
ATOM     16  C   UNL     1       7.961   7.349  18.233  0.00  0.00    +0.000 C 
ATOM     17  C   UNL     1       6.899   5.457  19.506  0.00  0.00    +0.000 C 
ENDBRANCH  13  15
ENDBRANCH   1  14
BRANCH   8  18
ATOM     18  C   UNL     1       2.116   6.430  18.777  0.00  0.00    +0.000 C 
BRANCH  18  19
ATOM     19  C   UNL     1       1.840   6.799  20.231  0.00  0.00    +0.000 C 
ATOM     20  O   UNL     1       1.995   5.954  21.115  0.00  0.00    +0.000 OA
BRANCH  19  21
ATOM     21  C   UNL     1       1.432   8.161  20.526  0.00  0.00    +0.000 A 
ATOM     22  C   UNL     1       1.156   8.778  21.733  0.00  0.00    +0.000 A 
ATOM     23  C   UNL     1       0.759  10.104  21.436  0.00  0.00    +0.000 A 
ATOM     24  C   UNL     1       0.837  10.224  20.068  0.00  0.00    +0.000 A 
ATOM     25  O   UNL     1       1.255   9.059  19.510  0.00  0.00    +0.000 OA
ENDBRANCH  19  21
ENDBRANCH  18  19
ENDBRANCH   8  18
TORSDOF 5
ENDMDL
MODEL 6
REMARK VINA RESULT:      -7.6      0.794      2.454
REMARK  Name = 
REMARK  8 active torsions:
REMARK  status: ('A' for Active; 'I' for Inactive)
REMARK    1  A    between atoms: C_1  and  C_2
REMARK    2  A    between atoms: C_5  and  C_6
REMARK    3  A    between atoms: C_6  and  C_7
REMARK    4  A    between atoms: C_6  and  C_8
REMARK    5  A    between atoms: C_9  and  C_10
REMARK    6  A    between atoms: C_17  and  C_18
REMARK    7  A    between atoms: C_18  and  C_19
REMARK    8  A    between atoms: C_19  and  C_21
REMARK                            x       y       z     vdW  Elec       q    Type
REMARK                         _______ _______ _______ _____ _____    ______ ____
ROOT
ATOM      1  C   UNL     1       3.558   4.636  18.019  0.00  0.00    +0.000 C 
ATOM      2  O   UNL     1       3.044   4.464  16.914  0.00  0.00    +0.000 OA
ATOM      3  N   UNL     1       4.961   4.778  18.145  0.00  0.00    +0.000 N 
ATOM      4  C   UNL     1       5.544   5.186  19.416  0.00  0.00    +0.000 C 
ATOM      5  C   UNL     1       6.963   5.712  19.399  0.00  0.00    +0.000 C 
ATOM      6  O   UNL     1       7.803   4.791  18.707  0.00  0.00    +0.000 OA
ATOM      7  C   UNL     1       7.332   4.600  17.365  0.00  0.00    +0.000 C 
ATOM      8  C   UNL     1       5.909   3.954  17.322  0.00  0.00    +0.000 C 
ENDROOT
BRANCH   1  14
ATOM      9  C   UNL     1       2.371   2.183  19.828  0.00  0.00    +0.000 C 
ATOM     10  C   UNL     1       2.177   3.646  19.977  0.00  0.00    +0.000 A 
ATOM     11  N   UNL     1       1.422   4.075  20.995  0.00  0.00    +0.000 NA
ATOM     12  O   UNL     1       1.449   5.437  20.937  0.00  0.00    +0.000 OA
ATOM     13  C   UNL     1       2.209   5.858  19.892  0.00  0.00    +0.000 A 
ATOM     14  C   UNL     1       2.672   4.751  19.192  0.00  0.00    +0.000 A 
BRANCH  13  15
ATOM     15  C   UNL     1       2.335   7.358  19.790  0.00  0.00    +0.000 C 
ATOM     16  C   UNL     1       2.179   7.909  18.371  0.00  0.00    +0.000 C 
ATOM     17  C   UNL     1       1.395   8.087  20.755  0.00  0.00    +0.000 C 
ENDBRANCH  13  15
ENDBRANCH   1  14
BRANCH   8  18
ATOM     18  C   UNL     1       5.516   3.641  15.871  0.00  0.00    +0.000 C 
BRANCH  18  19
ATOM     19  C   UNL     1       5.777   4.833  14.955  0.00  0.00    +0.000 C 
ATOM     20  O   UNL     1       5.476   5.967  15.330  0.00  0.00    +0.000 OA
BRANCH  19  21
ATOM     21  C   UNL     1       6.413   4.585  13.674  0.00  0.00    +0.000 A 
ATOM     22  C   UNL     1       6.171   3.610  12.722  0.00  0.00    +0.000 A 
ATOM     23  C   UNL     1       7.115   3.805  11.686  0.00  0.00    +0.000 A 
ATOM     24  C   UNL     1       7.863   4.898  12.055  0.00  0.00    +0.000 A 
ATOM     25  O   UNL     1       7.438   5.384  13.250  0.00  0.00    +0.000 OA
ENDBRANCH  19  21
ENDBRANCH  18  19
ENDBRANCH   8  18
TORSDOF 5
ENDMDL
MODEL 7
REMARK VINA RESULT:      -7.6      2.159      4.792
REMARK  Name = 
REMARK  8 active torsions:
REMARK  status: ('A' for Active; 'I' for Inactive)
REMARK    1  A    between atoms: C_1  and  C_2
REMARK    2  A    between atoms: C_5  and  C_6
REMARK    3  A    between atoms: C_6  and  C_7
REMARK    4  A    between atoms: C_6  and  C_8
REMARK    5  A    between atoms: C_9  and  C_10
REMARK    6  A    between atoms: C_17  and  C_18
REMARK    7  A    between atoms: C_18  and  C_19
REMARK    8  A    between atoms: C_19  and  C_21
REMARK                            x       y       z     vdW  Elec       q    Type
REMARK                         _______ _______ _______ _____ _____    ______ ____
ROOT
ATOM      1  C   UNL     1       4.863   4.010  17.998  0.00  0.00    +0.000 C 
ATOM      2  O   UNL     1       5.467   3.684  19.020  0.00  0.00    +0.000 OA
ATOM      3  N   UNL     1       5.570   4.287  16.802  0.00  0.00    +0.000 N 
ATOM      4  C   UNL     1       4.847   4.467  15.551  0.00  0.00    +0.000 C 
ATOM      5  C   UNL     1       5.636   4.352  14.264  0.00  0.00    +0.000 C 
ATOM      6  O   UNL     1       6.785   5.194  14.334  0.00  0.00    +0.000 OA
ATOM      7  C   UNL     1       7.606   4.822  15.450  0.00  0.00    +0.000 C 
ATOM      8  C   UNL     1       6.876   5.026  16.818  0.00  0.00    +0.000 C 
ENDROOT
BRANCH   1  14
ATOM      9  C   UNL     1       2.845   1.439  18.140  0.00  0.00    +0.000 C 
ATOM     10  C   UNL     1       2.529   2.888  18.114  0.00  0.00    +0.000 A 
ATOM     11  N   UNL     1       1.240   3.247  18.166  0.00  0.00    +0.000 NA
ATOM     12  O   UNL     1       1.229   4.610  18.181  0.00  0.00    +0.000 OA
ATOM     13  C   UNL     1       2.495   5.102  18.135  0.00  0.00    +0.000 A 
ATOM     14  C   UNL     1       3.390   4.044  18.038  0.00  0.00    +0.000 A 
BRANCH  13  15
ATOM     15  C   UNL     1       2.571   6.608  18.205  0.00  0.00    +0.000 C 
ATOM     16  C   UNL     1       2.367   7.184  19.607  0.00  0.00    +0.000 C 
ATOM     17  C   UNL     1       3.861   7.154  17.583  0.00  0.00    +0.000 C 
ENDBRANCH  13  15
ENDBRANCH   1  14
BRANCH   8  18
ATOM     18  C   UNL     1       7.845   4.751  17.977  0.00  0.00    +0.000 C 
BRANCH  18  19
ATOM     19  C   UNL     1       7.794   5.865  19.019  0.00  0.00    +0.000 C 
ATOM     20  O   UNL     1       7.645   5.581  20.208  0.00  0.00    +0.000 OA
BRANCH  19  21
ATOM     21  C   UNL     1       7.963   7.233  18.565  0.00  0.00    +0.000 A 
ATOM     22  C   UNL     1       7.398   7.904  17.494  0.00  0.00    +0.000 A 
ATOM     23  C   UNL     1       7.949   9.208  17.489  0.00  0.00    +0.000 A 
ATOM     24  C   UNL     1       8.800   9.263  18.568  0.00  0.00    +0.000 A 
ATOM     25  O   UNL     1       8.807   8.078  19.231  0.00  0.00    +0.000 OA
ENDBRANCH  19  21
ENDBRANCH  18  19
ENDBRANCH   8  18
TORSDOF 5
ENDMDL
MODEL 8
REMARK VINA RESULT:      -7.4      2.241      7.260
REMARK  Name = 
REMARK  8 active torsions:
REMARK  status: ('A' for Active; 'I' for Inactive)
REMARK    1  A    between atoms: C_1  and  C_2
REMARK    2  A    between atoms: C_5  and  C_6
REMARK    3  A    between atoms: C_6  and  C_7
REMARK    4  A    between atoms: C_6  and  C_8
REMARK    5  A    between atoms: C_9  and  C_10
REMARK    6  A    between atoms: C_17  and  C_18
REMARK    7  A    between atoms: C_18  and  C_19
REMARK    8  A    between atoms: C_19  and  C_21
REMARK                            x       y       z     vdW  Elec       q    Type
REMARK                         _______ _______ _______ _____ _____    ______ ____
ROOT
ATOM      1  C   UNL     1       4.727   5.894  16.980  0.00  0.00    +0.000 C 
ATOM      2  O   UNL     1       4.562   7.092  16.750  0.00  0.00    +0.000 OA
ATOM      3  N   UNL     1       3.633   5.077  17.358  0.00  0.00    +0.000 N 
ATOM      4  C   UNL     1       3.790   3.631  17.427  0.00  0.00    +0.000 C 
ATOM      5  C   UNL     1       2.531   2.790  17.429  0.00  0.00    +0.000 C 
ATOM      6  O   UNL     1       1.641   3.271  18.434  0.00  0.00    +0.000 OA
ATOM      7  C   UNL     1       1.313   4.646  18.191  0.00  0.00    +0.000 C 
ATOM      8  C   UNL     1       2.564   5.579  18.284  0.00  0.00    +0.000 C 
ENDROOT
BRANCH   1  14
ATOM      9  C   UNL     1       6.824   5.004  19.328  0.00  0.00    +0.000 C 
ATOM     10  C   UNL     1       6.969   4.929  17.853  0.00  0.00    +0.000 A 
ATOM     11  N   UNL     1       8.105   4.419  17.363  0.00  0.00    +0.000 NA
ATOM     12  O   UNL     1       7.963   4.415  16.007  0.00  0.00    +0.000 OA
ATOM     13  C   UNL     1       6.753   4.922  15.650  0.00  0.00    +0.000 A 
ATOM     14  C   UNL     1       6.074   5.325  16.793  0.00  0.00    +0.000 A 
BRANCH  13  15
ATOM     15  C   UNL     1       6.494   4.901  14.163  0.00  0.00    +0.000 C 
ATOM     16  C   UNL     1       7.741   5.116  13.304  0.00  0.00    +0.000 C 
ATOM     17  C   UNL     1       5.750   3.637  13.720  0.00  0.00    +0.000 C 
ENDBRANCH  13  15
ENDBRANCH   1  14
BRANCH   8  18
ATOM     18  C   UNL     1       2.135   7.048  18.160  0.00  0.00    +0.000 C 
BRANCH  18  19
ATOM     19  C   UNL     1       1.867   7.667  19.528  0.00  0.00    +0.000 C 
ATOM     20  O   UNL     1       2.088   7.011  20.548  0.00  0.00    +0.000 OA
BRANCH  19  21
ATOM     21  C   UNL     1       1.390   9.037  19.578  0.00  0.00    +0.000 A 
ATOM     22  C   UNL     1       0.767   9.738  20.595  0.00  0.00    +0.000 A 
ATOM     23  C   UNL     1       0.475  11.026  20.087  0.00  0.00    +0.000 A 
ATOM     24  C   UNL     1       0.955  11.043  18.799  0.00  0.00    +0.000 A 
ATOM     25  O   UNL     1       1.521   9.849  18.485  0.00  0.00    +0.000 OA
ENDBRANCH  19  21
ENDBRANCH  18  19
ENDBRANCH   8  18
TORSDOF 5
ENDMDL
MODEL 9
REMARK VINA RESULT:      -7.3      2.194      7.123
REMARK  Name = 
REMARK  8 active torsions:
REMARK  status: ('A' for Active; 'I' for Inactive)
REMARK    1  A    between atoms: C_1  and  C_2
REMARK    2  A    between atoms: C_5  and  C_6
REMARK    3  A    between atoms: C_6  and  C_7
REMARK    4  A    between atoms: C_6  and  C_8
REMARK    5  A    between atoms: C_9  and  C_10
REMARK    6  A    between atoms: C_17  and  C_18
REMARK    7  A    between atoms: C_18  and  C_19
REMARK    8  A    between atoms: C_19  and  C_21
REMARK                            x       y       z     vdW  Elec       q    Type
REMARK                         _______ _______ _______ _____ _____    ______ ____
ROOT
ATOM      1  C   UNL     1       4.641   5.785  16.718  0.00  0.00    +0.000 C 
ATOM      2  O   UNL     1       4.410   6.945  16.374  0.00  0.00    +0.000 OA
ATOM      3  N   UNL     1       3.638   5.010  17.350  0.00  0.00    +0.000 N 
ATOM      4  C   UNL     1       3.844   3.585  17.567  0.00  0.00    +0.000 C 
ATOM      5  C   UNL     1       2.624   2.737  17.858  0.00  0.00    +0.000 C 
ATOM      6  O   UNL     1       1.878   3.329  18.920  0.00  0.00    +0.000 OA
ATOM      7  C   UNL     1       1.479   4.661  18.566  0.00  0.00    +0.000 C 
ATOM      8  C   UNL     1       2.703   5.611  18.360  0.00  0.00    +0.000 C 
ENDROOT
BRANCH   1  14
ATOM      9  C   UNL     1       5.522   4.316  13.932  0.00  0.00    +0.000 C 
ATOM     10  C   UNL     1       6.321   4.581  15.154  0.00  0.00    +0.000 A 
ATOM     11  N   UNL     1       7.600   4.189  15.160  0.00  0.00    +0.000 NA
ATOM     12  O   UNL     1       8.112   4.593  16.358  0.00  0.00    +0.000 OA
ATOM     13  C   UNL     1       7.163   5.227  17.097  0.00  0.00    +0.000 A 
ATOM     14  C   UNL     1       5.961   5.211  16.401  0.00  0.00    +0.000 A 
BRANCH  13  15
ATOM     15  C   UNL     1       7.666   5.755  18.418  0.00  0.00    +0.000 C 
ATOM     16  C   UNL     1       8.040   7.239  18.402  0.00  0.00    +0.000 C 
ATOM     17  C   UNL     1       6.700   5.458  19.569  0.00  0.00    +0.000 C 
ENDBRANCH  13  15
ENDBRANCH   1  14
BRANCH   8  18
ATOM     18  C   UNL     1       2.220   7.049  18.126  0.00  0.00    +0.000 C 
BRANCH  18  19
ATOM     19  C   UNL     1       1.963   7.770  19.445  0.00  0.00    +0.000 C 
ATOM     20  O   UNL     1       2.248   7.216  20.508  0.00  0.00    +0.000 OA
BRANCH  19  21
ATOM     21  C   UNL     1       1.420   9.116  19.395  0.00  0.00    +0.000 A 
ATOM     22  C   UNL     1       1.290   9.996  18.336  0.00  0.00    +0.000 A 
ATOM     23  C   UNL     1       0.737  11.189  18.858  0.00  0.00    +0.000 A 
ATOM     24  C   UNL     1       0.541  10.960  20.200  0.00  0.00    +0.000 A 
ATOM     25  O   UNL     1       0.940   9.705  20.532  0.00  0.00    +0.000 OA
ENDBRANCH  19  21
ENDBRANCH  18  19
ENDBRANCH   8  18
TORSDOF 5
ENDMDL
