MODEL 1
REMARK VINA RESULT:      -7.3      0.000      0.000
REMARK  Name = 
REMARK  4 active torsions:
REMARK  status: ('A' for Active; 'I' for Inactive)
REMARK    1  A    between atoms: C_1  and  N_2
REMARK    2  A    between atoms: C_4  and  C_5
REMARK    3  A    between atoms: C_14  and  C_15
REMARK    4  A    between atoms: N_17  and  C_18
REMARK                            x       y       z     vdW  Elec       q    Type
REMARK                         _______ _______ _______ _____ _____    ______ ____
ROOT
ATOM      1  C   UNL     1       0.648   9.695  21.217  0.00  0.00    +0.000 C 
ATOM      2  N   UNL     1       1.062   9.197  19.922  0.00  0.00    +0.000 N 
ATOM      3  N   UNL     1       1.979   8.216  19.885  0.00  0.00    +0.000 NA
ATOM      4  C   UNL     1       2.230   8.026  18.580  0.00  0.00    +0.000 A 
ATOM      5  C   UNL     1       1.380   8.850  17.798  0.00  0.00    +0.000 A 
ATOM      6  C   UNL     1       0.633   9.607  18.683  0.00  0.00    +0.000 A 
ENDROOT
BRANCH   4   7
ATOM      7  C   UNL     1       3.207   7.067  18.033  0.00  0.00    +0.000 C 
ATOM      8  O   UNL     1       4.159   7.489  17.372  0.00  0.00    +0.000 OA
ATOM      9  N   UNL     1       3.074   5.708  18.316  0.00  0.00    +0.000 N 
ATOM     10  C   UNL     1       2.098   5.088  19.221  0.00  0.00    +0.000 C 
ATOM     11  C   UNL     1       2.793   4.144  20.211  0.00  0.00    +0.000 C 
ATOM     12  O   UNL     1       3.632   3.193  19.541  0.00  0.00    +0.000 OA
ATOM     13  C   UNL     1       4.636   3.865  18.764  0.00  0.00    +0.000 C 
ATOM     14  C   UNL     1       3.994   4.754  17.698  0.00  0.00    +0.000 C 
ENDBRANCH   4   7
BRANCH   6  15
ATOM     15  C   UNL     1      -0.368  10.628  18.448  0.00  0.00    +0.000 C 
ATOM     16  O   UNL     1      -0.099  11.822  18.510  0.00  0.00    +0.000 OA
ATOM     17  N   UNL     1      -1.630  10.121  18.198  0.00  0.00    +0.000 N 
ATOM     18  H   UNL     1      -1.760   9.124  18.311  0.00  0.00    +0.000 HD
BRANCH  17  19
ATOM     19  C   UNL     1      -2.828  10.844  17.992  0.00  0.00    +0.000 A 
ATOM     20  C   UNL     1      -3.462  11.574  18.999  0.00  0.00    +0.000 A 
ATOM     21  C   UNL     1      -4.681  12.212  18.753  0.00  0.00    +0.000 A 
ATOM     22  C   UNL     1      -5.270  12.127  17.494  0.00  0.00    +0.000 A 
ATOM     23 CL   UNL     1      -6.794  12.874  17.214  0.00  0.00    +0.000 Cl
ATOM     24  C   UNL     1      -4.639  11.439  16.463  0.00  0.00    +0.000 A 
ATOM     25  C   UNL     1      -3.416  10.811  16.712  0.00  0.00    +0.000 A 
ATOM     26 CL   UNL     1      -2.658   9.961  15.406  0.00  0.00    +0.000 Cl
ENDBRANCH  17  19
ENDBRANCH   6  15
TORSDOF 3
ENDMDL
MODEL 2
REMARK VINA RESULT:      -7.3      3.286      3.565
REMARK  Name = 
REMARK  4 active torsions:
REMARK  status: ('A' for Active; 'I' for Inactive)
REMARK    1  A    between atoms: C_1  and  N_2
REMARK    2  A    between atoms: C_4  and  C_5
REMARK    3  A    between atoms: C_14  and  C_15
REMARK    4  A    between atoms: N_17  and  C_18
REMARK                            x       y       z     vdW  Elec       q    Type
REMARK                         _______ _______ _______ _____ _____    ______ ____
ROOT
ATOM      1  C   UNL     1       0.998   8.579  21.401  0.00  0.00    +0.000 C 
ATOM      2  N   UNL     1       1.525   8.235  20.097  0.00  0.00    +0.000 N 
ATOM      3  N   UNL     1       2.266   7.119  19.990  0.00  0.00    +0.000 NA
ATOM      4  C   UNL     1       2.686   7.105  18.715  0.00  0.00    +0.000 A 
ATOM      5  C   UNL     1       2.116   8.192  18.004  0.00  0.00    +0.000 A 
ATOM      6  C   UNL     1       1.371   8.919  18.916  0.00  0.00    +0.000 A 
ENDROOT
BRANCH   4   7
ATOM      7  C   UNL     1       3.570   6.084  18.122  0.00  0.00    +0.000 C 
ATOM      8  O   UNL     1       4.784   6.293  18.076  0.00  0.00    +0.000 OA
ATOM      9  N   UNL     1       3.030   4.879  17.675  0.00  0.00    +0.000 N 
ATOM     10  C   UNL     1       1.640   4.428  17.822  0.00  0.00    +0.000 C 
ATOM     11  C   UNL     1       1.584   3.013  18.414  0.00  0.00    +0.000 C 
ATOM     12  O   UNL     1       2.406   2.095  17.680  0.00  0.00    +0.000 OA
ATOM     13  C   UNL     1       3.773   2.536  17.672  0.00  0.00    +0.000 C 
ATOM     14  C   UNL     1       3.898   3.909  17.008  0.00  0.00    +0.000 C 
ENDBRANCH   4   7
BRANCH   6  15
ATOM     15  C   UNL     1       0.597  10.134  18.757  0.00  0.00    +0.000 C 
ATOM     16  O   UNL     1      -0.400  10.174  18.046  0.00  0.00    +0.000 OA
ATOM     17  N   UNL     1       1.117  11.217  19.440  0.00  0.00    +0.000 N 
ATOM     18  H   UNL     1       2.021  11.098  19.881  0.00  0.00    +0.000 HD
BRANCH  17  19
ATOM     19  C   UNL     1       0.641  12.549  19.444  0.00  0.00    +0.000 A 
ATOM     20  C   UNL     1      -0.572  12.923  20.026  0.00  0.00    +0.000 A 
ATOM     21  C   UNL     1      -1.023  14.243  19.938  0.00  0.00    +0.000 A 
ATOM     22  C   UNL     1      -0.259  15.198  19.271  0.00  0.00    +0.000 A 
ATOM     23 CL   UNL     1      -0.845  16.808  19.126  0.00  0.00    +0.000 Cl
ATOM     24  C   UNL     1       0.971  14.858  18.718  0.00  0.00    +0.000 A 
ATOM     25  C   UNL     1       1.422  13.540  18.817  0.00  0.00    +0.000 A 
ATOM     26 CL   UNL     1       2.957  13.150  18.115  0.00  0.00    +0.000 Cl
ENDBRANCH  17  19
ENDBRANCH   6  15
TORSDOF 3
ENDMDL
MODEL 3
REMARK VINA RESULT:      -7.1      3.564      3.909
REMARK  Name = 
REMARK  4 active torsions:
REMARK  status: ('A' for Active; 'I' for Inactive)
REMARK    1  A    between atoms: C_1  and  N_2
REMARK    2  A    between atoms: C_4  and  C_5
REMARK    3  A    between atoms: C_14  and  C_15
REMARK    4  A    between atoms: N_17  and  C_18
REMARK                            x       y       z     vdW  Elec       q    Type
REMARK                         _______ _______ _______ _____ _____    ______ ____
ROOT
ATOM      1  C   UNL     1       1.036   8.510  21.467  0.00  0.00    +0.000 C 
ATOM      2  N   UNL     1       1.570   8.195  20.158  0.00  0.00    +0.000 N 
ATOM      3  N   UNL     1       2.251   7.046  20.013  0.00  0.00    +0.000 NA
ATOM      4  C   UNL     1       2.695   7.066  18.746  0.00  0.00    +0.000 A 
ATOM      5  C   UNL     1       2.198   8.213  18.076  0.00  0.00    +0.000 A 
ATOM      6  C   UNL     1       1.476   8.938  19.007  0.00  0.00    +0.000 A 
ENDROOT
BRANCH   4   7
ATOM      7  C   UNL     1       3.533   6.026  18.123  0.00  0.00    +0.000 C 
ATOM      8  O   UNL     1       4.747   6.215  18.015  0.00  0.00    +0.000 OA
ATOM      9  N   UNL     1       2.954   4.824  17.716  0.00  0.00    +0.000 N 
ATOM     10  C   UNL     1       1.566   4.396  17.935  0.00  0.00    +0.000 C 
ATOM     11  C   UNL     1       1.519   2.989  18.545  0.00  0.00    +0.000 C 
ATOM     12  O   UNL     1       2.290   2.051  17.782  0.00  0.00    +0.000 OA
ATOM     13  C   UNL     1       3.662   2.471  17.703  0.00  0.00    +0.000 C 
ATOM     14  C   UNL     1       3.774   3.834  17.018  0.00  0.00    +0.000 C 
ENDBRANCH   4   7
BRANCH   6  15
ATOM     15  C   UNL     1       0.772  10.200  18.890  0.00  0.00    +0.000 C 
ATOM     16  O   UNL     1      -0.264  10.303  18.244  0.00  0.00    +0.000 OA
ATOM     17  N   UNL     1       1.403  11.249  19.533  0.00  0.00    +0.000 N 
ATOM     18  H   UNL     1       2.324  11.073  19.915  0.00  0.00    +0.000 HD
BRANCH  17  19
ATOM     19  C   UNL     1       1.013  12.609  19.559  0.00  0.00    +0.000 A 
ATOM     20  C   UNL     1       1.425  13.539  18.603  0.00  0.00    +0.000 A 
ATOM     21  C   UNL     1       1.063  14.884  18.720  0.00  0.00    +0.000 A 
ATOM     22  C   UNL     1       0.280  15.305  19.792  0.00  0.00    +0.000 A 
ATOM     23 CL   UNL     1      -0.119  16.969  19.953  0.00  0.00    +0.000 Cl
ATOM     24  C   UNL     1      -0.176  14.390  20.735  0.00  0.00    +0.000 A 
ATOM     25  C   UNL     1       0.181  13.045  20.609  0.00  0.00    +0.000 A 
ATOM     26 CL   UNL     1      -0.402  11.934  21.803  0.00  0.00    +0.000 Cl
ENDBRANCH  17  19
ENDBRANCH   6  15
TORSDOF 3
ENDMDL
MODEL 4
REMARK VINA RESULT:      -7.0      1.488      1.707
REMARK  Name = 
REMARK  4 active torsions:
REMARK  status: ('A' for Active; 'I' for Inactive)
REMARK    1  A    between atoms: C_1  and  N_2
REMARK    2  A    between atoms: C_4  and  C_5
REMARK    3  A    between atoms: C_14  and  C_15
REMARK    4  A    between atoms: N_17  and  C_18
REMARK                            x       y       z     vdW  Elec       q    Type
REMARK                         _______ _______ _______ _____ _____    ______ ____
ROOT
ATOM      1  C   UNL     1       1.237   8.621  21.497  0.00  0.00    +0.000 C 
ATOM      2  N   UNL     1       1.645   8.304  20.145  0.00  0.00    +0.000 N 
ATOM      3  N   UNL     1       2.397   7.207  19.952  0.00  0.00    +0.000 NA
ATOM      4  C   UNL     1       2.693   7.217  18.643  0.00  0.00    +0.000 A 
ATOM      5  C   UNL     1       2.034   8.298  18.004  0.00  0.00    +0.000 A 
ATOM      6  C   UNL     1       1.364   8.997  18.993  0.00  0.00    +0.000 A 
ENDROOT
BRANCH   4   7
ATOM      7  C   UNL     1       3.539   6.223  17.955  0.00  0.00    +0.000 C 
ATOM      8  O   UNL     1       4.720   6.492  17.729  0.00  0.00    +0.000 OA
ATOM      9  N   UNL     1       3.008   4.978  17.622  0.00  0.00    +0.000 N 
ATOM     10  C   UNL     1       1.680   4.461  17.979  0.00  0.00    +0.000 C 
ATOM     11  C   UNL     1       1.788   3.066  18.609  0.00  0.00    +0.000 C 
ATOM     12  O   UNL     1       2.546   2.168  17.788  0.00  0.00    +0.000 OA
ATOM     13  C   UNL     1       3.872   2.678  17.571  0.00  0.00    +0.000 C 
ATOM     14  C   UNL     1       3.824   4.032  16.861  0.00  0.00    +0.000 C 
ENDBRANCH   4   7
BRANCH   6  15
ATOM     15  C   UNL     1       0.552  10.196  18.925  0.00  0.00    +0.000 C 
ATOM     16  O   UNL     1       1.028  11.279  18.604  0.00  0.00    +0.000 OA
ATOM     17  N   UNL     1      -0.766   9.996  19.290  0.00  0.00    +0.000 N 
ATOM     18  H   UNL     1      -1.010   9.090  19.670  0.00  0.00    +0.000 HD
BRANCH  17  19
ATOM     19  C   UNL     1      -1.793  10.963  19.389  0.00  0.00    +0.000 A 
ATOM     20  C   UNL     1      -1.827  11.941  20.385  0.00  0.00    +0.000 A 
ATOM     21  C   UNL     1      -2.905  12.827  20.473  0.00  0.00    +0.000 A 
ATOM     22  C   UNL     1      -3.953  12.743  19.559  0.00  0.00    +0.000 A 
ATOM     23 CL   UNL     1      -5.297  13.805  19.705  0.00  0.00    +0.000 Cl
ATOM     24  C   UNL     1      -3.923  11.803  18.535  0.00  0.00    +0.000 A 
ATOM     25  C   UNL     1      -2.839  10.926  18.446  0.00  0.00    +0.000 A 
ATOM     26 CL   UNL     1      -2.835   9.766  17.159  0.00  0.00    +0.000 Cl
ENDBRANCH  17  19
ENDBRANCH   6  15
TORSDOF 3
ENDMDL
MODEL 5
REMARK VINA RESULT:      -6.9      3.948      8.753
REMARK  Name = 
REMARK  4 active torsions:
REMARK  status: ('A' for Active; 'I' for Inactive)
REMARK    1  A    between atoms: C_1  and  N_2
REMARK    2  A    between atoms: C_4  and  C_5
REMARK    3  A    between atoms: C_14  and  C_15
REMARK    4  A    between atoms: N_17  and  C_18
REMARK                            x       y       z     vdW  Elec       q    Type
REMARK                         _______ _______ _______ _____ _____    ______ ____
ROOT
ATOM      1  C   UNL     1       1.922  12.166  18.637  0.00  0.00    +0.000 C 
ATOM      2  N   UNL     1       1.044  11.448  19.536  0.00  0.00    +0.000 N 
ATOM      3  N   UNL     1       0.379  12.152  20.467  0.00  0.00    +0.000 NA
ATOM      4  C   UNL     1      -0.270  11.232  21.198  0.00  0.00    +0.000 A 
ATOM      5  C   UNL     1      -0.067   9.941  20.645  0.00  0.00    +0.000 A 
ATOM      6  C   UNL     1       0.793  10.098  19.572  0.00  0.00    +0.000 A 
ENDROOT
BRANCH   4   7
ATOM      7  C   UNL     1      -1.113  11.520  22.373  0.00  0.00    +0.000 C 
ATOM      8  O   UNL     1      -0.692  11.242  23.498  0.00  0.00    +0.000 OA
ATOM      9  N   UNL     1      -2.345  12.149  22.201  0.00  0.00    +0.000 N 
ATOM     10  C   UNL     1      -2.894  12.687  20.949  0.00  0.00    +0.000 C 
ATOM     11  C   UNL     1      -3.375  14.131  21.139  0.00  0.00    +0.000 C 
ATOM     12  O   UNL     1      -4.272  14.253  22.251  0.00  0.00    +0.000 OA
ATOM     13  C   UNL     1      -3.635  13.818  23.463  0.00  0.00    +0.000 C 
ATOM     14  C   UNL     1      -3.214  12.351  23.360  0.00  0.00    +0.000 C 
ENDBRANCH   4   7
BRANCH   6  15
ATOM     15  C   UNL     1       1.361   9.125  18.661  0.00  0.00    +0.000 C 
ATOM     16  O   UNL     1       1.080   9.118  17.467  0.00  0.00    +0.000 OA
ATOM     17  N   UNL     1       2.194   8.208  19.275  0.00  0.00    +0.000 N 
ATOM     18  H   UNL     1       2.240   8.228  20.286  0.00  0.00    +0.000 HD
BRANCH  17  19
ATOM     19  C   UNL     1       2.852   7.104  18.685  0.00  0.00    +0.000 A 
ATOM     20  C   UNL     1       3.741   7.228  17.616  0.00  0.00    +0.000 A 
ATOM     21  C   UNL     1       4.307   6.092  17.030  0.00  0.00    +0.000 A 
ATOM     22  C   UNL     1       3.992   4.826  17.515  0.00  0.00    +0.000 A 
ATOM     23 CL   UNL     1       4.656   3.433  16.756  0.00  0.00    +0.000 Cl
ATOM     24  C   UNL     1       3.140   4.679  18.605  0.00  0.00    +0.000 A 
ATOM     25  C   UNL     1       2.583   5.817  19.193  0.00  0.00    +0.000 A 
ATOM     26 CL   UNL     1       1.525   5.598  20.546  0.00  0.00    +0.000 Cl
ENDBRANCH  17  19
ENDBRANCH   6  15
TORSDOF 3
ENDMDL
MODEL 6
REMARK VINA RESULT:      -6.9      3.867      4.205
REMARK  Name = 
REMARK  4 active torsions:
REMARK  status: ('A' for Active; 'I' for Inactive)
REMARK    1  A    between atoms: C_1  and  N_2
REMARK    2  A    between atoms: C_4  and  C_5
REMARK    3  A    between atoms: C_14  and  C_15
REMARK    4  A    between atoms: N_17  and  C_18
REMARK                            x       y       z     vdW  Elec       q    Type
REMARK                         _______ _______ _______ _____ _____    ______ ____
ROOT
ATOM      1  C   UNL     1       1.404   9.741  18.156  0.00  0.00    +0.000 C 
ATOM      2  N   UNL     1       1.823   8.577  18.907  0.00  0.00    +0.000 N 
ATOM      3  N   UNL     1       2.709   7.742  18.338  0.00  0.00    +0.000 NA
ATOM      4  C   UNL     1       2.836   6.728  19.208  0.00  0.00    +0.000 A 
ATOM      5  C   UNL     1       2.076   6.993  20.377  0.00  0.00    +0.000 A 
ATOM      6  C   UNL     1       1.420   8.192  20.163  0.00  0.00    +0.000 A 
ENDROOT
BRANCH   4   7
ATOM      7  C   UNL     1       3.680   5.535  19.007  0.00  0.00    +0.000 C 
ATOM      8  O   UNL     1       4.829   5.529  19.453  0.00  0.00    +0.000 OA
ATOM      9  N   UNL     1       3.150   4.415  18.367  0.00  0.00    +0.000 N 
ATOM     10  C   UNL     1       1.758   4.220  17.940  0.00  0.00    +0.000 C 
ATOM     11  C   UNL     1       1.216   2.876  18.444  0.00  0.00    +0.000 C 
ATOM     12  O   UNL     1       2.078   1.786  18.089  0.00  0.00    +0.000 OA
ATOM     13  C   UNL     1       3.392   1.984  18.634  0.00  0.00    +0.000 C 
ATOM     14  C   UNL     1       4.018   3.271  18.091  0.00  0.00    +0.000 C 
ENDBRANCH   4   7
BRANCH   6  15
ATOM     15  C   UNL     1       0.494   8.931  20.999  0.00  0.00    +0.000 C 
ATOM     16  O   UNL     1      -0.458   8.385  21.544  0.00  0.00    +0.000 OA
ATOM     17  N   UNL     1       0.772  10.283  21.075  0.00  0.00    +0.000 N 
ATOM     18  H   UNL     1       1.501  10.642  20.470  0.00  0.00    +0.000 HD
BRANCH  17  19
ATOM     19  C   UNL     1       0.034  11.282  21.751  0.00  0.00    +0.000 A 
ATOM     20  C   UNL     1      -0.969  10.993  22.678  0.00  0.00    +0.000 A 
ATOM     21  C   UNL     1      -1.712  12.022  23.264  0.00  0.00    +0.000 A 
ATOM     22  C   UNL     1      -1.450  13.348  22.929  0.00  0.00    +0.000 A 
ATOM     23 CL   UNL     1      -2.401  14.604  23.617  0.00  0.00    +0.000 Cl
ATOM     24  C   UNL     1      -0.429  13.663  22.038  0.00  0.00    +0.000 A 
ATOM     25  C   UNL     1       0.316  12.632  21.463  0.00  0.00    +0.000 A 
ATOM     26 CL   UNL     1       1.578  13.060  20.356  0.00  0.00    +0.000 Cl
ENDBRANCH  17  19
ENDBRANCH   6  15
TORSDOF 3
ENDMDL
MODEL 7
REMARK VINA RESULT:      -6.8      2.786      3.435
REMARK  Name = 
REMARK  4 active torsions:
REMARK  status: ('A' for Active; 'I' for Inactive)
REMARK    1  A    between atoms: C_1  and  N_2
REMARK    2  A    between atoms: C_4  and  C_5
REMARK    3  A    between atoms: C_14  and  C_15
REMARK    4  A    between atoms: N_17  and  C_18
REMARK                            x       y       z     vdW  Elec       q    Type
REMARK                         _______ _______ _______ _____ _____    ______ ____
ROOT
ATOM      1  C   UNL     1       1.448   9.710  17.968  0.00  0.00    +0.000 C 
ATOM      2  N   UNL     1       1.835   8.570  18.774  0.00  0.00    +0.000 N 
ATOM      3  N   UNL     1       2.758   7.729  18.277  0.00  0.00    +0.000 NA
ATOM      4  C   UNL     1       2.846   6.741  19.181  0.00  0.00    +0.000 A 
ATOM      5  C   UNL     1       2.022   7.030  20.299  0.00  0.00    +0.000 A 
ATOM      6  C   UNL     1       1.368   8.217  20.016  0.00  0.00    +0.000 A 
ENDROOT
BRANCH   4   7
ATOM      7  C   UNL     1       3.710   5.552  19.059  0.00  0.00    +0.000 C 
ATOM      8  O   UNL     1       4.830   5.566  19.573  0.00  0.00    +0.000 OA
ATOM      9  N   UNL     1       3.228   4.412  18.416  0.00  0.00    +0.000 N 
ATOM     10  C   UNL     1       1.866   4.194  17.911  0.00  0.00    +0.000 C 
ATOM     11  C   UNL     1       1.305   2.857  18.414  0.00  0.00    +0.000 C 
ATOM     12  O   UNL     1       2.196   1.767  18.138  0.00  0.00    +0.000 OA
ATOM     13  C   UNL     1       3.473   1.990  18.756  0.00  0.00    +0.000 C 
ATOM     14  C   UNL     1       4.120   3.269  18.220  0.00  0.00    +0.000 C 
ENDBRANCH   4   7
BRANCH   6  15
ATOM     15  C   UNL     1       0.392   8.968  20.780  0.00  0.00    +0.000 C 
ATOM     16  O   UNL     1      -0.351   8.425  21.589  0.00  0.00    +0.000 OA
ATOM     17  N   UNL     1       0.365  10.316  20.472  0.00  0.00    +0.000 N 
ATOM     18  H   UNL     1       0.927  10.625  19.689  0.00  0.00    +0.000 HD
BRANCH  17  19
ATOM     19  C   UNL     1      -0.505  11.305  20.989  0.00  0.00    +0.000 A 
ATOM     20  C   UNL     1      -0.428  11.778  22.300  0.00  0.00    +0.000 A 
ATOM     21  C   UNL     1      -1.359  12.706  22.774  0.00  0.00    +0.000 A 
ATOM     22  C   UNL     1      -2.370  13.171  21.936  0.00  0.00    +0.000 A 
ATOM     23 CL   UNL     1      -3.540  14.276  22.543  0.00  0.00    +0.000 Cl
ATOM     24  C   UNL     1      -2.443  12.744  20.614  0.00  0.00    +0.000 A 
ATOM     25  C   UNL     1      -1.505  11.823  20.142  0.00  0.00    +0.000 A 
ATOM     26 CL   UNL     1      -1.627  11.312  18.492  0.00  0.00    +0.000 Cl
ENDBRANCH  17  19
ENDBRANCH   6  15
TORSDOF 3
ENDMDL
MODEL 8
REMARK VINA RESULT:      -6.8      3.798      5.324
REMARK  Name = 
REMARK  4 active torsions:
REMARK  status: ('A' for Active; 'I' for Inactive)
REMARK    1  A    between atoms: C_1  and  N_2
REMARK    2  A    between atoms: C_4  and  C_5
REMARK    3  A    between atoms: C_14  and  C_15
REMARK    4  A    between atoms: N_17  and  C_18
REMARK                            x       y       z     vdW  Elec       q    Type
REMARK                         _______ _______ _______ _____ _____    ______ ____
ROOT
ATOM      1  C   UNL     1       2.235   3.440  21.573  0.00  0.00    +0.000 C 
ATOM      2  N   UNL     1       2.697   4.064  20.351  0.00  0.00    +0.000 N 
ATOM      3  N   UNL     1       3.578   3.391  19.592  0.00  0.00    +0.000 NA
ATOM      4  C   UNL     1       3.890   4.234  18.595  0.00  0.00    +0.000 A 
ATOM      5  C   UNL     1       3.114   5.417  18.699  0.00  0.00    +0.000 A 
ATOM      6  C   UNL     1       2.350   5.294  19.847  0.00  0.00    +0.000 A 
ENDROOT
BRANCH   4   7
ATOM      7  C   UNL     1       4.859   3.957  17.518  0.00  0.00    +0.000 C 
ATOM      8  O   UNL     1       4.597   3.089  16.683  0.00  0.00    +0.000 OA
ATOM      9  N   UNL     1       6.026   4.714  17.428  0.00  0.00    +0.000 N 
ATOM     10  C   UNL     1       6.384   5.882  18.243  0.00  0.00    +0.000 C 
ATOM     11  C   UNL     1       6.811   7.058  17.355  0.00  0.00    +0.000 C 
ATOM     12  O   UNL     1       7.833   6.679  16.423  0.00  0.00    +0.000 OA
ATOM     13  C   UNL     1       7.377   5.609  15.580  0.00  0.00    +0.000 C 
ATOM     14  C   UNL     1       7.022   4.376  16.412  0.00  0.00    +0.000 C 
ENDBRANCH   4   7
BRANCH   6  15
ATOM     15  C   UNL     1       1.401   6.202  20.458  0.00  0.00    +0.000 C 
ATOM     16  O   UNL     1       0.312   5.817  20.869  0.00  0.00    +0.000 OA
ATOM     17  N   UNL     1       1.829   7.517  20.486  0.00  0.00    +0.000 N 
ATOM     18  H   UNL     1       2.685   7.737  19.992  0.00  0.00    +0.000 HD
BRANCH  17  19
ATOM     19  C   UNL     1       1.121   8.648  20.954  0.00  0.00    +0.000 A 
ATOM     20  C   UNL     1       0.793   8.840  22.298  0.00  0.00    +0.000 A 
ATOM     21  C   UNL     1       0.032   9.945  22.691  0.00  0.00    +0.000 A 
ATOM     22  C   UNL     1      -0.401  10.867  21.741  0.00  0.00    +0.000 A 
ATOM     23 CL   UNL     1      -1.377  12.196  22.227  0.00  0.00    +0.000 Cl
ATOM     24  C   UNL     1      -0.053  10.718  20.403  0.00  0.00    +0.000 A 
ATOM     25  C   UNL     1       0.715   9.618  20.016  0.00  0.00    +0.000 A 
ATOM     26 CL   UNL     1       1.128   9.462  18.341  0.00  0.00    +0.000 Cl
ENDBRANCH  17  19
ENDBRANCH   6  15
TORSDOF 3
ENDMDL
MODEL 9
REMARK VINA RESULT:      -6.7      3.914      8.769
REMARK  Name = 
REMARK  4 active torsions:
REMARK  status: ('A' for Active; 'I' for Inactive)
REMARK    1  A    between atoms: C_1  and  N_2
REMARK    2  A    between atoms: C_4  and  C_5
REMARK    3  A    between atoms: C_14  and  C_15
REMARK    4  A    between atoms: N_17  and  C_18
REMARK                            x       y       z     vdW  Elec       q    Type
REMARK                         _______ _______ _______ _____ _____    ______ ____
ROOT
ATOM      1  C   UNL     1      -1.180  10.003  17.628  0.00  0.00    +0.000 C 
ATOM      2  N   UNL     1      -0.540  10.224  18.908  0.00  0.00    +0.000 N 
ATOM      3  N   UNL     1      -1.242  10.854  19.866  0.00  0.00    +0.000 NA
ATOM      4  C   UNL     1      -0.382  10.997  20.886  0.00  0.00    +0.000 A 
ATOM      5  C   UNL     1       0.848  10.362  20.578  0.00  0.00    +0.000 A 
ATOM      6  C   UNL     1       0.731   9.871  19.289  0.00  0.00    +0.000 A 
ENDROOT
BRANCH   4   7
ATOM      7  C   UNL     1      -0.683  11.671  22.163  0.00  0.00    +0.000 C 
ATOM      8  O   UNL     1      -0.494  11.067  23.221  0.00  0.00    +0.000 OA
ATOM      9  N   UNL     1      -1.121  12.995  22.158  0.00  0.00    +0.000 N 
ATOM     10  C   UNL     1      -1.227  13.884  20.994  0.00  0.00    +0.000 C 
ATOM     11  C   UNL     1      -0.533  15.225  21.267  0.00  0.00    +0.000 C 
ATOM     12  O   UNL     1      -0.993  15.826  22.485  0.00  0.00    +0.000 OA
ATOM     13  C   UNL     1      -0.756  14.951  23.600  0.00  0.00    +0.000 C 
ATOM     14  C   UNL     1      -1.502  13.628  23.420  0.00  0.00    +0.000 C 
ENDBRANCH   4   7
BRANCH   6  15
ATOM     15  C   UNL     1       1.679   9.160  18.454  0.00  0.00    +0.000 C 
ATOM     16  O   UNL     1       2.056   9.612  17.378  0.00  0.00    +0.000 OA
ATOM     17  N   UNL     1       2.065   7.937  18.969  0.00  0.00    +0.000 N 
ATOM     18  H   UNL     1       1.581   7.608  19.795  0.00  0.00    +0.000 HD
BRANCH  17  19
ATOM     19  C   UNL     1       2.922   6.979  18.377  0.00  0.00    +0.000 A 
ATOM     20  C   UNL     1       3.885   7.306  17.421  0.00  0.00    +0.000 A 
ATOM     21  C   UNL     1       4.656   6.306  16.821  0.00  0.00    +0.000 A 
ATOM     22  C   UNL     1       4.472   4.973  17.180  0.00  0.00    +0.000 A 
ATOM     23 CL   UNL     1       5.391   3.746  16.402  0.00  0.00    +0.000 Cl
ATOM     24  C   UNL     1       3.546   4.628  18.159  0.00  0.00    +0.000 A 
ATOM     25  C   UNL     1       2.784   5.631  18.762  0.00  0.00    +0.000 A 
ATOM     26 CL   UNL     1       1.639   5.165  19.975  0.00  0.00    +0.000 Cl
ENDBRANCH  17  19
ENDBRANCH   6  15
TORSDOF 3
ENDMDL
