MODEL 1
REMARK VINA RESULT:      -8.5      0.000      0.000
REMARK  Name = 
REMARK  7 active torsions:
REMARK  status: ('A' for Active; 'I' for Inactive)
REMARK    1  A    between atoms: C_1  and  C_2
REMARK    2  A    between atoms: C_2  and  C_3
REMARK    3  A    between atoms: C_2  and  N_4
REMARK    4  A    between atoms: C_8  and  C_9
REMARK    5  A    between atoms: C_12  and  O_13
REMARK    6  A    between atoms: O_13  and  C_14
REMARK    7  A    between atoms: C_14  and  C_15
REMARK                            x       y       z     vdW  Elec       q    Type
REMARK                         _______ _______ _______ _____ _____    ______ ____
ROOT
ATOM      1  N   UNL     1      -1.064  13.221  20.926  0.00  0.00    +0.000 N 
ATOM      2  C   UNL     1       0.323  13.299  20.841  0.00  0.00    +0.000 C 
ATOM      3  O   UNL     1       1.066  13.660  21.750  0.00  0.00    +0.000 OA
ATOM      4  N   UNL     1       0.892  13.011  19.645  0.00  0.00    +0.000 N 
ATOM      5  C   UNL     1       0.322  12.090  18.706  0.00  0.00    +0.000 C 
ATOM      6  C   UNL     1      -1.181  12.102  18.746  0.00  0.00    +0.000 A 
ATOM      7  C   UNL     1      -1.899  11.567  17.656  0.00  0.00    +0.000 A 
ATOM      8  C   UNL     1      -3.266  11.511  17.752  0.00  0.00    +0.000 A 
ATOM      9  C   UNL     1      -3.917  11.909  18.890  0.00  0.00    +0.000 A 
ATOM     10  C   UNL     1      -3.240  12.428  19.980  0.00  0.00    +0.000 A 
ATOM     11  C   UNL     1      -1.845  12.591  19.897  0.00  0.00    +0.000 A 
ATOM     12  O   UNL     1      -5.265  11.745  18.793  0.00  0.00    +0.000 OA
ATOM     13  C   UNL     1      -5.387  11.353  17.409  0.00  0.00    +0.000 C 
ATOM     14  O   UNL     1      -4.116  11.066  16.789  0.00  0.00    +0.000 OA
ATOM     15  H   UNL     1       1.900  13.051  19.687  0.00  0.00    +0.000 HD
ENDROOT
BRANCH   5  16
ATOM     16  C   UNL     1       0.909  10.709  18.943  0.00  0.00    +0.000 A 
ATOM     17  C   UNL     1       1.668  10.085  17.940  0.00  0.00    +0.000 A 
ATOM     18  C   UNL     1       2.167   8.802  18.118  0.00  0.00    +0.000 A 
ATOM     19  C   UNL     1       1.955   8.132  19.319  0.00  0.00    +0.000 A 
ATOM     20  C   UNL     1       1.192   8.733  20.321  0.00  0.00    +0.000 A 
ATOM     21  C   UNL     1       0.671  10.016  20.139  0.00  0.00    +0.000 A 
BRANCH  19  22
ATOM     22  O   UNL     1       2.453   6.892  19.609  0.00  0.00    +0.000 OA
BRANCH  22  23
ATOM     23  C   UNL     1       2.722   6.081  18.465  0.00  0.00    +0.000 C 
BRANCH  23  24
ATOM     24  C   UNL     1       2.216   4.690  18.737  0.00  0.00    +0.000 A 
ATOM     25  C   UNL     1       2.488   3.645  17.847  0.00  0.00    +0.000 A 
ATOM     26  C   UNL     1       2.008   2.365  18.118  0.00  0.00    +0.000 A 
ATOM     27  C   UNL     1       1.251   2.129  19.266  0.00  0.00    +0.000 A 
ATOM     28  C   UNL     1       0.968   3.168  20.148  0.00  0.00    +0.000 A 
ATOM     29  C   UNL     1       1.445   4.451  19.883  0.00  0.00    +0.000 A 
ENDBRANCH  23  24
ENDBRANCH  22  23
ENDBRANCH  19  22
ENDBRANCH   5  16
BRANCH   1  31
ATOM     30  C   UNL     1      -1.390  13.310  23.410  0.00  0.00    +0.000 C 
ATOM     31  C   UNL     1      -1.718  13.929  22.052  0.00  0.00    +0.000 C 
ATOM     32  C   UNL     1      -1.418  15.443  22.053  0.00  0.00    +0.000 C 
ENDBRANCH   1  31
TORSDOF 5
ENDMDL
MODEL 2
REMARK VINA RESULT:      -8.4      0.455      1.068
REMARK  Name = 
REMARK  7 active torsions:
REMARK  status: ('A' for Active; 'I' for Inactive)
REMARK    1  A    between atoms: C_1  and  C_2
REMARK    2  A    between atoms: C_2  and  C_3
REMARK    3  A    between atoms: C_2  and  N_4
REMARK    4  A    between atoms: C_8  and  C_9
REMARK    5  A    between atoms: C_12  and  O_13
REMARK    6  A    between atoms: O_13  and  C_14
REMARK    7  A    between atoms: C_14  and  C_15
REMARK                            x       y       z     vdW  Elec       q    Type
REMARK                         _______ _______ _______ _____ _____    ______ ____
ROOT
ATOM      1  N   UNL     1      -1.175  13.288  20.965  0.00  0.00    +0.000 N 
ATOM      2  C   UNL     1       0.211  13.358  20.856  0.00  0.00    +0.000 C 
ATOM      3  O   UNL     1       0.970  13.718  21.753  0.00  0.00    +0.000 OA
ATOM      4  N   UNL     1       0.758  13.065  19.653  0.00  0.00    +0.000 N 
ATOM      5  C   UNL     1       0.169  12.144  18.726  0.00  0.00    +0.000 C 
ATOM      6  C   UNL     1      -1.333  12.163  18.790  0.00  0.00    +0.000 A 
ATOM      7  C   UNL     1      -2.072  11.630  17.713  0.00  0.00    +0.000 A 
ATOM      8  C   UNL     1      -3.437  11.581  17.831  0.00  0.00    +0.000 A 
ATOM      9  C   UNL     1      -4.067  11.985  18.979  0.00  0.00    +0.000 A 
ATOM     10  C   UNL     1      -3.370  12.503  20.057  0.00  0.00    +0.000 A 
ATOM     11  C   UNL     1      -1.976  12.658  19.951  0.00  0.00    +0.000 A 
ATOM     12  O   UNL     1      -5.417  11.827  18.905  0.00  0.00    +0.000 OA
ATOM     13  C   UNL     1      -5.564  11.432  17.523  0.00  0.00    +0.000 C 
ATOM     14  O   UNL     1      -4.304  11.138  16.884  0.00  0.00    +0.000 OA
ATOM     15  H   UNL     1       1.767  13.099  19.678  0.00  0.00    +0.000 HD
ENDROOT
BRANCH   5  16
ATOM     16  C   UNL     1       0.753  10.761  18.956  0.00  0.00    +0.000 A 
ATOM     17  C   UNL     1       0.562  10.111  20.185  0.00  0.00    +0.000 A 
ATOM     18  C   UNL     1       1.134   8.870  20.432  0.00  0.00    +0.000 A 
ATOM     19  C   UNL     1       1.872   8.233  19.440  0.00  0.00    +0.000 A 
ATOM     20  C   UNL     1       2.082   8.870  18.217  0.00  0.00    +0.000 A 
ATOM     21  C   UNL     1       1.526  10.128  17.971  0.00  0.00    +0.000 A 
BRANCH  19  22
ATOM     22  O   UNL     1       2.425   6.989  19.568  0.00  0.00    +0.000 OA
BRANCH  22  23
ATOM     23  C   UNL     1       1.772   6.147  20.519  0.00  0.00    +0.000 C 
BRANCH  23  24
ATOM     24  C   UNL     1       1.669   4.763  19.938  0.00  0.00    +0.000 A 
ATOM     25  C   UNL     1       1.970   4.531  18.591  0.00  0.00    +0.000 A 
ATOM     26  C   UNL     1       1.865   3.241  18.073  0.00  0.00    +0.000 A 
ATOM     27  C   UNL     1       1.454   2.188  18.891  0.00  0.00    +0.000 A 
ATOM     28  C   UNL     1       1.142   2.417  20.229  0.00  0.00    +0.000 A 
ATOM     29  C   UNL     1       1.244   3.704  20.753  0.00  0.00    +0.000 A 
ENDBRANCH  23  24
ENDBRANCH  22  23
ENDBRANCH  19  22
ENDBRANCH   5  16
BRANCH   1  31
ATOM     30  C   UNL     1      -1.543  13.326  23.444  0.00  0.00    +0.000 C 
ATOM     31  C   UNL     1      -1.807  14.001  22.099  0.00  0.00    +0.000 C 
ATOM     32  C   UNL     1      -1.417  15.494  22.150  0.00  0.00    +0.000 C 
ENDBRANCH   1  31
TORSDOF 5
ENDMDL
MODEL 3
REMARK VINA RESULT:      -8.3      0.447      1.164
REMARK  Name = 
REMARK  7 active torsions:
REMARK  status: ('A' for Active; 'I' for Inactive)
REMARK    1  A    between atoms: C_1  and  C_2
REMARK    2  A    between atoms: C_2  and  C_3
REMARK    3  A    between atoms: C_2  and  N_4
REMARK    4  A    between atoms: C_8  and  C_9
REMARK    5  A    between atoms: C_12  and  O_13
REMARK    6  A    between atoms: O_13  and  C_14
REMARK    7  A    between atoms: C_14  and  C_15
REMARK                            x       y       z     vdW  Elec       q    Type
REMARK                         _______ _______ _______ _____ _____    ______ ____
ROOT
ATOM      1  N   UNL     1      -1.169  13.273  21.049  0.00  0.00    +0.000 N 
ATOM      2  C   UNL     1       0.222  13.322  21.021  0.00  0.00    +0.000 C 
ATOM      3  O   UNL     1       0.933  13.690  21.953  0.00  0.00    +0.000 OA
ATOM      4  N   UNL     1       0.834  12.994  19.858  0.00  0.00    +0.000 N 
ATOM      5  C   UNL     1       0.285  12.062  18.917  0.00  0.00    +0.000 C 
ATOM      6  C   UNL     1      -1.217  12.104  18.893  0.00  0.00    +0.000 A 
ATOM      7  C   UNL     1      -1.900  11.557  17.786  0.00  0.00    +0.000 A 
ATOM      8  C   UNL     1      -3.270  11.530  17.824  0.00  0.00    +0.000 A 
ATOM      9  C   UNL     1      -3.960  11.969  18.924  0.00  0.00    +0.000 A 
ATOM     10  C   UNL     1      -3.320  12.500  20.030  0.00  0.00    +0.000 A 
ATOM     11  C   UNL     1      -1.919  12.633  20.003  0.00  0.00    +0.000 A 
ATOM     12  O   UNL     1      -5.306  11.828  18.774  0.00  0.00    +0.000 OA
ATOM     13  C   UNL     1      -5.377  11.405  17.395  0.00  0.00    +0.000 C 
ATOM     14  O   UNL     1      -4.088  11.079  16.837  0.00  0.00    +0.000 OA
ATOM     15  H   UNL     1       1.840  13.015  19.942  0.00  0.00    +0.000 HD
ENDROOT
BRANCH   5  16
ATOM     16  C   UNL     1       0.834  10.676  19.211  0.00  0.00    +0.000 A 
ATOM     17  C   UNL     1       1.490   9.950  18.204  0.00  0.00    +0.000 A 
ATOM     18  C   UNL     1       1.950   8.661  18.439  0.00  0.00    +0.000 A 
ATOM     19  C   UNL     1       1.802   8.087  19.698  0.00  0.00    +0.000 A 
ATOM     20  C   UNL     1       1.140   8.789  20.705  0.00  0.00    +0.000 A 
ATOM     21  C   UNL     1       0.658  10.078  20.468  0.00  0.00    +0.000 A 
BRANCH  19  22
ATOM     22  O   UNL     1       2.270   6.849  20.040  0.00  0.00    +0.000 OA
BRANCH  22  23
ATOM     23  C   UNL     1       2.900   6.138  18.973  0.00  0.00    +0.000 C 
BRANCH  23  24
ATOM     24  C   UNL     1       2.321   4.751  18.918  0.00  0.00    +0.000 A 
ATOM     25  C   UNL     1       1.443   4.304  19.913  0.00  0.00    +0.000 A 
ATOM     26  C   UNL     1       0.921   3.014  19.843  0.00  0.00    +0.000 A 
ATOM     27  C   UNL     1       1.277   2.169  18.791  0.00  0.00    +0.000 A 
ATOM     28  C   UNL     1       2.158   2.606  17.806  0.00  0.00    +0.000 A 
ATOM     29  C   UNL     1       2.686   3.894  17.869  0.00  0.00    +0.000 A 
ENDBRANCH  23  24
ENDBRANCH  22  23
ENDBRANCH  19  22
ENDBRANCH   5  16
BRANCH   1  31
ATOM     30  C   UNL     1      -2.779  15.115  21.596  0.00  0.00    +0.000 C 
ATOM     31  C   UNL     1      -1.856  14.020  22.129  0.00  0.00    +0.000 C 
ATOM     32  C   UNL     1      -2.614  13.091  23.101  0.00  0.00    +0.000 C 
ENDBRANCH   1  31
TORSDOF 5
ENDMDL
MODEL 4
REMARK VINA RESULT:      -8.3      1.024      1.389
REMARK  Name = 
REMARK  7 active torsions:
REMARK  status: ('A' for Active; 'I' for Inactive)
REMARK    1  A    between atoms: C_1  and  C_2
REMARK    2  A    between atoms: C_2  and  C_3
REMARK    3  A    between atoms: C_2  and  N_4
REMARK    4  A    between atoms: C_8  and  C_9
REMARK    5  A    between atoms: C_12  and  O_13
REMARK    6  A    between atoms: O_13  and  C_14
REMARK    7  A    between atoms: C_14  and  C_15
REMARK                            x       y       z     vdW  Elec       q    Type
REMARK                         _______ _______ _______ _____ _____    ______ ____
ROOT
ATOM      1  N   UNL     1      -2.039  12.779  21.519  0.00  0.00    +0.000 N 
ATOM      2  C   UNL     1      -0.709  12.850  21.923  0.00  0.00    +0.000 C 
ATOM      3  O   UNL     1      -0.332  13.064  23.073  0.00  0.00    +0.000 OA
ATOM      4  N   UNL     1       0.242  12.733  20.965  0.00  0.00    +0.000 N 
ATOM      5  C   UNL     1       0.059  11.967  19.768  0.00  0.00    +0.000 C 
ATOM      6  C   UNL     1      -1.367  11.992  19.294  0.00  0.00    +0.000 A 
ATOM      7  C   UNL     1      -1.653  11.632  17.960  0.00  0.00    +0.000 A 
ATOM      8  C   UNL     1      -2.968  11.580  17.575  0.00  0.00    +0.000 A 
ATOM      9  C   UNL     1      -3.981  11.816  18.468  0.00  0.00    +0.000 A 
ATOM     10  C   UNL     1      -3.734  12.161  19.785  0.00  0.00    +0.000 A 
ATOM     11  C   UNL     1      -2.401  12.316  20.207  0.00  0.00    +0.000 A 
ATOM     12  O   UNL     1      -5.209  11.685  17.895  0.00  0.00    +0.000 OA
ATOM     13  C   UNL     1      -4.839  11.501  16.511  0.00  0.00    +0.000 C 
ATOM     14  O   UNL     1      -3.424  11.292  16.328  0.00  0.00    +0.000 OA
ATOM     15  H   UNL     1       1.173  12.753  21.353  0.00  0.00    +0.000 HD
ENDROOT
BRANCH   5  16
ATOM     16  C   UNL     1       0.583  10.558  19.992  0.00  0.00    +0.000 A 
ATOM     17  C   UNL     1       0.447   9.947  21.248  0.00  0.00    +0.000 A 
ATOM     18  C   UNL     1       0.968   8.682  21.485  0.00  0.00    +0.000 A 
ATOM     19  C   UNL     1       1.596   7.983  20.460  0.00  0.00    +0.000 A 
ATOM     20  C   UNL     1       1.751   8.581  19.208  0.00  0.00    +0.000 A 
ATOM     21  C   UNL     1       1.247   9.862  18.971  0.00  0.00    +0.000 A 
BRANCH  19  22
ATOM     22  O   UNL     1       2.089   6.713  20.581  0.00  0.00    +0.000 OA
BRANCH  22  23
ATOM     23  C   UNL     1       2.699   6.200  19.395  0.00  0.00    +0.000 C 
BRANCH  23  24
ATOM     24  C   UNL     1       2.180   4.809  19.156  0.00  0.00    +0.000 A 
ATOM     25  C   UNL     1       2.515   4.113  17.989  0.00  0.00    +0.000 A 
ATOM     26  C   UNL     1       2.021   2.826  17.787  0.00  0.00    +0.000 A 
ATOM     27  C   UNL     1       1.189   2.237  18.739  0.00  0.00    +0.000 A 
ATOM     28  C   UNL     1       0.843   2.930  19.896  0.00  0.00    +0.000 A 
ATOM     29  C   UNL     1       1.333   4.218  20.105  0.00  0.00    +0.000 A 
ENDBRANCH  23  24
ENDBRANCH  22  23
ENDBRANCH  19  22
ENDBRANCH   5  16
BRANCH   1  31
ATOM     30  C   UNL     1      -3.262  12.453  23.682  0.00  0.00    +0.000 C 
ATOM     31  C   UNL     1      -3.062  13.323  22.442  0.00  0.00    +0.000 C 
ATOM     32  C   UNL     1      -2.780  14.787  22.840  0.00  0.00    +0.000 C 
ENDBRANCH   1  31
TORSDOF 5
ENDMDL
MODEL 5
REMARK VINA RESULT:      -8.3      0.902      1.471
REMARK  Name = 
REMARK  7 active torsions:
REMARK  status: ('A' for Active; 'I' for Inactive)
REMARK    1  A    between atoms: C_1  and  C_2
REMARK    2  A    between atoms: C_2  and  C_3
REMARK    3  A    between atoms: C_2  and  N_4
REMARK    4  A    between atoms: C_8  and  C_9
REMARK    5  A    between atoms: C_12  and  O_13
REMARK    6  A    between atoms: O_13  and  C_14
REMARK    7  A    between atoms: C_14  and  C_15
REMARK                            x       y       z     vdW  Elec       q    Type
REMARK                         _______ _______ _______ _____ _____    ______ ____
ROOT
ATOM      1  N   UNL     1      -0.522  12.925  20.653  0.00  0.00    +0.000 N 
ATOM      2  C   UNL     1       0.862  12.783  20.628  0.00  0.00    +0.000 C 
ATOM      3  O   UNL     1       1.628  13.196  21.495  0.00  0.00    +0.000 OA
ATOM      4  N   UNL     1       1.410  12.196  19.536  0.00  0.00    +0.000 N 
ATOM      5  C   UNL     1       0.730  11.209  18.752  0.00  0.00    +0.000 C 
ATOM      6  C   UNL     1      -0.754  11.446  18.709  0.00  0.00    +0.000 A 
ATOM      7  C   UNL     1      -1.518  10.827  17.697  0.00  0.00    +0.000 A 
ATOM      8  C   UNL     1      -2.879  10.989  17.729  0.00  0.00    +0.000 A 
ATOM      9  C   UNL     1      -3.490  11.684  18.740  0.00  0.00    +0.000 A 
ATOM     10  C   UNL     1      -2.770  12.294  19.752  0.00  0.00    +0.000 A 
ATOM     11  C   UNL     1      -1.365  12.233  19.715  0.00  0.00    +0.000 A 
ATOM     12  O   UNL     1      -4.844  11.702  18.603  0.00  0.00    +0.000 OA
ATOM     13  C   UNL     1      -4.990  11.079  17.308  0.00  0.00    +0.000 C 
ATOM     14  O   UNL     1      -3.762  10.500  16.819  0.00  0.00    +0.000 OA
ATOM     15  H   UNL     1       2.411  12.096  19.624  0.00  0.00    +0.000 HD
ENDROOT
BRANCH   5  16
ATOM     16  C   UNL     1       1.093   9.826  19.266  0.00  0.00    +0.000 A 
ATOM     17  C   UNL     1       0.719   9.435  20.561  0.00  0.00    +0.000 A 
ATOM     18  C   UNL     1       1.088   8.195  21.066  0.00  0.00    +0.000 A 
ATOM     19  C   UNL     1       1.802   7.303  20.272  0.00  0.00    +0.000 A 
ATOM     20  C   UNL     1       2.193   7.681  18.987  0.00  0.00    +0.000 A 
ATOM     21  C   UNL     1       1.841   8.935  18.482  0.00  0.00    +0.000 A 
BRANCH  19  22
ATOM     22  O   UNL     1       2.162   6.043  20.660  0.00  0.00    +0.000 OA
BRANCH  22  23
ATOM     23  C   UNL     1       1.186   5.037  20.382  0.00  0.00    +0.000 C 
BRANCH  23  24
ATOM     24  C   UNL     1       1.800   4.018  19.462  0.00  0.00    +0.000 A 
ATOM     25  C   UNL     1       1.817   4.226  18.077  0.00  0.00    +0.000 A 
ATOM     26  C   UNL     1       2.389   3.267  17.244  0.00  0.00    +0.000 A 
ATOM     27  C   UNL     1       2.935   2.102  17.784  0.00  0.00    +0.000 A 
ATOM     28  C   UNL     1       2.910   1.887  19.160  0.00  0.00    +0.000 A 
ATOM     29  C   UNL     1       2.338   2.841  20.000  0.00  0.00    +0.000 A 
ENDBRANCH  23  24
ENDBRANCH  22  23
ENDBRANCH  19  22
ENDBRANCH   5  16
BRANCH   1  31
ATOM     30  C   UNL     1      -1.132  13.411  23.035  0.00  0.00    +0.000 C 
ATOM     31  C   UNL     1      -1.089  13.919  21.594  0.00  0.00    +0.000 C 
ATOM     32  C   UNL     1      -0.371  15.283  21.517  0.00  0.00    +0.000 C 
ENDBRANCH   1  31
TORSDOF 5
ENDMDL
MODEL 6
REMARK VINA RESULT:      -8.3      0.566      1.476
REMARK  Name = 
REMARK  7 active torsions:
REMARK  status: ('A' for Active; 'I' for Inactive)
REMARK    1  A    between atoms: C_1  and  C_2
REMARK    2  A    between atoms: C_2  and  C_3
REMARK    3  A    between atoms: C_2  and  N_4
REMARK    4  A    between atoms: C_8  and  C_9
REMARK    5  A    between atoms: C_12  and  O_13
REMARK    6  A    between atoms: O_13  and  C_14
REMARK    7  A    between atoms: C_14  and  C_15
REMARK                            x       y       z     vdW  Elec       q    Type
REMARK                         _______ _______ _______ _____ _____    ______ ____
ROOT
ATOM      1  N   UNL     1      -1.039  13.118  20.995  0.00  0.00    +0.000 N 
ATOM      2  C   UNL     1       0.345  13.210  20.887  0.00  0.00    +0.000 C 
ATOM      3  O   UNL     1       1.104  13.517  21.803  0.00  0.00    +0.000 OA
ATOM      4  N   UNL     1       0.891  13.003  19.665  0.00  0.00    +0.000 N 
ATOM      5  C   UNL     1       0.307  12.140  18.681  0.00  0.00    +0.000 C 
ATOM      6  C   UNL     1      -1.194  12.139  18.751  0.00  0.00    +0.000 A 
ATOM      7  C   UNL     1      -1.932  11.670  17.643  0.00  0.00    +0.000 A 
ATOM      8  C   UNL     1      -3.296  11.599  17.762  0.00  0.00    +0.000 A 
ATOM      9  C   UNL     1      -3.926  11.919  18.936  0.00  0.00    +0.000 A 
ATOM     10  C   UNL     1      -3.230  12.372  20.044  0.00  0.00    +0.000 A 
ATOM     11  C   UNL     1      -1.838  12.549  19.944  0.00  0.00    +0.000 A 
ATOM     12  O   UNL     1      -5.275  11.752  18.856  0.00  0.00    +0.000 OA
ATOM     13  C   UNL     1      -5.422  11.448  17.451  0.00  0.00    +0.000 C 
ATOM     14  O   UNL     1      -4.163  11.211  16.790  0.00  0.00    +0.000 OA
ATOM     15  H   UNL     1       1.899  13.046  19.689  0.00  0.00    +0.000 HD
ENDROOT
BRANCH   5  16
ATOM     16  C   UNL     1       0.907  10.751  18.816  0.00  0.00    +0.000 A 
ATOM     17  C   UNL     1       0.664   9.988  19.969  0.00  0.00    +0.000 A 
ATOM     18  C   UNL     1       1.247   8.739  20.134  0.00  0.00    +0.000 A 
ATOM     19  C   UNL     1       2.050   8.206  19.129  0.00  0.00    +0.000 A 
ATOM     20  C   UNL     1       2.311   8.956  17.982  0.00  0.00    +0.000 A 
ATOM     21  C   UNL     1       1.743  10.223  17.822  0.00  0.00    +0.000 A 
BRANCH  19  22
ATOM     22  O   UNL     1       2.620   6.965  19.175  0.00  0.00    +0.000 OA
BRANCH  22  23
ATOM     23  C   UNL     1       2.199   6.160  20.277  0.00  0.00    +0.000 C 
BRANCH  23  24
ATOM     24  C   UNL     1       1.818   4.801  19.756  0.00  0.00    +0.000 A 
ATOM     25  C   UNL     1       1.221   3.856  20.599  0.00  0.00    +0.000 A 
ATOM     26  C   UNL     1       0.879   2.602  20.096  0.00  0.00    +0.000 A 
ATOM     27  C   UNL     1       1.137   2.287  18.761  0.00  0.00    +0.000 A 
ATOM     28  C   UNL     1       1.741   3.221  17.923  0.00  0.00    +0.000 A 
ATOM     29  C   UNL     1       2.087   4.476  18.419  0.00  0.00    +0.000 A 
ENDBRANCH  23  24
ENDBRANCH  22  23
ENDBRANCH  19  22
ENDBRANCH   5  16
BRANCH   1  31
ATOM     30  C   UNL     1      -2.657  14.855  21.799  0.00  0.00    +0.000 C 
ATOM     31  C   UNL     1      -1.675  13.747  22.176  0.00  0.00    +0.000 C 
ATOM     32  C   UNL     1      -2.346  12.715  23.107  0.00  0.00    +0.000 C 
ENDBRANCH   1  31
TORSDOF 5
ENDMDL
MODEL 7
REMARK VINA RESULT:      -8.2      1.113      1.839
REMARK  Name = 
REMARK  7 active torsions:
REMARK  status: ('A' for Active; 'I' for Inactive)
REMARK    1  A    between atoms: C_1  and  C_2
REMARK    2  A    between atoms: C_2  and  C_3
REMARK    3  A    between atoms: C_2  and  N_4
REMARK    4  A    between atoms: C_8  and  C_9
REMARK    5  A    between atoms: C_12  and  O_13
REMARK    6  A    between atoms: O_13  and  C_14
REMARK    7  A    between atoms: C_14  and  C_15
REMARK                            x       y       z     vdW  Elec       q    Type
REMARK                         _______ _______ _______ _____ _____    ______ ____
ROOT
ATOM      1  N   UNL     1      -2.026  13.128  21.753  0.00  0.00    +0.000 N 
ATOM      2  C   UNL     1      -0.664  13.182  22.035  0.00  0.00    +0.000 C 
ATOM      3  O   UNL     1      -0.182  13.453  23.132  0.00  0.00    +0.000 OA
ATOM      4  N   UNL     1       0.195  12.980  21.007  0.00  0.00    +0.000 N 
ATOM      5  C   UNL     1      -0.112  12.150  19.880  0.00  0.00    +0.000 C 
ATOM      6  C   UNL     1      -1.574  12.190  19.531  0.00  0.00    +0.000 A 
ATOM      7  C   UNL     1      -1.985  11.760  18.252  0.00  0.00    +0.000 A 
ATOM      8  C   UNL     1      -3.330  11.725  17.986  0.00  0.00    +0.000 A 
ATOM      9  C   UNL     1      -4.254  12.045  18.947  0.00  0.00    +0.000 A 
ATOM     10  C   UNL     1      -3.883  12.459  20.214  0.00  0.00    +0.000 A 
ATOM     11  C   UNL     1      -2.514  12.598  20.508  0.00  0.00    +0.000 A 
ATOM     12  O   UNL     1      -5.530  11.917  18.492  0.00  0.00    +0.000 OA
ATOM     13  C   UNL     1      -5.290  11.640  17.095  0.00  0.00    +0.000 C 
ATOM     14  O   UNL     1      -3.901  11.378  16.803  0.00  0.00    +0.000 OA
ATOM     15  H   UNL     1       1.157  12.994  21.311  0.00  0.00    +0.000 HD
ENDROOT
BRANCH   5  16
ATOM     16  C   UNL     1       0.394  10.742  20.144  0.00  0.00    +0.000 A 
ATOM     17  C   UNL     1       0.254  10.170  21.418  0.00  0.00    +0.000 A 
ATOM     18  C   UNL     1       0.758   8.905  21.691  0.00  0.00    +0.000 A 
ATOM     19  C   UNL     1       1.375   8.168  20.685  0.00  0.00    +0.000 A 
ATOM     20  C   UNL     1       1.535   8.727  19.417  0.00  0.00    +0.000 A 
ATOM     21  C   UNL     1       1.046  10.007  19.143  0.00  0.00    +0.000 A 
BRANCH  19  22
ATOM     22  O   UNL     1       1.852   6.897  20.843  0.00  0.00    +0.000 OA
BRANCH  22  23
ATOM     23  C   UNL     1       2.577   6.394  19.720  0.00  0.00    +0.000 C 
BRANCH  23  24
ATOM     24  C   UNL     1       2.036   5.033  19.373  0.00  0.00    +0.000 A 
ATOM     25  C   UNL     1       1.310   4.294  20.314  0.00  0.00    +0.000 A 
ATOM     26  C   UNL     1       0.821   3.035  19.972  0.00  0.00    +0.000 A 
ATOM     27  C   UNL     1       1.060   2.510  18.702  0.00  0.00    +0.000 A 
ATOM     28  C   UNL     1       1.792   3.238  17.767  0.00  0.00    +0.000 A 
ATOM     29  C   UNL     1       2.286   4.497  18.102  0.00  0.00    +0.000 A 
ENDBRANCH  23  24
ENDBRANCH  22  23
ENDBRANCH  19  22
ENDBRANCH   5  16
BRANCH   1  31
ATOM     30  C   UNL     1      -3.846  14.817  22.089  0.00  0.00    +0.000 C 
ATOM     31  C   UNL     1      -2.950  13.756  22.726  0.00  0.00    +0.000 C 
ATOM     32  C   UNL     1      -3.793  12.717  23.495  0.00  0.00    +0.000 C 
ENDBRANCH   1  31
TORSDOF 5
ENDMDL
MODEL 8
REMARK VINA RESULT:      -8.2      1.484      2.017
REMARK  Name = 
REMARK  7 active torsions:
REMARK  status: ('A' for Active; 'I' for Inactive)
REMARK    1  A    between atoms: C_1  and  C_2
REMARK    2  A    between atoms: C_2  and  C_3
REMARK    3  A    between atoms: C_2  and  N_4
REMARK    4  A    between atoms: C_8  and  C_9
REMARK    5  A    between atoms: C_12  and  O_13
REMARK    6  A    between atoms: O_13  and  C_14
REMARK    7  A    between atoms: C_14  and  C_15
REMARK                            x       y       z     vdW  Elec       q    Type
REMARK                         _______ _______ _______ _____ _____    ______ ____
ROOT
ATOM      1  N   UNL     1      -2.849  13.103  22.353  0.00  0.00    +0.000 N 
ATOM      2  C   UNL     1      -1.497  13.254  22.649  0.00  0.00    +0.000 C 
ATOM      3  O   UNL     1      -1.042  13.482  23.767  0.00  0.00    +0.000 OA
ATOM      4  N   UNL     1      -0.623  13.203  21.616  0.00  0.00    +0.000 N 
ATOM      5  C   UNL     1      -0.855  12.436  20.427  0.00  0.00    +0.000 C 
ATOM      6  C   UNL     1      -2.314  12.377  20.071  0.00  0.00    +0.000 A 
ATOM      7  C   UNL     1      -2.686  12.011  18.760  0.00  0.00    +0.000 A 
ATOM      8  C   UNL     1      -4.022  11.881  18.482  0.00  0.00    +0.000 A 
ATOM      9  C   UNL     1      -4.971  12.046  19.457  0.00  0.00    +0.000 A 
ATOM     10  C   UNL     1      -4.639  12.396  20.755  0.00  0.00    +0.000 A 
ATOM     11  C   UNL     1      -3.288  12.629  21.069  0.00  0.00    +0.000 A 
ATOM     12  O   UNL     1      -6.232  11.844  18.984  0.00  0.00    +0.000 OA
ATOM     13  C   UNL     1      -5.966  11.694  17.572  0.00  0.00    +0.000 C 
ATOM     14  O   UNL     1      -4.560  11.575  17.273  0.00  0.00    +0.000 OA
ATOM     15  H   UNL     1       0.335  13.277  21.927  0.00  0.00    +0.000 HD
ENDROOT
BRANCH   5  16
ATOM     16  C   UNL     1      -0.230  11.061  20.590  0.00  0.00    +0.000 A 
ATOM     17  C   UNL     1       0.608  10.545  19.589  0.00  0.00    +0.000 A 
ATOM     18  C   UNL     1       1.145   9.269  19.696  0.00  0.00    +0.000 A 
ATOM     19  C   UNL     1       0.891   8.499  20.826  0.00  0.00    +0.000 A 
ATOM     20  C   UNL     1       0.050   8.991  21.825  0.00  0.00    +0.000 A 
ATOM     21  C   UNL     1      -0.509  10.267  21.712  0.00  0.00    +0.000 A 
BRANCH  19  22
ATOM     22  O   UNL     1       1.419   7.257  21.047  0.00  0.00    +0.000 OA
BRANCH  22  23
ATOM     23  C   UNL     1       2.360   6.831  20.062  0.00  0.00    +0.000 C 
BRANCH  23  24
ATOM     24  C   UNL     1       1.976   5.451  19.601  0.00  0.00    +0.000 A 
ATOM     25  C   UNL     1       1.429   4.526  20.499  0.00  0.00    +0.000 A 
ATOM     26  C   UNL     1       1.082   3.253  20.050  0.00  0.00    +0.000 A 
ATOM     27  C   UNL     1       1.287   2.898  18.716  0.00  0.00    +0.000 A 
ATOM     28  C   UNL     1       1.841   3.812  17.824  0.00  0.00    +0.000 A 
ATOM     29  C   UNL     1       2.191   5.087  18.265  0.00  0.00    +0.000 A 
ENDBRANCH  23  24
ENDBRANCH  22  23
ENDBRANCH  19  22
ENDBRANCH   5  16
BRANCH   1  31
ATOM     30  C   UNL     1      -4.003  12.592  24.518  0.00  0.00    +0.000 C 
ATOM     31  C   UNL     1      -3.825  13.576  23.363  0.00  0.00    +0.000 C 
ATOM     32  C   UNL     1      -3.491  14.987  23.893  0.00  0.00    +0.000 C 
ENDBRANCH   1  31
TORSDOF 5
ENDMDL
MODEL 9
REMARK VINA RESULT:      -8.1      1.343      1.714
REMARK  Name = 
REMARK  7 active torsions:
REMARK  status: ('A' for Active; 'I' for Inactive)
REMARK    1  A    between atoms: C_1  and  C_2
REMARK    2  A    between atoms: C_2  and  C_3
REMARK    3  A    between atoms: C_2  and  N_4
REMARK    4  A    between atoms: C_8  and  C_9
REMARK    5  A    between atoms: C_12  and  O_13
REMARK    6  A    between atoms: O_13  and  C_14
REMARK    7  A    between atoms: C_14  and  C_15
REMARK                            x       y       z     vdW  Elec       q    Type
REMARK                         _______ _______ _______ _____ _____    ______ ____
ROOT
ATOM      1  N   UNL     1      -1.548  12.233  20.726  0.00  0.00    +0.000 N 
ATOM      2  C   UNL     1      -0.259  12.251  21.250  0.00  0.00    +0.000 C 
ATOM      3  O   UNL     1       0.031  12.578  22.398  0.00  0.00    +0.000 OA
ATOM      4  N   UNL     1       0.760  11.941  20.411  0.00  0.00    +0.000 N 
ATOM      5  C   UNL     1       0.617  11.047  19.300  0.00  0.00    +0.000 C 
ATOM      6  C   UNL     1      -0.753  11.124  18.687  0.00  0.00    +0.000 A 
ATOM      7  C   UNL     1      -0.950  10.623  17.383  0.00  0.00    +0.000 A 
ATOM      8  C   UNL     1      -2.225  10.626  16.878  0.00  0.00    +0.000 A 
ATOM      9  C   UNL     1      -3.288  11.050  17.631  0.00  0.00    +0.000 A 
ATOM     10  C   UNL     1      -3.130  11.537  18.917  0.00  0.00    +0.000 A 
ATOM     11  C   UNL     1      -1.831  11.639  19.448  0.00  0.00    +0.000 A 
ATOM     12  O   UNL     1      -4.467  10.944  16.959  0.00  0.00    +0.000 OA
ATOM     13  C   UNL     1      -3.993  10.560  15.649  0.00  0.00    +0.000 C 
ATOM     14  O   UNL     1      -2.591  10.220  15.634  0.00  0.00    +0.000 OA
ATOM     15  H   UNL     1       1.651  11.937  20.886  0.00  0.00    +0.000 HD
ENDROOT
BRANCH   5  16
ATOM     16  C   UNL     1       0.991   9.641  19.739  0.00  0.00    +0.000 A 
ATOM     17  C   UNL     1       1.831   8.853  18.938  0.00  0.00    +0.000 A 
ATOM     18  C   UNL     1       2.140   7.548  19.296  0.00  0.00    +0.000 A 
ATOM     19  C   UNL     1       1.651   7.018  20.486  0.00  0.00    +0.000 A 
ATOM     20  C   UNL     1       0.803   7.783  21.288  0.00  0.00    +0.000 A 
ATOM     21  C   UNL     1       0.473   9.090  20.921  0.00  0.00    +0.000 A 
BRANCH  19  22
ATOM     22  O   UNL     1       1.944   5.766  20.951  0.00  0.00    +0.000 OA
BRANCH  22  23
ATOM     23  C   UNL     1       1.103   4.732  20.437  0.00  0.00    +0.000 C 
BRANCH  23  24
ATOM     24  C   UNL     1       1.942   3.809  19.596  0.00  0.00    +0.000 A 
ATOM     25  C   UNL     1       1.583   3.525  18.273  0.00  0.00    +0.000 A 
ATOM     26  C   UNL     1       2.374   2.665  17.514  0.00  0.00    +0.000 A 
ATOM     27  C   UNL     1       3.512   2.082  18.072  0.00  0.00    +0.000 A 
ATOM     28  C   UNL     1       3.865   2.352  19.391  0.00  0.00    +0.000 A 
ATOM     29  C   UNL     1       3.079   3.211  20.157  0.00  0.00    +0.000 A 
ENDBRANCH  23  24
ENDBRANCH  22  23
ENDBRANCH  19  22
ENDBRANCH   5  16
BRANCH   1  31
ATOM     30  C   UNL     1      -2.898  12.345  22.836  0.00  0.00    +0.000 C 
ATOM     31  C   UNL     1      -2.597  12.967  21.473  0.00  0.00    +0.000 C 
ATOM     32  C   UNL     1      -2.279  14.470  21.616  0.00  0.00    +0.000 C 
ENDBRANCH   1  31
TORSDOF 5
ENDMDL
