MODEL 1
REMARK VINA RESULT:      -7.5      0.000      0.000
REMARK  Name = 
REMARK  13 active torsions:
REMARK  status: ('A' for Active; 'I' for Inactive)
REMARK    1  A    between atoms: C_1  and  O_2
REMARK    2  A    between atoms: O_2  and  C_3
REMARK    3  A    between atoms: C_5  and  C_6
REMARK    4  A    between atoms: C_9  and  S_10
REMARK    5  A    between atoms: S_10  and  C_11
REMARK    6  A    between atoms: C_11  and  C_12
REMARK    7  A    between atoms: C_12  and  O_13
REMARK    8  A    between atoms: O_13  and  C_14
REMARK    9  A    between atoms: C_20  and  C_21
REMARK   10  A    between atoms: C_24  and  O_25
REMARK   11  A    between atoms: O_25  and  C_26
REMARK   12  A    between atoms: C_27  and  O_28
REMARK   13  A    between atoms: O_28  and  C_29
REMARK                            x       y       z     vdW  Elec       q    Type
REMARK                         _______ _______ _______ _____ _____    ______ ____
ROOT
ATOM      1  C   UNL     1       3.679   3.767  17.051  0.00  0.00    +0.000 A 
ATOM      2  N   UNL     1       2.437   3.518  16.689  0.00  0.00    +0.000 NA
ATOM      3  N   UNL     1       1.749   3.223  17.842  0.00  0.00    +0.000 NA
ATOM      4  C   UNL     1       2.615   3.312  18.831  0.00  0.00    +0.000 A 
ATOM      5  O   UNL     1       3.871   3.643  18.400  0.00  0.00    +0.000 OA
ENDROOT
BRANCH   1   8
ATOM      6  C   UNL     1       6.776   5.661  16.095  0.00  0.00    +0.000 A 
ATOM      7  C   UNL     1       5.585   5.285  16.736  0.00  0.00    +0.000 A 
ATOM      8  C   UNL     1       4.794   4.247  16.247  0.00  0.00    +0.000 A 
ATOM      9  C   UNL     1       5.148   3.666  15.030  0.00  0.00    +0.000 A 
ATOM     10  C   UNL     1       6.287   4.085  14.319  0.00  0.00    +0.000 A 
ATOM     11  C   UNL     1       7.124   5.094  14.849  0.00  0.00    +0.000 A 
BRANCH   6  13
ATOM     12  C   UNL     1       7.565   6.625  18.111  0.00  0.00    +0.000 C 
ATOM     13  O   UNL     1       7.584   6.602  16.680  0.00  0.00    +0.000 OA
ENDBRANCH   6  13
BRANCH  10  14
ATOM     14  O   UNL     1       6.422   3.377  13.150  0.00  0.00    +0.000 OA
ATOM     15  C   UNL     1       5.327   3.283  12.253  0.00  0.00    +0.000 C 
ENDBRANCH  10  14
BRANCH  11  16
ATOM     16  O   UNL     1       8.215   5.427  14.095  0.00  0.00    +0.000 OA
ATOM     17  C   UNL     1       8.083   5.753  12.722  0.00  0.00    +0.000 C 
ENDBRANCH  11  16
ENDBRANCH   1   8
BRANCH   4  18
ATOM     18  S   UNL     1       2.231   3.006  20.495  0.00  0.00    +0.000 S 
BRANCH  18  19
ATOM     19  C   UNL     1       2.314   4.704  21.160  0.00  0.00    +0.000 C 
BRANCH  19  20
ATOM     20  C   UNL     1       1.652   5.701  20.209  0.00  0.00    +0.000 C 
BRANCH  20  21
ATOM     21  O   UNL     1       2.480   6.856  20.073  0.00  0.00    +0.000 OA
BRANCH  21  22
ATOM     22  C   UNL     1       1.851   8.041  19.783  0.00  0.00    +0.000 A 
ATOM     23  C   UNL     1       1.937   8.395  18.425  0.00  0.00    +0.000 A 
ATOM     24  C   UNL     1       1.435   9.612  17.959  0.00  0.00    +0.000 A 
ATOM     25  C   UNL     1       0.847  10.494  18.855  0.00  0.00    +0.000 A 
ATOM     26 CL   UNL     1       0.260  12.017  18.311  0.00  0.00    +0.000 Cl
ATOM     27  C   UNL     1       0.749  10.158  20.202  0.00  0.00    +0.000 A 
ATOM     28  C   UNL     1       1.255   8.935  20.692  0.00  0.00    +0.000 A 
ATOM     29  C   UNL     1       1.140   8.708  22.172  0.00  0.00    +0.000 C 
ENDBRANCH  21  22
ENDBRANCH  20  21
ENDBRANCH  19  20
ENDBRANCH  18  19
ENDBRANCH   4  18
TORSDOF 9
ENDMDL
MODEL 2
REMARK VINA RESULT:      -7.4      0.868      2.906
REMARK  Name = 
REMARK  13 active torsions:
REMARK  status: ('A' for Active; 'I' for Inactive)
REMARK    1  A    between atoms: C_1  and  O_2
REMARK    2  A    between atoms: O_2  and  C_3
REMARK    3  A    between atoms: C_5  and  C_6
REMARK    4  A    between atoms: C_9  and  S_10
REMARK    5  A    between atoms: S_10  and  C_11
REMARK    6  A    between atoms: C_11  and  C_12
REMARK    7  A    between atoms: C_12  and  O_13
REMARK    8  A    between atoms: O_13  and  C_14
REMARK    9  A    between atoms: C_20  and  C_21
REMARK   10  A    between atoms: C_24  and  O_25
REMARK   11  A    between atoms: O_25  and  C_26
REMARK   12  A    between atoms: C_27  and  O_28
REMARK   13  A    between atoms: O_28  and  C_29
REMARK                            x       y       z     vdW  Elec       q    Type
REMARK                         _______ _______ _______ _____ _____    ______ ____
ROOT
ATOM      1  C   UNL     1       3.741   3.632  17.108  0.00  0.00    +0.000 A 
ATOM      2  N   UNL     1       2.564   3.280  16.633  0.00  0.00    +0.000 NA
ATOM      3  N   UNL     1       1.747   3.093  17.723  0.00  0.00    +0.000 NA
ATOM      4  C   UNL     1       2.477   3.343  18.790  0.00  0.00    +0.000 A 
ATOM      5  O   UNL     1       3.766   3.681  18.474  0.00  0.00    +0.000 OA
ENDROOT
BRANCH   1   8
ATOM      6  C   UNL     1       6.266   3.964  14.350  0.00  0.00    +0.000 A 
ATOM      7  C   UNL     1       5.244   3.463  15.172  0.00  0.00    +0.000 A 
ATOM      8  C   UNL     1       4.931   4.065  16.389  0.00  0.00    +0.000 A 
ATOM      9  C   UNL     1       5.740   5.109  16.835  0.00  0.00    +0.000 A 
ATOM     10  C   UNL     1       6.828   5.573  16.074  0.00  0.00    +0.000 A 
ATOM     11  C   UNL     1       7.105   5.004  14.810  0.00  0.00    +0.000 A 
BRANCH   6  13
ATOM     12  C   UNL     1       5.290   3.347  12.281  0.00  0.00    +0.000 C 
ATOM     13  O   UNL     1       6.456   3.416  13.107  0.00  0.00    +0.000 OA
ENDBRANCH   6  13
BRANCH  10  14
ATOM     14  O   UNL     1       7.478   6.595  16.722  0.00  0.00    +0.000 OA
ATOM     15  C   UNL     1       7.609   6.563  18.135  0.00  0.00    +0.000 C 
ENDBRANCH  10  14
BRANCH  11  16
ATOM     16  O   UNL     1       8.174   5.527  14.137  0.00  0.00    +0.000 OA
ATOM     17  C   UNL     1       8.143   5.694  12.730  0.00  0.00    +0.000 C 
ENDBRANCH  11  16
ENDBRANCH   1   8
BRANCH   4  18
ATOM     18  S   UNL     1       1.899   3.222  20.420  0.00  0.00    +0.000 S 
BRANCH  18  19
ATOM     19  C   UNL     1       1.127   4.866  20.610  0.00  0.00    +0.000 C 
BRANCH  19  20
ATOM     20  C   UNL     1       2.185   5.951  20.816  0.00  0.00    +0.000 C 
BRANCH  20  21
ATOM     21  O   UNL     1       2.057   6.945  19.799  0.00  0.00    +0.000 OA
BRANCH  21  22
ATOM     22  C   UNL     1       1.569   8.168  20.186  0.00  0.00    +0.000 A 
ATOM     23  C   UNL     1       1.317   8.253  21.566  0.00  0.00    +0.000 A 
ATOM     24  C   UNL     1       0.731   9.389  22.129  0.00  0.00    +0.000 A 
ATOM     25  C   UNL     1       0.384  10.453  21.309  0.00  0.00    +0.000 A 
ATOM     26 CL   UNL     1      -0.377  11.845  21.974  0.00  0.00    +0.000 Cl
ATOM     27  C   UNL     1       0.631  10.389  19.940  0.00  0.00    +0.000 A 
ATOM     28  C   UNL     1       1.216   9.247  19.354  0.00  0.00    +0.000 A 
ATOM     29  C   UNL     1       1.383   9.273  17.862  0.00  0.00    +0.000 C 
ENDBRANCH  21  22
ENDBRANCH  20  21
ENDBRANCH  19  20
ENDBRANCH  18  19
ENDBRANCH   4  18
TORSDOF 9
ENDMDL
MODEL 3
REMARK VINA RESULT:      -7.4      4.012      6.415
REMARK  Name = 
REMARK  13 active torsions:
REMARK  status: ('A' for Active; 'I' for Inactive)
REMARK    1  A    between atoms: C_1  and  O_2
REMARK    2  A    between atoms: O_2  and  C_3
REMARK    3  A    between atoms: C_5  and  C_6
REMARK    4  A    between atoms: C_9  and  S_10
REMARK    5  A    between atoms: S_10  and  C_11
REMARK    6  A    between atoms: C_11  and  C_12
REMARK    7  A    between atoms: C_12  and  O_13
REMARK    8  A    between atoms: O_13  and  C_14
REMARK    9  A    between atoms: C_20  and  C_21
REMARK   10  A    between atoms: C_24  and  O_25
REMARK   11  A    between atoms: O_25  and  C_26
REMARK   12  A    between atoms: C_27  and  O_28
REMARK   13  A    between atoms: O_28  and  C_29
REMARK                            x       y       z     vdW  Elec       q    Type
REMARK                         _______ _______ _______ _____ _____    ______ ____
ROOT
ATOM      1  C   UNL     1       2.187   7.794  18.467  0.00  0.00    +0.000 A 
ATOM      2  N   UNL     1       2.345   8.662  17.488  0.00  0.00    +0.000 NA
ATOM      3  N   UNL     1       1.850   9.859  17.949  0.00  0.00    +0.000 NA
ATOM      4  C   UNL     1       1.424   9.644  19.177  0.00  0.00    +0.000 A 
ATOM      5  O   UNL     1       1.595   8.344  19.571  0.00  0.00    +0.000 OA
ENDROOT
BRANCH   1   8
ATOM      6  C   UNL     1       4.385   4.779  18.054  0.00  0.00    +0.000 A 
ATOM      7  C   UNL     1       3.791   6.036  17.858  0.00  0.00    +0.000 A 
ATOM      8  C   UNL     1       2.647   6.415  18.557  0.00  0.00    +0.000 A 
ATOM      9  C   UNL     1       2.028   5.468  19.371  0.00  0.00    +0.000 A 
ATOM     10  C   UNL     1       2.549   4.170  19.515  0.00  0.00    +0.000 A 
ATOM     11  C   UNL     1       3.746   3.807  18.856  0.00  0.00    +0.000 A 
BRANCH   6  13
ATOM     12  C   UNL     1       5.612   4.734  16.028  0.00  0.00    +0.000 C 
ATOM     13  O   UNL     1       5.578   4.497  17.438  0.00  0.00    +0.000 OA
ENDBRANCH   6  13
BRANCH  10  14
ATOM     14  O   UNL     1       1.763   3.418  20.354  0.00  0.00    +0.000 OA
ATOM     15  C   UNL     1       2.110   3.298  21.725  0.00  0.00    +0.000 C 
ENDBRANCH  10  14
BRANCH  11  16
ATOM     16  O   UNL     1       4.183   2.529  19.066  0.00  0.00    +0.000 OA
ATOM     17  C   UNL     1       3.647   1.442  18.331  0.00  0.00    +0.000 C 
ENDBRANCH  11  16
ENDBRANCH   1   8
BRANCH   4  18
ATOM     18  S   UNL     1       0.688  10.852  20.181  0.00  0.00    +0.000 S 
BRANCH  18  19
ATOM     19  C   UNL     1       0.813  12.303  19.081  0.00  0.00    +0.000 C 
BRANCH  19  20
ATOM     20  C   UNL     1      -0.567  12.747  18.595  0.00  0.00    +0.000 C 
BRANCH  20  21
ATOM     21  O   UNL     1      -1.147  11.718  17.793  0.00  0.00    +0.000 OA
BRANCH  21  22
ATOM     22  C   UNL     1      -2.518  11.655  17.761  0.00  0.00    +0.000 A 
ATOM     23  C   UNL     1      -3.118  12.030  18.976  0.00  0.00    +0.000 A 
ATOM     24  C   UNL     1      -4.499  11.940  19.162  0.00  0.00    +0.000 A 
ATOM     25  C   UNL     1      -5.295  11.463  18.130  0.00  0.00    +0.000 A 
ATOM     26 CL   UNL     1      -6.994  11.303  18.351  0.00  0.00    +0.000 Cl
ATOM     27  C   UNL     1      -4.719  11.091  16.918  0.00  0.00    +0.000 A 
ATOM     28  C   UNL     1      -3.325  11.170  16.715  0.00  0.00    +0.000 A 
ATOM     29  C   UNL     1      -2.815  10.690  15.387  0.00  0.00    +0.000 C 
ENDBRANCH  21  22
ENDBRANCH  20  21
ENDBRANCH  19  20
ENDBRANCH  18  19
ENDBRANCH   4  18
TORSDOF 9
ENDMDL
MODEL 4
REMARK VINA RESULT:      -7.3      0.611      1.381
REMARK  Name = 
REMARK  13 active torsions:
REMARK  status: ('A' for Active; 'I' for Inactive)
REMARK    1  A    between atoms: C_1  and  O_2
REMARK    2  A    between atoms: O_2  and  C_3
REMARK    3  A    between atoms: C_5  and  C_6
REMARK    4  A    between atoms: C_9  and  S_10
REMARK    5  A    between atoms: S_10  and  C_11
REMARK    6  A    between atoms: C_11  and  C_12
REMARK    7  A    between atoms: C_12  and  O_13
REMARK    8  A    between atoms: O_13  and  C_14
REMARK    9  A    between atoms: C_20  and  C_21
REMARK   10  A    between atoms: C_24  and  O_25
REMARK   11  A    between atoms: O_25  and  C_26
REMARK   12  A    between atoms: C_27  and  O_28
REMARK   13  A    between atoms: O_28  and  C_29
REMARK                            x       y       z     vdW  Elec       q    Type
REMARK                         _______ _______ _______ _____ _____    ______ ____
ROOT
ATOM      1  C   UNL     1       3.985   3.504  17.145  0.00  0.00    +0.000 A 
ATOM      2  N   UNL     1       2.783   3.043  16.865  0.00  0.00    +0.000 NA
ATOM      3  N   UNL     1       2.199   2.730  18.069  0.00  0.00    +0.000 NA
ATOM      4  C   UNL     1       3.081   3.020  19.004  0.00  0.00    +0.000 A 
ATOM      5  O   UNL     1       4.251   3.508  18.486  0.00  0.00    +0.000 OA
ENDROOT
BRANCH   1   8
ATOM      6  C   UNL     1       6.861   5.614  15.974  0.00  0.00    +0.000 A 
ATOM      7  C   UNL     1       5.770   5.138  16.718  0.00  0.00    +0.000 A 
ATOM      8  C   UNL     1       4.977   4.091  16.253  0.00  0.00    +0.000 A 
ATOM      9  C   UNL     1       5.215   3.603  14.969  0.00  0.00    +0.000 A 
ATOM     10  C   UNL     1       6.244   4.124  14.165  0.00  0.00    +0.000 A 
ATOM     11  C   UNL     1       7.089   5.142  14.662  0.00  0.00    +0.000 A 
BRANCH   6  13
ATOM     12  C   UNL     1       7.457   6.846  17.909  0.00  0.00    +0.000 C 
ATOM     13  O   UNL     1       7.686   6.561  16.525  0.00  0.00    +0.000 OA
ENDBRANCH   6  13
BRANCH  10  14
ATOM     14  O   UNL     1       6.276   3.495  12.944  0.00  0.00    +0.000 OA
ATOM     15  C   UNL     1       5.070   3.289  12.225  0.00  0.00    +0.000 C 
ENDBRANCH  10  14
BRANCH  11  16
ATOM     16  O   UNL     1       8.069   5.577  13.814  0.00  0.00    +0.000 OA
ATOM     17  C   UNL     1       7.894   5.531  12.408  0.00  0.00    +0.000 C 
ENDBRANCH  11  16
ENDBRANCH   1   8
BRANCH   4  18
ATOM     18  S   UNL     1       2.820   2.778  20.701  0.00  0.00    +0.000 S 
BRANCH  18  19
ATOM     19  C   UNL     1       1.522   4.025  21.007  0.00  0.00    +0.000 C 
BRANCH  19  20
ATOM     20  C   UNL     1       1.611   5.172  19.998  0.00  0.00    +0.000 C 
BRANCH  20  21
ATOM     21  O   UNL     1       2.222   6.305  20.614  0.00  0.00    +0.000 OA
BRANCH  21  22
ATOM     22  C   UNL     1       1.880   7.540  20.120  0.00  0.00    +0.000 A 
ATOM     23  C   UNL     1       1.051   8.272  20.987  0.00  0.00    +0.000 A 
ATOM     24  C   UNL     1       0.525   9.511  20.615  0.00  0.00    +0.000 A 
ATOM     25  C   UNL     1       0.820  10.027  19.362  0.00  0.00    +0.000 A 
ATOM     26 CL   UNL     1       0.150  11.532  18.865  0.00  0.00    +0.000 Cl
ATOM     27  C   UNL     1       1.644   9.318  18.491  0.00  0.00    +0.000 A 
ATOM     28  C   UNL     1       2.179   8.062  18.848  0.00  0.00    +0.000 A 
ATOM     29  C   UNL     1       3.008   7.368  17.806  0.00  0.00    +0.000 C 
ENDBRANCH  21  22
ENDBRANCH  20  21
ENDBRANCH  19  20
ENDBRANCH  18  19
ENDBRANCH   4  18
TORSDOF 9
ENDMDL
MODEL 5
REMARK VINA RESULT:      -7.3      3.834      5.375
REMARK  Name = 
REMARK  13 active torsions:
REMARK  status: ('A' for Active; 'I' for Inactive)
REMARK    1  A    between atoms: C_1  and  O_2
REMARK    2  A    between atoms: O_2  and  C_3
REMARK    3  A    between atoms: C_5  and  C_6
REMARK    4  A    between atoms: C_9  and  S_10
REMARK    5  A    between atoms: S_10  and  C_11
REMARK    6  A    between atoms: C_11  and  C_12
REMARK    7  A    between atoms: C_12  and  O_13
REMARK    8  A    between atoms: O_13  and  C_14
REMARK    9  A    between atoms: C_20  and  C_21
REMARK   10  A    between atoms: C_24  and  O_25
REMARK   11  A    between atoms: O_25  and  C_26
REMARK   12  A    between atoms: C_27  and  O_28
REMARK   13  A    between atoms: O_28  and  C_29
REMARK                            x       y       z     vdW  Elec       q    Type
REMARK                         _______ _______ _______ _____ _____    ______ ____
ROOT
ATOM      1  C   UNL     1       2.321   7.039  19.562  0.00  0.00    +0.000 A 
ATOM      2  N   UNL     1       1.881   6.623  20.732  0.00  0.00    +0.000 NA
ATOM      3  N   UNL     1       1.126   7.650  21.249  0.00  0.00    +0.000 NA
ATOM      4  C   UNL     1       1.155   8.623  20.362  0.00  0.00    +0.000 A 
ATOM      5  O   UNL     1       1.910   8.309  19.264  0.00  0.00    +0.000 OA
ENDROOT
BRANCH   1   8
ATOM      6  C   UNL     1       4.981   6.227  17.041  0.00  0.00    +0.000 A 
ATOM      7  C   UNL     1       4.119   6.937  17.891  0.00  0.00    +0.000 A 
ATOM      8  C   UNL     1       3.061   6.307  18.544  0.00  0.00    +0.000 A 
ATOM      9  C   UNL     1       2.800   4.972  18.239  0.00  0.00    +0.000 A 
ATOM     10  C   UNL     1       3.593   4.259  17.321  0.00  0.00    +0.000 A 
ATOM     11  C   UNL     1       4.704   4.882  16.708  0.00  0.00    +0.000 A 
BRANCH   6  13
ATOM     12  C   UNL     1       7.092   7.216  17.465  0.00  0.00    +0.000 C 
ATOM     13  O   UNL     1       6.080   6.860  16.518  0.00  0.00    +0.000 OA
ENDBRANCH   6  13
BRANCH  10  14
ATOM     14  O   UNL     1       3.136   2.972  17.178  0.00  0.00    +0.000 OA
ATOM     15  C   UNL     1       3.391   2.016  18.195  0.00  0.00    +0.000 C 
ENDBRANCH  10  14
BRANCH  11  16
ATOM     16  O   UNL     1       5.423   4.107  15.841  0.00  0.00    +0.000 OA
ATOM     17  C   UNL     1       5.452   4.396  14.453  0.00  0.00    +0.000 C 
ENDBRANCH  11  16
ENDBRANCH   1   8
BRANCH   4  18
ATOM     18  S   UNL     1       0.365  10.154  20.566  0.00  0.00    +0.000 S 
BRANCH  18  19
ATOM     19  C   UNL     1       0.830  10.965  18.998  0.00  0.00    +0.000 C 
BRANCH  19  20
ATOM     20  C   UNL     1      -0.368  11.680  18.370  0.00  0.00    +0.000 C 
BRANCH  20  21
ATOM     21  O   UNL     1      -1.309  10.714  17.899  0.00  0.00    +0.000 OA
BRANCH  21  22
ATOM     22  C   UNL     1      -2.594  11.150  17.692  0.00  0.00    +0.000 A 
ATOM     23  C   UNL     1      -3.201  11.654  18.855  0.00  0.00    +0.000 A 
ATOM     24  C   UNL     1      -4.538  12.058  18.860  0.00  0.00    +0.000 A 
ATOM     25  C   UNL     1      -5.285  11.951  17.695  0.00  0.00    +0.000 A 
ATOM     26 CL   UNL     1      -6.946  12.402  17.688  0.00  0.00    +0.000 Cl
ATOM     27  C   UNL     1      -4.699  11.458  16.532  0.00  0.00    +0.000 A 
ATOM     28  C   UNL     1      -3.351  11.041  16.511  0.00  0.00    +0.000 A 
ATOM     29  C   UNL     1      -2.847  10.477  15.214  0.00  0.00    +0.000 C 
ENDBRANCH  21  22
ENDBRANCH  20  21
ENDBRANCH  19  20
ENDBRANCH  18  19
ENDBRANCH   4  18
TORSDOF 9
ENDMDL
MODEL 6
REMARK VINA RESULT:      -7.2      3.911      6.117
REMARK  Name = 
REMARK  13 active torsions:
REMARK  status: ('A' for Active; 'I' for Inactive)
REMARK    1  A    between atoms: C_1  and  O_2
REMARK    2  A    between atoms: O_2  and  C_3
REMARK    3  A    between atoms: C_5  and  C_6
REMARK    4  A    between atoms: C_9  and  S_10
REMARK    5  A    between atoms: S_10  and  C_11
REMARK    6  A    between atoms: C_11  and  C_12
REMARK    7  A    between atoms: C_12  and  O_13
REMARK    8  A    between atoms: O_13  and  C_14
REMARK    9  A    between atoms: C_20  and  C_21
REMARK   10  A    between atoms: C_24  and  O_25
REMARK   11  A    between atoms: O_25  and  C_26
REMARK   12  A    between atoms: C_27  and  O_28
REMARK   13  A    between atoms: O_28  and  C_29
REMARK                            x       y       z     vdW  Elec       q    Type
REMARK                         _______ _______ _______ _____ _____    ______ ____
ROOT
ATOM      1  C   UNL     1       1.997   8.135  18.960  0.00  0.00    +0.000 A 
ATOM      2  N   UNL     1       2.111   9.153  18.132  0.00  0.00    +0.000 NA
ATOM      3  N   UNL     1       1.464  10.210  18.729  0.00  0.00    +0.000 NA
ATOM      4  C   UNL     1       1.000   9.769  19.879  0.00  0.00    +0.000 A 
ATOM      5  O   UNL     1       1.291   8.447  20.089  0.00  0.00    +0.000 OA
ENDROOT
BRANCH   1   8
ATOM      6  C   UNL     1       2.517   4.460  19.520  0.00  0.00    +0.000 A 
ATOM      7  C   UNL     1       2.104   5.791  19.687  0.00  0.00    +0.000 A 
ATOM      8  C   UNL     1       2.600   6.811  18.879  0.00  0.00    +0.000 A 
ATOM      9  C   UNL     1       3.615   6.502  17.974  0.00  0.00    +0.000 A 
ATOM     10  C   UNL     1       4.112   5.192  17.849  0.00  0.00    +0.000 A 
ATOM     11  C   UNL     1       3.563   4.145  18.624  0.00  0.00    +0.000 A 
BRANCH   6  13
ATOM     12  C   UNL     1       2.458   3.251  21.557  0.00  0.00    +0.000 C 
ATOM     13  O   UNL     1       1.910   3.472  20.254  0.00  0.00    +0.000 OA
ENDBRANCH   6  13
BRANCH  10  14
ATOM     14  O   UNL     1       5.110   5.137  16.906  0.00  0.00    +0.000 OA
ATOM     15  C   UNL     1       5.685   6.339  16.418  0.00  0.00    +0.000 C 
ENDBRANCH  10  14
BRANCH  11  16
ATOM     16  O   UNL     1       4.101   2.905  18.425  0.00  0.00    +0.000 OA
ATOM     17  C   UNL     1       3.297   1.817  18.000  0.00  0.00    +0.000 C 
ENDBRANCH  11  16
ENDBRANCH   1   8
BRANCH   4  18
ATOM     18  S   UNL     1       0.083  10.729  20.996  0.00  0.00    +0.000 S 
BRANCH  18  19
ATOM     19  C   UNL     1       0.194  12.359  20.183  0.00  0.00    +0.000 C 
BRANCH  19  20
ATOM     20  C   UNL     1      -1.130  12.733  19.514  0.00  0.00    +0.000 C 
BRANCH  20  21
ATOM     21  O   UNL     1      -2.033  11.630  19.591  0.00  0.00    +0.000 OA
BRANCH  21  22
ATOM     22  C   UNL     1      -2.628  11.233  18.419  0.00  0.00    +0.000 A 
ATOM     23  C   UNL     1      -1.753  10.551  17.557  0.00  0.00    +0.000 A 
ATOM     24  C   UNL     1      -2.154  10.153  16.280  0.00  0.00    +0.000 A 
ATOM     25  C   UNL     1      -3.442  10.442  15.851  0.00  0.00    +0.000 A 
ATOM     26 CL   UNL     1      -3.945   9.999  14.266  0.00  0.00    +0.000 Cl
ATOM     27  C   UNL     1      -4.325  11.113  16.693  0.00  0.00    +0.000 A 
ATOM     28  C   UNL     1      -3.934  11.528  17.984  0.00  0.00    +0.000 A 
ATOM     29  C   UNL     1      -4.954  12.290  18.778  0.00  0.00    +0.000 C 
ENDBRANCH  21  22
ENDBRANCH  20  21
ENDBRANCH  19  20
ENDBRANCH  18  19
ENDBRANCH   4  18
TORSDOF 9
ENDMDL
MODEL 7
REMARK VINA RESULT:      -7.2      4.122      6.422
REMARK  Name = 
REMARK  13 active torsions:
REMARK  status: ('A' for Active; 'I' for Inactive)
REMARK    1  A    between atoms: C_1  and  O_2
REMARK    2  A    between atoms: O_2  and  C_3
REMARK    3  A    between atoms: C_5  and  C_6
REMARK    4  A    between atoms: C_9  and  S_10
REMARK    5  A    between atoms: S_10  and  C_11
REMARK    6  A    between atoms: C_11  and  C_12
REMARK    7  A    between atoms: C_12  and  O_13
REMARK    8  A    between atoms: O_13  and  C_14
REMARK    9  A    between atoms: C_20  and  C_21
REMARK   10  A    between atoms: C_24  and  O_25
REMARK   11  A    between atoms: O_25  and  C_26
REMARK   12  A    between atoms: C_27  and  O_28
REMARK   13  A    between atoms: O_28  and  C_29
REMARK                            x       y       z     vdW  Elec       q    Type
REMARK                         _______ _______ _______ _____ _____    ______ ____
ROOT
ATOM      1  C   UNL     1       2.250   7.977  18.513  0.00  0.00    +0.000 A 
ATOM      2  N   UNL     1       2.227   8.689  17.405  0.00  0.00    +0.000 NA
ATOM      3  N   UNL     1       1.777   9.940  17.757  0.00  0.00    +0.000 NA
ATOM      4  C   UNL     1       1.556   9.910  19.055  0.00  0.00    +0.000 A 
ATOM      5  O   UNL     1       1.824   8.684  19.604  0.00  0.00    +0.000 OA
ENDROOT
BRANCH   1   8
ATOM      6  C   UNL     1       4.388   4.915  18.143  0.00  0.00    +0.000 A 
ATOM      7  C   UNL     1       3.731   6.126  17.873  0.00  0.00    +0.000 A 
ATOM      8  C   UNL     1       2.757   6.630  18.732  0.00  0.00    +0.000 A 
ATOM      9  C   UNL     1       2.357   5.841  19.809  0.00  0.00    +0.000 A 
ATOM     10  C   UNL     1       2.934   4.582  20.053  0.00  0.00    +0.000 A 
ATOM     11  C   UNL     1       3.967   4.100  19.217  0.00  0.00    +0.000 A 
BRANCH   6  13
ATOM     12  C   UNL     1       5.070   4.215  15.984  0.00  0.00    +0.000 C 
ATOM     13  O   UNL     1       5.425   4.520  17.336  0.00  0.00    +0.000 OA
ENDBRANCH   6  13
BRANCH  10  14
ATOM     14  O   UNL     1       2.371   3.992  21.158  0.00  0.00    +0.000 OA
ATOM     15  C   UNL     1       1.222   3.173  21.013  0.00  0.00    +0.000 C 
ENDBRANCH  10  14
BRANCH  11  16
ATOM     16  O   UNL     1       4.475   2.872  19.539  0.00  0.00    +0.000 OA
ATOM     17  C   UNL     1       3.923   1.686  18.995  0.00  0.00    +0.000 C 
ENDBRANCH  11  16
ENDBRANCH   1   8
BRANCH   4  18
ATOM     18  S   UNL     1       0.954  11.251  19.974  0.00  0.00    +0.000 S 
BRANCH  18  19
ATOM     19  C   UNL     1      -0.830  10.863  19.975  0.00  0.00    +0.000 C 
BRANCH  19  20
ATOM     20  C   UNL     1      -1.629  11.939  19.236  0.00  0.00    +0.000 C 
BRANCH  20  21
ATOM     21  O   UNL     1      -2.955  11.468  18.993  0.00  0.00    +0.000 OA
BRANCH  21  22
ATOM     22  C   UNL     1      -3.253  11.092  17.707  0.00  0.00    +0.000 A 
ATOM     23  C   UNL     1      -2.235  10.335  17.102  0.00  0.00    +0.000 A 
ATOM     24  C   UNL     1      -2.320   9.941  15.764  0.00  0.00    +0.000 A 
ATOM     25  C   UNL     1      -3.428  10.311  15.016  0.00  0.00    +0.000 A 
ATOM     26 CL   UNL     1      -3.535   9.874  13.355  0.00  0.00    +0.000 Cl
ATOM     27  C   UNL     1      -4.449  11.057  15.599  0.00  0.00    +0.000 A 
ATOM     28  C   UNL     1      -4.376  11.468  16.948  0.00  0.00    +0.000 A 
ATOM     29  C   UNL     1      -5.511  12.314  17.450  0.00  0.00    +0.000 C 
ENDBRANCH  21  22
ENDBRANCH  20  21
ENDBRANCH  19  20
ENDBRANCH  18  19
ENDBRANCH   4  18
TORSDOF 9
ENDMDL
MODEL 8
REMARK VINA RESULT:      -7.2      3.928      5.621
REMARK  Name = 
REMARK  13 active torsions:
REMARK  status: ('A' for Active; 'I' for Inactive)
REMARK    1  A    between atoms: C_1  and  O_2
REMARK    2  A    between atoms: O_2  and  C_3
REMARK    3  A    between atoms: C_5  and  C_6
REMARK    4  A    between atoms: C_9  and  S_10
REMARK    5  A    between atoms: S_10  and  C_11
REMARK    6  A    between atoms: C_11  and  C_12
REMARK    7  A    between atoms: C_12  and  O_13
REMARK    8  A    between atoms: O_13  and  C_14
REMARK    9  A    between atoms: C_20  and  C_21
REMARK   10  A    between atoms: C_24  and  O_25
REMARK   11  A    between atoms: O_25  and  C_26
REMARK   12  A    between atoms: C_27  and  O_28
REMARK   13  A    between atoms: O_28  and  C_29
REMARK                            x       y       z     vdW  Elec       q    Type
REMARK                         _______ _______ _______ _____ _____    ______ ____
ROOT
ATOM      1  C   UNL     1       2.481   7.945  18.229  0.00  0.00    +0.000 A 
ATOM      2  N   UNL     1       2.049   8.997  17.563  0.00  0.00    +0.000 NA
ATOM      3  N   UNL     1       1.285   9.725  18.444  0.00  0.00    +0.000 NA
ATOM      4  C   UNL     1       1.301   9.072  19.588  0.00  0.00    +0.000 A 
ATOM      5  O   UNL     1       2.035   7.918  19.522  0.00  0.00    +0.000 OA
ENDROOT
BRANCH   1   8
ATOM      6  C   UNL     1       3.806   4.578  17.230  0.00  0.00    +0.000 A 
ATOM      7  C   UNL     1       3.008   5.585  17.795  0.00  0.00    +0.000 A 
ATOM      8  C   UNL     1       3.423   6.915  17.812  0.00  0.00    +0.000 A 
ATOM      9  C   UNL     1       4.709   7.211  17.363  0.00  0.00    +0.000 A 
ATOM     10  C   UNL     1       5.565   6.208  16.874  0.00  0.00    +0.000 A 
ATOM     11  C   UNL     1       5.120   4.868  16.798  0.00  0.00    +0.000 A 
BRANCH   6  13
ATOM     12  C   UNL     1       3.407   2.506  18.306  0.00  0.00    +0.000 C 
ATOM     13  O   UNL     1       3.305   3.306  17.124  0.00  0.00    +0.000 OA
ENDBRANCH   6  13
BRANCH  10  14
ATOM     14  O   UNL     1       6.777   6.738  16.503  0.00  0.00    +0.000 OA
ATOM     15  C   UNL     1       7.665   7.229  17.494  0.00  0.00    +0.000 C 
ENDBRANCH  10  14
BRANCH  11  16
ATOM     16  O   UNL     1       6.016   3.965  16.298  0.00  0.00    +0.000 OA
ATOM     17  C   UNL     1       6.175   3.787  14.901  0.00  0.00    +0.000 C 
ENDBRANCH  11  16
ENDBRANCH   1   8
BRANCH   4  18
ATOM     18  S   UNL     1       0.459   9.581  21.016  0.00  0.00    +0.000 S 
BRANCH  18  19
ATOM     19  C   UNL     1       0.323  11.372  20.686  0.00  0.00    +0.000 C 
BRANCH  19  20
ATOM     20  C   UNL     1      -1.009  11.927  21.194  0.00  0.00    +0.000 C 
BRANCH  20  21
ATOM     21  O   UNL     1      -1.570  12.797  20.211  0.00  0.00    +0.000 OA
BRANCH  21  22
ATOM     22  C   UNL     1      -2.770  12.420  19.661  0.00  0.00    +0.000 A 
ATOM     23  C   UNL     1      -3.880  12.827  20.423  0.00  0.00    +0.000 A 
ATOM     24  C   UNL     1      -5.179  12.454  20.070  0.00  0.00    +0.000 A 
ATOM     25  C   UNL     1      -5.378  11.660  18.949  0.00  0.00    +0.000 A 
ATOM     26 CL   UNL     1      -6.965  11.153  18.519  0.00  0.00    +0.000 Cl
ATOM     27  C   UNL     1      -4.291  11.252  18.180  0.00  0.00    +0.000 A 
ATOM     28  C   UNL     1      -2.972  11.614  18.526  0.00  0.00    +0.000 A 
ATOM     29  C   UNL     1      -1.879  11.069  17.652  0.00  0.00    +0.000 C 
ENDBRANCH  21  22
ENDBRANCH  20  21
ENDBRANCH  19  20
ENDBRANCH  18  19
ENDBRANCH   4  18
TORSDOF 9
ENDMDL
MODEL 9
REMARK VINA RESULT:      -7.2      0.738      2.532
REMARK  Name = 
REMARK  13 active torsions:
REMARK  status: ('A' for Active; 'I' for Inactive)
REMARK    1  A    between atoms: C_1  and  O_2
REMARK    2  A    between atoms: O_2  and  C_3
REMARK    3  A    between atoms: C_5  and  C_6
REMARK    4  A    between atoms: C_9  and  S_10
REMARK    5  A    between atoms: S_10  and  C_11
REMARK    6  A    between atoms: C_11  and  C_12
REMARK    7  A    between atoms: C_12  and  O_13
REMARK    8  A    between atoms: O_13  and  C_14
REMARK    9  A    between atoms: C_20  and  C_21
REMARK   10  A    between atoms: C_24  and  O_25
REMARK   11  A    between atoms: O_25  and  C_26
REMARK   12  A    between atoms: C_27  and  O_28
REMARK   13  A    between atoms: O_28  and  C_29
REMARK                            x       y       z     vdW  Elec       q    Type
REMARK                         _______ _______ _______ _____ _____    ______ ____
ROOT
ATOM      1  C   UNL     1       3.696   3.733  17.143  0.00  0.00    +0.000 A 
ATOM      2  N   UNL     1       2.560   3.246  16.688  0.00  0.00    +0.000 NA
ATOM      3  N   UNL     1       1.708   3.177  17.766  0.00  0.00    +0.000 NA
ATOM      4  C   UNL     1       2.379   3.627  18.806  0.00  0.00    +0.000 A 
ATOM      5  O   UNL     1       3.661   3.988  18.487  0.00  0.00    +0.000 OA
ENDROOT
BRANCH   1   8
ATOM      6  C   UNL     1       6.170   4.009  14.334  0.00  0.00    +0.000 A 
ATOM      7  C   UNL     1       5.142   3.540  15.167  0.00  0.00    +0.000 A 
ATOM      8  C   UNL     1       4.891   4.122  16.408  0.00  0.00    +0.000 A 
ATOM      9  C   UNL     1       5.765   5.108  16.862  0.00  0.00    +0.000 A 
ATOM     10  C   UNL     1       6.859   5.535  16.087  0.00  0.00    +0.000 A 
ATOM     11  C   UNL     1       7.075   4.988  14.801  0.00  0.00    +0.000 A 
BRANCH   6  13
ATOM     12  C   UNL     1       5.090   3.404  12.313  0.00  0.00    +0.000 C 
ATOM     13  O   UNL     1       6.300   3.488  13.072  0.00  0.00    +0.000 OA
ENDBRANCH   6  13
BRANCH  10  14
ATOM     14  O   UNL     1       7.578   6.501  16.747  0.00  0.00    +0.000 OA
ATOM     15  C   UNL     1       6.900   7.492  17.503  0.00  0.00    +0.000 C 
ENDBRANCH  10  14
BRANCH  11  16
ATOM     16  O   UNL     1       8.154   5.473  14.117  0.00  0.00    +0.000 OA
ATOM     17  C   UNL     1       8.100   5.678  12.715  0.00  0.00    +0.000 C 
ENDBRANCH  11  16
ENDBRANCH   1   8
BRANCH   4  18
ATOM     18  S   UNL     1       1.740   3.719  20.416  0.00  0.00    +0.000 S 
BRANCH  18  19
ATOM     19  C   UNL     1       2.335   5.374  20.904  0.00  0.00    +0.000 C 
BRANCH  19  20
ATOM     20  C   UNL     1       1.264   6.439  20.662  0.00  0.00    +0.000 C 
BRANCH  20  21
ATOM     21  O   UNL     1       1.833   7.737  20.826  0.00  0.00    +0.000 OA
BRANCH  21  22
ATOM     22  C   UNL     1       1.099   8.800  20.361  0.00  0.00    +0.000 A 
ATOM     23  C   UNL     1       1.414   9.154  19.038  0.00  0.00    +0.000 A 
ATOM     24  C   UNL     1       0.835  10.269  18.427  0.00  0.00    +0.000 A 
ATOM     25  C   UNL     1      -0.064  11.047  19.143  0.00  0.00    +0.000 A 
ATOM     26 CL   UNL     1      -0.757  12.449  18.426  0.00  0.00    +0.000 Cl
ATOM     27  C   UNL     1      -0.391  10.709  20.454  0.00  0.00    +0.000 A 
ATOM     28  C   UNL     1       0.189   9.590  21.088  0.00  0.00    +0.000 A 
ATOM     29  C   UNL     1      -0.201   9.357  22.520  0.00  0.00    +0.000 C 
ENDBRANCH  21  22
ENDBRANCH  20  21
ENDBRANCH  19  20
ENDBRANCH  18  19
ENDBRANCH   4  18
TORSDOF 9
ENDMDL
