MODEL 1
REMARK VINA RESULT:      -7.0      0.000      0.000
REMARK  Name = 
REMARK  4 active torsions:
REMARK  status: ('A' for Active; 'I' for Inactive)
REMARK    1  A    between atoms: C_1  and  C_2
REMARK    2  A    between atoms: C_2  and  N_3
REMARK    3  A    between atoms: N_3  and  C_15
REMARK    4  A    between atoms: C_4  and  C_6
REMARK                            x       y       z     vdW  Elec       q    Type
REMARK                         _______ _______ _______ _____ _____    ______ ____
ROOT
ATOM      1  N   UNL     1       3.304   4.433  18.164  0.00  0.00    +0.000 N 
ATOM      2  C   UNL     1       4.320   3.635  17.561  0.00  0.00    +0.000 C 
ATOM      3  O   UNL     1       4.510   2.442  17.808  0.00  0.00    +0.000 OA
ENDROOT
BRANCH   2   4
ATOM      4  C   UNL     1       5.207   4.193  16.509  0.00  0.00    +0.000 A 
ATOM      5  C   UNL     1       5.245   3.626  15.228  0.00  0.00    +0.000 A 
ATOM      6  C   UNL     1       6.047   4.164  14.210  0.00  0.00    +0.000 A 
ATOM      7  C   UNL     1       6.920   5.209  14.488  0.00  0.00    +0.000 A 
ATOM      8  C   UNL     1       6.966   5.676  15.789  0.00  0.00    +0.000 A 
ATOM      9  C   UNL     1       6.133   5.193  16.779  0.00  0.00    +0.000 A 
ATOM     10  O   UNL     1       6.373   5.813  17.969  0.00  0.00    +0.000 OA
ATOM     11  C   UNL     1       7.470   6.686  17.628  0.00  0.00    +0.000 C 
ATOM     12  O   UNL     1       7.833   6.624  16.237  0.00  0.00    +0.000 OA
ENDBRANCH   2   4
BRANCH   1  13
ATOM     13  C   UNL     1       2.529   3.904  19.279  0.00  0.00    +0.000 A 
ATOM     14  C   UNL     1       1.190   3.510  19.131  0.00  0.00    +0.000 A 
ATOM     15  C   UNL     1       0.457   2.974  20.202  0.00  0.00    +0.000 A 
ATOM     16  C   UNL     1       1.049   2.820  21.449  0.00  0.00    +0.000 A 
ATOM     17  C   UNL     1       2.378   3.185  21.625  0.00  0.00    +0.000 A 
ATOM     18  C   UNL     1       3.109   3.710  20.548  0.00  0.00    +0.000 A 
ENDBRANCH   1  13
BRANCH   1  20
ATOM     19  C   UNL     1       2.688   6.743  19.052  0.00  0.00    +0.000 C 
ATOM     20  C   UNL     1       3.078   5.869  17.859  0.00  0.00    +0.000 C 
ENDBRANCH   1  20
TORSDOF 3
ENDMDL
MODEL 2
REMARK VINA RESULT:      -7.0      0.083      1.075
REMARK  Name = 
REMARK  4 active torsions:
REMARK  status: ('A' for Active; 'I' for Inactive)
REMARK    1  A    between atoms: C_1  and  C_2
REMARK    2  A    between atoms: C_2  and  N_3
REMARK    3  A    between atoms: N_3  and  C_15
REMARK    4  A    between atoms: C_4  and  C_6
REMARK                            x       y       z     vdW  Elec       q    Type
REMARK                         _______ _______ _______ _____ _____    ______ ____
ROOT
ATOM      1  N   UNL     1       3.304   4.348  18.136  0.00  0.00    +0.000 N 
ATOM      2  C   UNL     1       4.348   3.572  17.553  0.00  0.00    +0.000 C 
ATOM      3  O   UNL     1       4.574   2.390  17.819  0.00  0.00    +0.000 OA
ENDROOT
BRANCH   2   4
ATOM      4  C   UNL     1       5.223   4.140  16.496  0.00  0.00    +0.000 A 
ATOM      5  C   UNL     1       5.251   3.583  15.210  0.00  0.00    +0.000 A 
ATOM      6  C   UNL     1       6.041   4.131  14.189  0.00  0.00    +0.000 A 
ATOM      7  C   UNL     1       6.913   5.177  14.467  0.00  0.00    +0.000 A 
ATOM      8  C   UNL     1       6.969   5.635  15.770  0.00  0.00    +0.000 A 
ATOM      9  C   UNL     1       6.147   5.143  16.764  0.00  0.00    +0.000 A 
ATOM     10  O   UNL     1       6.396   5.755  17.956  0.00  0.00    +0.000 OA
ATOM     11  C   UNL     1       7.486   6.635  17.611  0.00  0.00    +0.000 C 
ATOM     12  O   UNL     1       7.837   6.584  16.216  0.00  0.00    +0.000 OA
ENDBRANCH   2   4
BRANCH   1  13
ATOM     13  C   UNL     1       2.539   3.812  19.256  0.00  0.00    +0.000 A 
ATOM     14  C   UNL     1       3.084   3.711  20.545  0.00  0.00    +0.000 A 
ATOM     15  C   UNL     1       2.334   3.222  21.627  0.00  0.00    +0.000 A 
ATOM     16  C   UNL     1       1.017   2.821  21.441  0.00  0.00    +0.000 A 
ATOM     17  C   UNL     1       0.442   2.924  20.180  0.00  0.00    +0.000 A 
ATOM     18  C   UNL     1       1.194   3.424  19.105  0.00  0.00    +0.000 A 
ENDBRANCH   1  13
BRANCH   1  20
ATOM     19  C   UNL     1       2.916   6.713  19.005  0.00  0.00    +0.000 C 
ATOM     20  C   UNL     1       3.035   5.770  17.807  0.00  0.00    +0.000 C 
ENDBRANCH   1  20
TORSDOF 3
ENDMDL
MODEL 3
REMARK VINA RESULT:      -6.8      1.201      2.152
REMARK  Name = 
REMARK  4 active torsions:
REMARK  status: ('A' for Active; 'I' for Inactive)
REMARK    1  A    between atoms: C_1  and  C_2
REMARK    2  A    between atoms: C_2  and  N_3
REMARK    3  A    between atoms: N_3  and  C_15
REMARK    4  A    between atoms: C_4  and  C_6
REMARK                            x       y       z     vdW  Elec       q    Type
REMARK                         _______ _______ _______ _____ _____    ______ ____
ROOT
ATOM      1  N   UNL     1       3.602   4.602  18.639  0.00  0.00    +0.000 N 
ATOM      2  C   UNL     1       5.006   4.365  18.673  0.00  0.00    +0.000 C 
ATOM      3  O   UNL     1       5.550   3.484  19.342  0.00  0.00    +0.000 OA
ENDROOT
BRANCH   2   4
ATOM      4  C   UNL     1       5.936   5.150  17.822  0.00  0.00    +0.000 A 
ATOM      5  C   UNL     1       6.512   6.338  18.295  0.00  0.00    +0.000 A 
ATOM      6  C   UNL     1       7.422   7.072  17.520  0.00  0.00    +0.000 A 
ATOM      7  C   UNL     1       7.684   6.695  16.208  0.00  0.00    +0.000 A 
ATOM      8  C   UNL     1       7.013   5.593  15.712  0.00  0.00    +0.000 A 
ATOM      9  C   UNL     1       6.164   4.830  16.490  0.00  0.00    +0.000 A 
ATOM     10  O   UNL     1       5.627   3.805  15.771  0.00  0.00    +0.000 OA
ATOM     11  C   UNL     1       6.185   4.040  14.462  0.00  0.00    +0.000 C 
ATOM     12  O   UNL     1       7.090   5.160  14.424  0.00  0.00    +0.000 OA
ENDBRANCH   2   4
BRANCH   1  13
ATOM     13  C   UNL     1       2.723   3.907  19.571  0.00  0.00    +0.000 A 
ATOM     14  C   UNL     1       1.773   2.970  19.136  0.00  0.00    +0.000 A 
ATOM     15  C   UNL     1       0.948   2.282  20.040  0.00  0.00    +0.000 A 
ATOM     16  C   UNL     1       1.057   2.516  21.406  0.00  0.00    +0.000 A 
ATOM     17  C   UNL     1       1.999   3.426  21.871  0.00  0.00    +0.000 A 
ATOM     18  C   UNL     1       2.828   4.103  20.962  0.00  0.00    +0.000 A 
ENDBRANCH   1  13
BRANCH   1  20
ATOM     19  C   UNL     1       2.724   6.995  18.543  0.00  0.00    +0.000 C 
ATOM     20  C   UNL     1       2.953   5.663  17.827  0.00  0.00    +0.000 C 
ENDBRANCH   1  20
TORSDOF 3
ENDMDL
MODEL 4
REMARK VINA RESULT:      -6.8      1.176      2.372
REMARK  Name = 
REMARK  4 active torsions:
REMARK  status: ('A' for Active; 'I' for Inactive)
REMARK    1  A    between atoms: C_1  and  C_2
REMARK    2  A    between atoms: C_2  and  N_3
REMARK    3  A    between atoms: N_3  and  C_15
REMARK    4  A    between atoms: C_4  and  C_6
REMARK                            x       y       z     vdW  Elec       q    Type
REMARK                         _______ _______ _______ _____ _____    ______ ____
ROOT
ATOM      1  N   UNL     1       3.611   4.638  18.647  0.00  0.00    +0.000 N 
ATOM      2  C   UNL     1       5.012   4.373  18.661  0.00  0.00    +0.000 C 
ATOM      3  O   UNL     1       5.546   3.467  19.304  0.00  0.00    +0.000 OA
ENDROOT
BRANCH   2   4
ATOM      4  C   UNL     1       5.947   5.160  17.818  0.00  0.00    +0.000 A 
ATOM      5  C   UNL     1       6.522   6.345  18.298  0.00  0.00    +0.000 A 
ATOM      6  C   UNL     1       7.438   7.081  17.531  0.00  0.00    +0.000 A 
ATOM      7  C   UNL     1       7.706   6.709  16.219  0.00  0.00    +0.000 A 
ATOM      8  C   UNL     1       7.036   5.609  15.715  0.00  0.00    +0.000 A 
ATOM      9  C   UNL     1       6.182   4.845  16.486  0.00  0.00    +0.000 A 
ATOM     10  O   UNL     1       5.647   3.822  15.760  0.00  0.00    +0.000 OA
ATOM     11  C   UNL     1       6.214   4.062  14.455  0.00  0.00    +0.000 C 
ATOM     12  O   UNL     1       7.120   5.180  14.426  0.00  0.00    +0.000 OA
ENDBRANCH   2   4
BRANCH   1  13
ATOM     13  C   UNL     1       2.729   3.937  19.573  0.00  0.00    +0.000 A 
ATOM     14  C   UNL     1       2.896   4.021  20.963  0.00  0.00    +0.000 A 
ATOM     15  C   UNL     1       2.027   3.368  21.851  0.00  0.00    +0.000 A 
ATOM     16  C   UNL     1       0.966   2.613  21.365  0.00  0.00    +0.000 A 
ATOM     17  C   UNL     1       0.763   2.523  19.993  0.00  0.00    +0.000 A 
ATOM     18  C   UNL     1       1.630   3.188  19.111  0.00  0.00    +0.000 A 
ENDBRANCH   1  13
BRANCH   1  20
ATOM     19  C   UNL     1       2.652   7.000  18.653  0.00  0.00    +0.000 C 
ATOM     20  C   UNL     1       2.974   5.729  17.867  0.00  0.00    +0.000 C 
ENDBRANCH   1  20
TORSDOF 3
ENDMDL
MODEL 5
REMARK VINA RESULT:      -6.8      2.253      3.762
REMARK  Name = 
REMARK  4 active torsions:
REMARK  status: ('A' for Active; 'I' for Inactive)
REMARK    1  A    between atoms: C_1  and  C_2
REMARK    2  A    between atoms: C_2  and  N_3
REMARK    3  A    between atoms: N_3  and  C_15
REMARK    4  A    between atoms: C_4  and  C_6
REMARK                            x       y       z     vdW  Elec       q    Type
REMARK                         _______ _______ _______ _____ _____    ______ ____
ROOT
ATOM      1  N   UNL     1       3.283   6.582  18.309  0.00  0.00    +0.000 N 
ATOM      2  C   UNL     1       4.352   6.966  17.448  0.00  0.00    +0.000 C 
ATOM      3  O   UNL     1       4.657   8.132  17.188  0.00  0.00    +0.000 OA
ENDROOT
BRANCH   2   4
ATOM      4  C   UNL     1       5.244   5.948  16.837  0.00  0.00    +0.000 A 
ATOM      5  C   UNL     1       4.882   5.295  15.651  0.00  0.00    +0.000 A 
ATOM      6  C   UNL     1       5.731   4.360  15.039  0.00  0.00    +0.000 A 
ATOM      7  C   UNL     1       6.908   3.971  15.666  0.00  0.00    +0.000 A 
ATOM      8  C   UNL     1       7.192   4.529  16.898  0.00  0.00    +0.000 A 
ATOM      9  C   UNL     1       6.393   5.496  17.475  0.00  0.00    +0.000 A 
ATOM     10  O   UNL     1       6.885   5.883  18.686  0.00  0.00    +0.000 OA
ATOM     11  C   UNL     1       8.036   5.023  18.823  0.00  0.00    +0.000 C 
ATOM     12  O   UNL     1       8.252   4.179  17.677  0.00  0.00    +0.000 OA
ENDBRANCH   2   4
BRANCH   1  13
ATOM     13  C   UNL     1       2.345   7.587  18.797  0.00  0.00    +0.000 A 
ATOM     14  C   UNL     1       1.974   7.661  20.148  0.00  0.00    +0.000 A 
ATOM     15  C   UNL     1       1.093   8.648  20.618  0.00  0.00    +0.000 A 
ATOM     16  C   UNL     1       0.563   9.587  19.742  0.00  0.00    +0.000 A 
ATOM     17  C   UNL     1       0.923   9.552  18.400  0.00  0.00    +0.000 A 
ATOM     18  C   UNL     1       1.812   8.569  17.939  0.00  0.00    +0.000 A 
ENDBRANCH   1  13
BRANCH   1  20
ATOM     19  C   UNL     1       1.819   4.569  17.754  0.00  0.00    +0.000 C 
ATOM     20  C   UNL     1       2.924   5.176  18.621  0.00  0.00    +0.000 C 
ENDBRANCH   1  20
TORSDOF 3
ENDMDL
MODEL 6
REMARK VINA RESULT:      -6.7      2.259      3.683
REMARK  Name = 
REMARK  4 active torsions:
REMARK  status: ('A' for Active; 'I' for Inactive)
REMARK    1  A    between atoms: C_1  and  C_2
REMARK    2  A    between atoms: C_2  and  N_3
REMARK    3  A    between atoms: N_3  and  C_15
REMARK    4  A    between atoms: C_4  and  C_6
REMARK                            x       y       z     vdW  Elec       q    Type
REMARK                         _______ _______ _______ _____ _____    ______ ____
ROOT
ATOM      1  N   UNL     1       3.290   6.621  18.319  0.00  0.00    +0.000 N 
ATOM      2  C   UNL     1       4.358   6.982  17.447  0.00  0.00    +0.000 C 
ATOM      3  O   UNL     1       4.674   8.142  17.171  0.00  0.00    +0.000 OA
ENDROOT
BRANCH   2   4
ATOM      4  C   UNL     1       5.236   5.948  16.843  0.00  0.00    +0.000 A 
ATOM      5  C   UNL     1       4.855   5.277  15.673  0.00  0.00    +0.000 A 
ATOM      6  C   UNL     1       5.689   4.326  15.067  0.00  0.00    +0.000 A 
ATOM      7  C   UNL     1       6.871   3.938  15.687  0.00  0.00    +0.000 A 
ATOM      8  C   UNL     1       7.174   4.516  16.906  0.00  0.00    +0.000 A 
ATOM      9  C   UNL     1       6.389   5.499  17.475  0.00  0.00    +0.000 A 
ATOM     10  O   UNL     1       6.898   5.903  18.673  0.00  0.00    +0.000 OA
ATOM     11  C   UNL     1       8.044   5.037  18.811  0.00  0.00    +0.000 C 
ATOM     12  O   UNL     1       8.241   4.172  17.678  0.00  0.00    +0.000 OA
ENDBRANCH   2   4
BRANCH   1  13
ATOM     13  C   UNL     1       2.367   7.642  18.800  0.00  0.00    +0.000 A 
ATOM     14  C   UNL     1       1.797   8.592  17.939  0.00  0.00    +0.000 A 
ATOM     15  C   UNL     1       0.886   9.555  18.402  0.00  0.00    +0.000 A 
ATOM     16  C   UNL     1       0.523   9.587  19.743  0.00  0.00    +0.000 A 
ATOM     17  C   UNL     1       1.057   8.650  20.620  0.00  0.00    +0.000 A 
ATOM     18  C   UNL     1       1.959   7.683  20.148  0.00  0.00    +0.000 A 
ENDBRANCH   1  13
BRANCH   1  20
ATOM     19  C   UNL     1       1.818   4.609  17.784  0.00  0.00    +0.000 C 
ATOM     20  C   UNL     1       2.919   5.222  18.651  0.00  0.00    +0.000 C 
ENDBRANCH   1  20
TORSDOF 3
ENDMDL
MODEL 7
REMARK VINA RESULT:      -6.6      2.080      6.206
REMARK  Name = 
REMARK  4 active torsions:
REMARK  status: ('A' for Active; 'I' for Inactive)
REMARK    1  A    between atoms: C_1  and  C_2
REMARK    2  A    between atoms: C_2  and  N_3
REMARK    3  A    between atoms: N_3  and  C_15
REMARK    4  A    between atoms: C_4  and  C_6
REMARK                            x       y       z     vdW  Elec       q    Type
REMARK                         _______ _______ _______ _____ _____    ______ ____
ROOT
ATOM      1  N   UNL     1       4.988   5.163  17.994  0.00  0.00    +0.000 N 
ATOM      2  C   UNL     1       3.813   5.455  18.746  0.00  0.00    +0.000 C 
ATOM      3  O   UNL     1       3.607   6.518  19.336  0.00  0.00    +0.000 OA
ENDROOT
BRANCH   2   4
ATOM      4  C   UNL     1       2.688   4.488  18.814  0.00  0.00    +0.000 A 
ATOM      5  C   UNL     1       1.823   4.315  17.725  0.00  0.00    +0.000 A 
ATOM      6  C   UNL     1       0.780   3.378  17.757  0.00  0.00    +0.000 A 
ATOM      7  C   UNL     1       0.507   2.678  18.926  0.00  0.00    +0.000 A 
ATOM      8  C   UNL     1       1.289   2.950  20.033  0.00  0.00    +0.000 A 
ATOM      9  C   UNL     1       2.357   3.824  19.989  0.00  0.00    +0.000 A 
ATOM     10  O   UNL     1       2.964   3.921  21.205  0.00  0.00    +0.000 OA
ATOM     11  C   UNL     1       2.135   3.062  22.015  0.00  0.00    +0.000 C 
ATOM     12  O   UNL     1       1.085   2.419  21.270  0.00  0.00    +0.000 OA
ENDBRANCH   2   4
BRANCH   1  13
ATOM     13  C   UNL     1       6.128   6.071  18.043  0.00  0.00    +0.000 A 
ATOM     14  C   UNL     1       6.188   7.228  17.251  0.00  0.00    +0.000 A 
ATOM     15  C   UNL     1       7.275   8.115  17.323  0.00  0.00    +0.000 A 
ATOM     16  C   UNL     1       8.329   7.862  18.191  0.00  0.00    +0.000 A 
ATOM     17  C   UNL     1       8.293   6.733  19.001  0.00  0.00    +0.000 A 
ATOM     18  C   UNL     1       7.198   5.856  18.933  0.00  0.00    +0.000 A 
ENDBRANCH   1  13
BRANCH   1  20
ATOM     19  C   UNL     1       5.406   3.994  15.767  0.00  0.00    +0.000 C 
ATOM     20  C   UNL     1       5.228   3.882  17.282  0.00  0.00    +0.000 C 
ENDBRANCH   1  20
TORSDOF 3
ENDMDL
MODEL 8
REMARK VINA RESULT:      -6.6      2.102      6.280
REMARK  Name = 
REMARK  4 active torsions:
REMARK  status: ('A' for Active; 'I' for Inactive)
REMARK    1  A    between atoms: C_1  and  C_2
REMARK    2  A    between atoms: C_2  and  N_3
REMARK    3  A    between atoms: N_3  and  C_15
REMARK    4  A    between atoms: C_4  and  C_6
REMARK                            x       y       z     vdW  Elec       q    Type
REMARK                         _______ _______ _______ _____ _____    ______ ____
ROOT
ATOM      1  N   UNL     1       4.984   5.171  18.056  0.00  0.00    +0.000 N 
ATOM      2  C   UNL     1       3.784   5.470  18.764  0.00  0.00    +0.000 C 
ATOM      3  O   UNL     1       3.547   6.546  19.317  0.00  0.00    +0.000 OA
ENDROOT
BRANCH   2   4
ATOM      4  C   UNL     1       2.669   4.490  18.828  0.00  0.00    +0.000 A 
ATOM      5  C   UNL     1       1.807   4.312  17.737  0.00  0.00    +0.000 A 
ATOM      6  C   UNL     1       0.774   3.364  17.765  0.00  0.00    +0.000 A 
ATOM      7  C   UNL     1       0.507   2.657  18.932  0.00  0.00    +0.000 A 
ATOM      8  C   UNL     1       1.285   2.933  20.041  0.00  0.00    +0.000 A 
ATOM      9  C   UNL     1       2.344   3.819  20.000  0.00  0.00    +0.000 A 
ATOM     10  O   UNL     1       2.949   3.918  21.217  0.00  0.00    +0.000 OA
ATOM     11  C   UNL     1       2.129   3.047  22.024  0.00  0.00    +0.000 C 
ATOM     12  O   UNL     1       1.086   2.397  21.275  0.00  0.00    +0.000 OA
ENDBRANCH   2   4
BRANCH   1  13
ATOM     13  C   UNL     1       6.110   6.095  18.111  0.00  0.00    +0.000 A 
ATOM     14  C   UNL     1       7.211   5.874  18.953  0.00  0.00    +0.000 A 
ATOM     15  C   UNL     1       8.306   6.752  18.981  0.00  0.00    +0.000 A 
ATOM     16  C   UNL     1       8.325   7.875  18.163  0.00  0.00    +0.000 A 
ATOM     17  C   UNL     1       7.257   8.115  17.306  0.00  0.00    +0.000 A 
ATOM     18  C   UNL     1       6.170   7.227  17.275  0.00  0.00    +0.000 A 
ENDBRANCH   1  13
BRANCH   1  20
ATOM     19  C   UNL     1       5.406   3.932  15.867  0.00  0.00    +0.000 C 
ATOM     20  C   UNL     1       5.260   3.874  17.389  0.00  0.00    +0.000 C 
ENDBRANCH   1  20
TORSDOF 3
ENDMDL
MODEL 9
REMARK VINA RESULT:      -6.4      3.081      4.399
REMARK  Name = 
REMARK  4 active torsions:
REMARK  status: ('A' for Active; 'I' for Inactive)
REMARK    1  A    between atoms: C_1  and  C_2
REMARK    2  A    between atoms: C_2  and  N_3
REMARK    3  A    between atoms: N_3  and  C_15
REMARK    4  A    between atoms: C_4  and  C_6
REMARK                            x       y       z     vdW  Elec       q    Type
REMARK                         _______ _______ _______ _____ _____    ______ ____
ROOT
ATOM      1  N   UNL     1       1.806   7.288  19.848  0.00  0.00    +0.000 N 
ATOM      2  C   UNL     1       2.058   5.896  20.017  0.00  0.00    +0.000 C 
ATOM      3  O   UNL     1       1.670   5.227  20.977  0.00  0.00    +0.000 OA
ENDROOT
BRANCH   2   4
ATOM      4  C   UNL     1       2.774   5.116  18.975  0.00  0.00    +0.000 A 
ATOM      5  C   UNL     1       2.074   4.267  18.107  0.00  0.00    +0.000 A 
ATOM      6  C   UNL     1       2.728   3.553  17.092  0.00  0.00    +0.000 A 
ATOM      7  C   UNL     1       4.115   3.581  17.002  0.00  0.00    +0.000 A 
ATOM      8  C   UNL     1       4.803   4.323  17.944  0.00  0.00    +0.000 A 
ATOM      9  C   UNL     1       4.161   5.078  18.905  0.00  0.00    +0.000 A 
ATOM     10  O   UNL     1       5.057   5.714  19.712  0.00  0.00    +0.000 OA
ATOM     11  C   UNL     1       6.313   5.235  19.187  0.00  0.00    +0.000 C 
ATOM     12  O   UNL     1       6.159   4.373  18.045  0.00  0.00    +0.000 OA
ENDBRANCH   2   4
BRANCH   1  13
ATOM     13  C   UNL     1       1.213   8.058  20.935  0.00  0.00    +0.000 A 
ATOM     14  C   UNL     1      -0.172   8.089  21.151  0.00  0.00    +0.000 A 
ATOM     15  C   UNL     1      -0.736   8.809  22.217  0.00  0.00    +0.000 A 
ATOM     16  C   UNL     1       0.078   9.516  23.093  0.00  0.00    +0.000 A 
ATOM     17  C   UNL     1       1.456   9.493  22.916  0.00  0.00    +0.000 A 
ATOM     18  C   UNL     1       2.014   8.763  21.854  0.00  0.00    +0.000 A 
ENDBRANCH   1  13
BRANCH   1  20
ATOM     19  C   UNL     1       1.314   9.179  18.208  0.00  0.00    +0.000 C 
ATOM     20  C   UNL     1       2.273   8.087  18.686  0.00  0.00    +0.000 C 
ENDBRANCH   1  20
TORSDOF 3
ENDMDL
