MODEL 1
REMARK VINA RESULT:      -9.3      0.000      0.000
REMARK  Name = 
REMARK  13 active torsions:
REMARK  status: ('A' for Active; 'I' for Inactive)
REMARK    1  A    between atoms: C_1  and  C_2
REMARK    2  A    between atoms: C_2  and  C_3
REMARK    3  A    between atoms: C_6  and  C_7
REMARK    4  A    between atoms: C_9  and  C_10
REMARK    5  A    between atoms: N_13  and  C_14
REMARK    6  A    between atoms: C_14  and  C_15
REMARK    7  A    between atoms: C_18  and  C_19
REMARK    8  A    between atoms: C_19  and  C_20
REMARK    9  A    between atoms: C_19  and  C_26
REMARK   10  A    between atoms: C_26  and  C_27
REMARK   11  A    between atoms: C_26  and  C_29
REMARK   12  A    between atoms: C_27  and  C_28
REMARK   13  A    between atoms: C_29  and  O_31
REMARK                            x       y       z     vdW  Elec       q    Type
REMARK                         _______ _______ _______ _____ _____    ______ ____
ROOT
ATOM      1  C   UNL     1       1.237   9.715  18.946  0.00  0.00    +0.000 A 
ATOM      2  C   UNL     1       1.821   8.926  17.946  0.00  0.00    +0.000 A 
ATOM      3  C   UNL     1       2.311   7.635  18.232  0.00  0.00    +0.000 A 
ATOM      4  C   UNL     1       2.244   7.085  19.526  0.00  0.00    +0.000 A 
ATOM      5  C   UNL     1       1.586   7.851  20.499  0.00  0.00    +0.000 A 
ATOM      6  C   UNL     1       1.078   9.134  20.212  0.00  0.00    +0.000 A 
ENDROOT
BRANCH   1   7
ATOM      7  C   UNL     1       0.937  11.186  18.727  0.00  0.00    +0.000 C 
BRANCH   7  18
ATOM      8  C   UNL     1      -0.930  12.032  20.253  0.00  0.00    +0.000 A 
ATOM      9  N   UNL     1      -2.239  12.188  20.199  0.00  0.00    +0.000 NA
ATOM     10  C   UNL     1      -2.617  11.709  18.979  0.00  0.00    +0.000 A 
ATOM     11  C   UNL     1      -3.899  11.501  18.453  0.00  0.00    +0.000 A 
ATOM     12  C   UNL     1      -5.157  11.834  19.192  0.00  0.00    +0.000 C 
ATOM     13  C   UNL     1      -3.944  10.914  17.180  0.00  0.00    +0.000 A 
ATOM     14  C   UNL     1      -2.760  10.570  16.514  0.00  0.00    +0.000 A 
ATOM     15  C   UNL     1      -2.838   9.949  15.149  0.00  0.00    +0.000 C 
ATOM     16  N   UNL     1      -1.508  10.760  17.009  0.00  0.00    +0.000 NA
ATOM     17  C   UNL     1      -1.510  11.333  18.230  0.00  0.00    +0.000 A 
ATOM     18  N   UNL     1      -0.422  11.614  19.031  0.00  0.00    +0.000 N 
BRANCH   8  20
ATOM     19  C   UNL     1      -0.847  11.338  22.624  0.00  0.00    +0.000 C 
ATOM     20  C   UNL     1      -0.167  12.151  21.530  0.00  0.00    +0.000 C 
ENDBRANCH   8  20
ENDBRANCH   7  18
ENDBRANCH   1   7
BRANCH   4  21
ATOM     21  C   UNL     1       2.928   5.728  19.832  0.00  0.00    +0.000 C 
BRANCH  21  22
ATOM     22  C   UNL     1       4.026   5.377  18.815  0.00  0.00    +0.000 A 
ATOM     23  C   UNL     1       3.739   5.018  17.486  0.00  0.00    +0.000 A 
ATOM     24  C   UNL     1       4.758   4.674  16.593  0.00  0.00    +0.000 A 
ATOM     25  C   UNL     1       6.081   4.646  17.020  0.00  0.00    +0.000 A 
ATOM     26  C   UNL     1       6.387   4.980  18.336  0.00  0.00    +0.000 A 
ATOM     27  C   UNL     1       5.371   5.354  19.223  0.00  0.00    +0.000 A 
ENDBRANCH  21  22
BRANCH  21  28
ATOM     28  C   UNL     1       1.935   4.526  20.025  0.00  0.00    +0.000 C 
BRANCH  28  29
ATOM     29  C   UNL     1       1.392   3.881  18.719  0.00  0.00    +0.000 C 
ATOM     30  C   UNL     1       0.667   2.545  18.877  0.00  0.00    +0.000 C 
ENDBRANCH  28  29
BRANCH  28  31
ATOM     31  C   UNL     1       2.563   3.416  20.851  0.00  0.00    +0.000 C 
ATOM     32  O   UNL     1       3.415   2.630  20.442  0.00  0.00    +0.000 OA
BRANCH  31  33
ATOM     33  O   UNL     1       2.022   3.296  22.084  0.00  0.00    +0.000 OA
ATOM     34  H   UNL     1       2.142   4.075  22.657  0.00  0.00    +0.000 HD
ENDBRANCH  31  33
ENDBRANCH  28  31
ENDBRANCH  21  28
ENDBRANCH   4  21
TORSDOF 9
ENDMDL
MODEL 2
REMARK VINA RESULT:      -9.1      3.640      9.082
REMARK  Name = 
REMARK  13 active torsions:
REMARK  status: ('A' for Active; 'I' for Inactive)
REMARK    1  A    between atoms: C_1  and  C_2
REMARK    2  A    between atoms: C_2  and  C_3
REMARK    3  A    between atoms: C_6  and  C_7
REMARK    4  A    between atoms: C_9  and  C_10
REMARK    5  A    between atoms: N_13  and  C_14
REMARK    6  A    between atoms: C_14  and  C_15
REMARK    7  A    between atoms: C_18  and  C_19
REMARK    8  A    between atoms: C_19  and  C_20
REMARK    9  A    between atoms: C_19  and  C_26
REMARK   10  A    between atoms: C_26  and  C_27
REMARK   11  A    between atoms: C_26  and  C_29
REMARK   12  A    between atoms: C_27  and  C_28
REMARK   13  A    between atoms: C_29  and  O_31
REMARK                            x       y       z     vdW  Elec       q    Type
REMARK                         _______ _______ _______ _____ _____    ______ ____
ROOT
ATOM      1  C   UNL     1       2.237   7.246  19.750  0.00  0.00    +0.000 A 
ATOM      2  C   UNL     1       2.327   8.036  18.597  0.00  0.00    +0.000 A 
ATOM      3  C   UNL     1       1.675   9.284  18.517  0.00  0.00    +0.000 A 
ATOM      4  C   UNL     1       0.904   9.787  19.582  0.00  0.00    +0.000 A 
ATOM      5  C   UNL     1       0.886   9.024  20.759  0.00  0.00    +0.000 A 
ATOM      6  C   UNL     1       1.553   7.786  20.847  0.00  0.00    +0.000 A 
ENDROOT
BRANCH   1   7
ATOM      7  C   UNL     1       2.710   5.804  19.767  0.00  0.00    +0.000 C 
BRANCH   7  18
ATOM      8  C   UNL     1       2.617   4.416  17.623  0.00  0.00    +0.000 A 
ATOM      9  N   UNL     1       3.447   4.036  16.670  0.00  0.00    +0.000 NA
ATOM     10  C   UNL     1       4.667   4.533  17.023  0.00  0.00    +0.000 A 
ATOM     11  C   UNL     1       5.927   4.315  16.450  0.00  0.00    +0.000 A 
ATOM     12  C   UNL     1       6.145   3.464  15.239  0.00  0.00    +0.000 C 
ATOM     13  C   UNL     1       7.006   4.920  17.111  0.00  0.00    +0.000 A 
ATOM     14  C   UNL     1       6.794   5.683  18.267  0.00  0.00    +0.000 A 
ATOM     15  C   UNL     1       7.968   6.324  18.949  0.00  0.00    +0.000 C 
ATOM     16  N   UNL     1       5.581   5.902  18.840  0.00  0.00    +0.000 NA
ATOM     17  C   UNL     1       4.572   5.310  18.171  0.00  0.00    +0.000 A 
ATOM     18  N   UNL     1       3.234   5.289  18.509  0.00  0.00    +0.000 N 
BRANCH   8  20
ATOM     19  C   UNL     1       1.311   2.592  18.660  0.00  0.00    +0.000 C 
ATOM     20  C   UNL     1       1.254   3.828  17.772  0.00  0.00    +0.000 C 
ENDBRANCH   8  20
ENDBRANCH   7  18
ENDBRANCH   1   7
BRANCH   4  21
ATOM     21  C   UNL     1       0.081  11.089  19.400  0.00  0.00    +0.000 C 
BRANCH  21  22
ATOM     22  C   UNL     1      -1.207  10.867  18.591  0.00  0.00    +0.000 A 
ATOM     23  C   UNL     1      -2.440  11.435  18.961  0.00  0.00    +0.000 A 
ATOM     24  C   UNL     1      -3.600  11.189  18.222  0.00  0.00    +0.000 A 
ATOM     25  C   UNL     1      -3.561  10.342  17.121  0.00  0.00    +0.000 A 
ATOM     26  C   UNL     1      -2.356   9.754  16.747  0.00  0.00    +0.000 A 
ATOM     27  C   UNL     1      -1.186  10.023  17.467  0.00  0.00    +0.000 A 
ENDBRANCH  21  22
BRANCH  21  28
ATOM     28  C   UNL     1       0.900  12.303  18.833  0.00  0.00    +0.000 C 
BRANCH  28  29
ATOM     29  C   UNL     1       0.060  13.520  18.353  0.00  0.00    +0.000 C 
ATOM     30  C   UNL     1      -0.453  14.458  19.446  0.00  0.00    +0.000 C 
ENDBRANCH  28  29
BRANCH  28  31
ATOM     31  C   UNL     1       1.903  12.819  19.852  0.00  0.00    +0.000 C 
ATOM     32  O   UNL     1       1.808  12.675  21.069  0.00  0.00    +0.000 OA
BRANCH  31  33
ATOM     33  O   UNL     1       2.892  13.558  19.301  0.00  0.00    +0.000 OA
ATOM     34  H   UNL     1       2.592  14.214  18.646  0.00  0.00    +0.000 HD
ENDBRANCH  31  33
ENDBRANCH  28  31
ENDBRANCH  21  28
ENDBRANCH   4  21
TORSDOF 9
ENDMDL
MODEL 3
REMARK VINA RESULT:      -9.1      0.969      1.244
REMARK  Name = 
REMARK  13 active torsions:
REMARK  status: ('A' for Active; 'I' for Inactive)
REMARK    1  A    between atoms: C_1  and  C_2
REMARK    2  A    between atoms: C_2  and  C_3
REMARK    3  A    between atoms: C_6  and  C_7
REMARK    4  A    between atoms: C_9  and  C_10
REMARK    5  A    between atoms: N_13  and  C_14
REMARK    6  A    between atoms: C_14  and  C_15
REMARK    7  A    between atoms: C_18  and  C_19
REMARK    8  A    between atoms: C_19  and  C_20
REMARK    9  A    between atoms: C_19  and  C_26
REMARK   10  A    between atoms: C_26  and  C_27
REMARK   11  A    between atoms: C_26  and  C_29
REMARK   12  A    between atoms: C_27  and  C_28
REMARK   13  A    between atoms: C_29  and  O_31
REMARK                            x       y       z     vdW  Elec       q    Type
REMARK                         _______ _______ _______ _____ _____    ______ ____
ROOT
ATOM      1  C   UNL     1       1.047  10.022  19.130  0.00  0.00    +0.000 A 
ATOM      2  C   UNL     1       1.437   9.323  17.981  0.00  0.00    +0.000 A 
ATOM      3  C   UNL     1       1.935   8.006  18.065  0.00  0.00    +0.000 A 
ATOM      4  C   UNL     1       2.068   7.340  19.298  0.00  0.00    +0.000 A 
ATOM      5  C   UNL     1       1.599   8.020  20.431  0.00  0.00    +0.000 A 
ATOM      6  C   UNL     1       1.084   9.328  20.348  0.00  0.00    +0.000 A 
ENDROOT
BRANCH   1   7
ATOM      7  C   UNL     1       0.753  11.510  19.096  0.00  0.00    +0.000 C 
BRANCH   7  18
ATOM      8  C   UNL     1      -1.186  12.209  20.606  0.00  0.00    +0.000 A 
ATOM      9  N   UNL     1      -2.495  12.354  20.510  0.00  0.00    +0.000 NA
ATOM     10  C   UNL     1      -2.816  11.972  19.241  0.00  0.00    +0.000 A 
ATOM     11  C   UNL     1      -4.072  11.793  18.646  0.00  0.00    +0.000 A 
ATOM     12  C   UNL     1      -5.364  12.051  19.357  0.00  0.00    +0.000 C 
ATOM     13  C   UNL     1      -4.056  11.311  17.329  0.00  0.00    +0.000 A 
ATOM     14  C   UNL     1      -2.841  11.037  16.687  0.00  0.00    +0.000 A 
ATOM     15  C   UNL     1      -2.855  10.528  15.274  0.00  0.00    +0.000 C 
ATOM     16  N   UNL     1      -1.614  11.199  17.248  0.00  0.00    +0.000 NA
ATOM     17  C   UNL     1      -1.674  11.671  18.510  0.00  0.00    +0.000 A 
ATOM     18  N   UNL     1      -0.624  11.897  19.376  0.00  0.00    +0.000 N 
BRANCH   8  20
ATOM     19  C   UNL     1      -1.005  11.120  22.817  0.00  0.00    +0.000 C 
ATOM     20  C   UNL     1      -0.478  12.231  21.919  0.00  0.00    +0.000 C 
ENDBRANCH   8  20
ENDBRANCH   7  18
ENDBRANCH   1   7
BRANCH   4  21
ATOM     21  C   UNL     1       2.758   5.953  19.363  0.00  0.00    +0.000 C 
BRANCH  21  22
ATOM     22  C   UNL     1       4.110   5.930  18.632  0.00  0.00    +0.000 A 
ATOM     23  C   UNL     1       5.258   5.334  19.185  0.00  0.00    +0.000 A 
ATOM     24  C   UNL     1       6.481   5.356  18.509  0.00  0.00    +0.000 A 
ATOM     25  C   UNL     1       6.592   6.006  17.286  0.00  0.00    +0.000 A 
ATOM     26  C   UNL     1       5.473   6.619  16.728  0.00  0.00    +0.000 A 
ATOM     27  C   UNL     1       4.240   6.571  17.388  0.00  0.00    +0.000 A 
ENDBRANCH  21  22
BRANCH  21  28
ATOM     28  C   UNL     1       1.852   4.752  18.910  0.00  0.00    +0.000 C 
BRANCH  28  29
ATOM     29  C   UNL     1       2.341   3.972  17.657  0.00  0.00    +0.000 C 
ATOM     30  C   UNL     1       2.967   2.602  17.917  0.00  0.00    +0.000 C 
ENDBRANCH  28  29
BRANCH  28  31
ATOM     31  C   UNL     1       1.671   3.741  20.031  0.00  0.00    +0.000 C 
ATOM     32  O   UNL     1       2.528   3.454  20.864  0.00  0.00    +0.000 OA
BRANCH  31  33
ATOM     33  O   UNL     1       0.488   3.091  19.977  0.00  0.00    +0.000 OA
ATOM     34  H   UNL     1       0.359   2.545  19.180  0.00  0.00    +0.000 HD
ENDBRANCH  31  33
ENDBRANCH  28  31
ENDBRANCH  21  28
ENDBRANCH   4  21
TORSDOF 9
ENDMDL
MODEL 4
REMARK VINA RESULT:      -9.1      3.759      9.088
REMARK  Name = 
REMARK  13 active torsions:
REMARK  status: ('A' for Active; 'I' for Inactive)
REMARK    1  A    between atoms: C_1  and  C_2
REMARK    2  A    between atoms: C_2  and  C_3
REMARK    3  A    between atoms: C_6  and  C_7
REMARK    4  A    between atoms: C_9  and  C_10
REMARK    5  A    between atoms: N_13  and  C_14
REMARK    6  A    between atoms: C_14  and  C_15
REMARK    7  A    between atoms: C_18  and  C_19
REMARK    8  A    between atoms: C_19  and  C_20
REMARK    9  A    between atoms: C_19  and  C_26
REMARK   10  A    between atoms: C_26  and  C_27
REMARK   11  A    between atoms: C_26  and  C_29
REMARK   12  A    between atoms: C_27  and  C_28
REMARK   13  A    between atoms: C_29  and  O_31
REMARK                            x       y       z     vdW  Elec       q    Type
REMARK                         _______ _______ _______ _____ _____    ______ ____
ROOT
ATOM      1  C   UNL     1       2.278   6.921  19.701  0.00  0.00    +0.000 A 
ATOM      2  C   UNL     1       1.459   7.183  20.807  0.00  0.00    +0.000 A 
ATOM      3  C   UNL     1       0.740   8.392  20.909  0.00  0.00    +0.000 A 
ATOM      4  C   UNL     1       0.815   9.386  19.915  0.00  0.00    +0.000 A 
ATOM      5  C   UNL     1       1.575   9.079  18.776  0.00  0.00    +0.000 A 
ATOM      6  C   UNL     1       2.279   7.864  18.664  0.00  0.00    +0.000 A 
ENDROOT
BRANCH   1   7
ATOM      7  C   UNL     1       3.250   5.755  19.688  0.00  0.00    +0.000 C 
BRANCH   7  18
ATOM      8  C   UNL     1       3.100   4.118  17.732  0.00  0.00    +0.000 A 
ATOM      9  N   UNL     1       3.771   3.855  16.626  0.00  0.00    +0.000 NA
ATOM     10  C   UNL     1       4.834   4.710  16.628  0.00  0.00    +0.000 A 
ATOM     11  C   UNL     1       5.941   4.770  15.771  0.00  0.00    +0.000 A 
ATOM     12  C   UNL     1       6.127   3.856  14.601  0.00  0.00    +0.000 C 
ATOM     13  C   UNL     1       6.909   5.730  16.097  0.00  0.00    +0.000 A 
ATOM     14  C   UNL     1       6.743   6.555  17.218  0.00  0.00    +0.000 A 
ATOM     15  C   UNL     1       7.793   7.579  17.539  0.00  0.00    +0.000 C 
ATOM     16  N   UNL     1       5.679   6.509  18.063  0.00  0.00    +0.000 NA
ATOM     17  C   UNL     1       4.770   5.579  17.709  0.00  0.00    +0.000 A 
ATOM     18  N   UNL     1       3.610   5.238  18.375  0.00  0.00    +0.000 N 
BRANCH   8  20
ATOM     19  C   UNL     1       2.677   1.940  18.820  0.00  0.00    +0.000 C 
ATOM     20  C   UNL     1       2.044   3.206  18.257  0.00  0.00    +0.000 C 
ENDBRANCH   8  20
ENDBRANCH   7  18
ENDBRANCH   1   7
BRANCH   4  21
ATOM     21  C   UNL     1       0.131  10.760  20.134  0.00  0.00    +0.000 C 
BRANCH  21  22
ATOM     22  C   UNL     1      -1.101  10.958  19.236  0.00  0.00    +0.000 A 
ATOM     23  C   UNL     1      -2.160  11.815  19.584  0.00  0.00    +0.000 A 
ATOM     24  C   UNL     1      -3.282  11.950  18.761  0.00  0.00    +0.000 A 
ATOM     25  C   UNL     1      -3.385  11.204  17.593  0.00  0.00    +0.000 A 
ATOM     26  C   UNL     1      -2.357  10.334  17.238  0.00  0.00    +0.000 A 
ATOM     27  C   UNL     1      -1.219  10.221  18.045  0.00  0.00    +0.000 A 
ENDBRANCH  21  22
BRANCH  21  28
ATOM     28  C   UNL     1       1.100  11.993  20.040  0.00  0.00    +0.000 C 
BRANCH  28  29
ATOM     29  C   UNL     1       1.222  12.651  18.636  0.00  0.00    +0.000 C 
ATOM     30  C   UNL     1       2.630  12.733  18.050  0.00  0.00    +0.000 C 
ENDBRANCH  28  29
BRANCH  28  31
ATOM     31  C   UNL     1       0.702  13.086  21.019  0.00  0.00    +0.000 C 
ATOM     32  O   UNL     1       0.914  14.286  20.858  0.00  0.00    +0.000 OA
BRANCH  31  33
ATOM     33  O   UNL     1       0.165  12.609  22.164  0.00  0.00    +0.000 OA
ATOM     34  H   UNL     1       0.132  13.251  22.896  0.00  0.00    +0.000 HD
ENDBRANCH  31  33
ENDBRANCH  28  31
ENDBRANCH  21  28
ENDBRANCH   4  21
TORSDOF 9
ENDMDL
MODEL 5
REMARK VINA RESULT:      -9.1      3.807      8.948
REMARK  Name = 
REMARK  13 active torsions:
REMARK  status: ('A' for Active; 'I' for Inactive)
REMARK    1  A    between atoms: C_1  and  C_2
REMARK    2  A    between atoms: C_2  and  C_3
REMARK    3  A    between atoms: C_6  and  C_7
REMARK    4  A    between atoms: C_9  and  C_10
REMARK    5  A    between atoms: N_13  and  C_14
REMARK    6  A    between atoms: C_14  and  C_15
REMARK    7  A    between atoms: C_18  and  C_19
REMARK    8  A    between atoms: C_19  and  C_20
REMARK    9  A    between atoms: C_19  and  C_26
REMARK   10  A    between atoms: C_26  and  C_27
REMARK   11  A    between atoms: C_26  and  C_29
REMARK   12  A    between atoms: C_27  and  C_28
REMARK   13  A    between atoms: C_29  and  O_31
REMARK                            x       y       z     vdW  Elec       q    Type
REMARK                         _______ _______ _______ _____ _____    ______ ____
ROOT
ATOM      1  C   UNL     1       2.339   7.478  19.328  0.00  0.00    +0.000 A 
ATOM      2  C   UNL     1       2.388   8.184  18.119  0.00  0.00    +0.000 A 
ATOM      3  C   UNL     1       1.667   9.384  17.949  0.00  0.00    +0.000 A 
ATOM      4  C   UNL     1       0.867   9.921  18.974  0.00  0.00    +0.000 A 
ATOM      5  C   UNL     1       0.890   9.249  20.205  0.00  0.00    +0.000 A 
ATOM      6  C   UNL     1       1.624   8.060  20.384  0.00  0.00    +0.000 A 
ENDROOT
BRANCH   1   7
ATOM      7  C   UNL     1       2.892   6.070  19.452  0.00  0.00    +0.000 C 
BRANCH   7  18
ATOM      8  C   UNL     1       2.831   4.323  17.588  0.00  0.00    +0.000 A 
ATOM      9  N   UNL     1       3.588   3.952  16.572  0.00  0.00    +0.000 NA
ATOM     10  C   UNL     1       4.697   4.744  16.632  0.00  0.00    +0.000 A 
ATOM     11  C   UNL     1       5.884   4.686  15.889  0.00  0.00    +0.000 A 
ATOM     12  C   UNL     1       6.125   3.691  14.798  0.00  0.00    +0.000 C 
ATOM     13  C   UNL     1       6.874   5.610  16.255  0.00  0.00    +0.000 A 
ATOM     14  C   UNL     1       6.652   6.512  17.303  0.00  0.00    +0.000 A 
ATOM     15  C   UNL     1       7.728   7.494  17.669  0.00  0.00    +0.000 C 
ATOM     16  N   UNL     1       5.510   6.581  18.038  0.00  0.00    +0.000 NA
ATOM     17  C   UNL     1       4.583   5.682  17.649  0.00  0.00    +0.000 A 
ATOM     18  N   UNL     1       3.345   5.451  18.213  0.00  0.00    +0.000 N 
BRANCH   8  20
ATOM     19  C   UNL     1       2.159   2.158  18.571  0.00  0.00    +0.000 C 
ATOM     20  C   UNL     1       1.674   3.507  18.056  0.00  0.00    +0.000 C 
ENDBRANCH   8  20
ENDBRANCH   7  18
ENDBRANCH   1   7
BRANCH   4  21
ATOM     21  C   UNL     1      -0.027  11.158  18.698  0.00  0.00    +0.000 C 
BRANCH  21  22
ATOM     22  C   UNL     1       0.639  12.476  19.125  0.00  0.00    +0.000 A 
ATOM     23  C   UNL     1       0.403  13.693  18.460  0.00  0.00    +0.000 A 
ATOM     24  C   UNL     1       1.048  14.869  18.853  0.00  0.00    +0.000 A 
ATOM     25  C   UNL     1       1.969  14.847  19.894  0.00  0.00    +0.000 A 
ATOM     26  C   UNL     1       2.233  13.650  20.554  0.00  0.00    +0.000 A 
ATOM     27  C   UNL     1       1.565  12.478  20.183  0.00  0.00    +0.000 A 
ENDBRANCH  21  22
BRANCH  21  28
ATOM     28  C   UNL     1      -1.484  11.051  19.274  0.00  0.00    +0.000 C 
BRANCH  28  29
ATOM     29  C   UNL     1      -1.945  12.235  20.171  0.00  0.00    +0.000 C 
ATOM     30  C   UNL     1      -1.823  12.025  21.680  0.00  0.00    +0.000 C 
ENDBRANCH  28  29
BRANCH  28  31
ATOM     31  C   UNL     1      -2.510  10.900  18.162  0.00  0.00    +0.000 C 
ATOM     32  O   UNL     1      -3.085   9.853  17.873  0.00  0.00    +0.000 OA
BRANCH  31  33
ATOM     33  O   UNL     1      -2.673  12.024  17.430  0.00  0.00    +0.000 OA
ATOM     34  H   UNL     1      -2.796  12.836  17.954  0.00  0.00    +0.000 HD
ENDBRANCH  31  33
ENDBRANCH  28  31
ENDBRANCH  21  28
ENDBRANCH   4  21
TORSDOF 9
ENDMDL
MODEL 6
REMARK VINA RESULT:      -9.1      1.658      3.165
REMARK  Name = 
REMARK  13 active torsions:
REMARK  status: ('A' for Active; 'I' for Inactive)
REMARK    1  A    between atoms: C_1  and  C_2
REMARK    2  A    between atoms: C_2  and  C_3
REMARK    3  A    between atoms: C_6  and  C_7
REMARK    4  A    between atoms: C_9  and  C_10
REMARK    5  A    between atoms: N_13  and  C_14
REMARK    6  A    between atoms: C_14  and  C_15
REMARK    7  A    between atoms: C_18  and  C_19
REMARK    8  A    between atoms: C_19  and  C_20
REMARK    9  A    between atoms: C_19  and  C_26
REMARK   10  A    between atoms: C_26  and  C_27
REMARK   11  A    between atoms: C_26  and  C_29
REMARK   12  A    between atoms: C_27  and  C_28
REMARK   13  A    between atoms: C_29  and  O_31
REMARK                            x       y       z     vdW  Elec       q    Type
REMARK                         _______ _______ _______ _____ _____    ______ ____
ROOT
ATOM      1  C   UNL     1       1.022  10.146  19.174  0.00  0.00    +0.000 A 
ATOM      2  C   UNL     1       1.375   9.773  17.871  0.00  0.00    +0.000 A 
ATOM      3  C   UNL     1       1.851   8.476  17.588  0.00  0.00    +0.000 A 
ATOM      4  C   UNL     1       1.999   7.504  18.596  0.00  0.00    +0.000 A 
ATOM      5  C   UNL     1       1.568   7.864  19.882  0.00  0.00    +0.000 A 
ATOM      6  C   UNL     1       1.075   9.153  20.163  0.00  0.00    +0.000 A 
ENDROOT
BRANCH   1   7
ATOM      7  C   UNL     1       0.754  11.593  19.545  0.00  0.00    +0.000 C 
BRANCH   7  18
ATOM      8  C   UNL     1      -1.254  12.160  21.019  0.00  0.00    +0.000 A 
ATOM      9  N   UNL     1      -2.560  12.295  20.880  0.00  0.00    +0.000 NA
ATOM     10  C   UNL     1      -2.824  11.997  19.575  0.00  0.00    +0.000 A 
ATOM     11  C   UNL     1      -4.053  11.843  18.919  0.00  0.00    +0.000 A 
ATOM     12  C   UNL     1      -5.375  12.035  19.592  0.00  0.00    +0.000 C 
ATOM     13  C   UNL     1      -3.977  11.454  17.574  0.00  0.00    +0.000 A 
ATOM     14  C   UNL     1      -2.733  11.239  16.965  0.00  0.00    +0.000 A 
ATOM     15  C   UNL     1      -2.683  10.829  15.521  0.00  0.00    +0.000 C 
ATOM     16  N   UNL     1      -1.532  11.379  17.585  0.00  0.00    +0.000 NA
ATOM     17  C   UNL     1      -1.649  11.761  18.873  0.00  0.00    +0.000 A 
ATOM     18  N   UNL     1      -0.638  11.941  19.794  0.00  0.00    +0.000 N 
BRANCH   8  20
ATOM     19  C   UNL     1      -0.843  10.743  23.001  0.00  0.00    +0.000 C 
ATOM     20  C   UNL     1      -0.599  12.102  22.358  0.00  0.00    +0.000 C 
ENDBRANCH   8  20
ENDBRANCH   7  18
ENDBRANCH   1   7
BRANCH   4  21
ATOM     21  C   UNL     1       2.666   6.142  18.273  0.00  0.00    +0.000 C 
BRANCH  21  22
ATOM     22  C   UNL     1       2.177   5.011  19.192  0.00  0.00    +0.000 A 
ATOM     23  C   UNL     1       2.435   4.995  20.574  0.00  0.00    +0.000 A 
ATOM     24  C   UNL     1       2.003   3.937  21.378  0.00  0.00    +0.000 A 
ATOM     25  C   UNL     1       1.337   2.856  20.813  0.00  0.00    +0.000 A 
ATOM     26  C   UNL     1       1.087   2.842  19.443  0.00  0.00    +0.000 A 
ATOM     27  C   UNL     1       1.491   3.915  18.641  0.00  0.00    +0.000 A 
ENDBRANCH  21  22
BRANCH  21  28
ATOM     28  C   UNL     1       4.235   6.183  18.216  0.00  0.00    +0.000 C 
BRANCH  28  29
ATOM     29  C   UNL     1       4.972   5.224  19.194  0.00  0.00    +0.000 C 
ATOM     30  C   UNL     1       6.486   5.403  19.301  0.00  0.00    +0.000 C 
ENDBRANCH  28  29
BRANCH  28  31
ATOM     31  C   UNL     1       4.747   5.882  16.816  0.00  0.00    +0.000 C 
ATOM     32  O   UNL     1       4.745   4.771  16.290  0.00  0.00    +0.000 OA
BRANCH  31  33
ATOM     33  O   UNL     1       5.311   6.952  16.213  0.00  0.00    +0.000 OA
ATOM     34  H   UNL     1       6.228   7.134  16.484  0.00  0.00    +0.000 HD
ENDBRANCH  31  33
ENDBRANCH  28  31
ENDBRANCH  21  28
ENDBRANCH   4  21
TORSDOF 9
ENDMDL
MODEL 7
REMARK VINA RESULT:      -9.1      3.683      9.152
REMARK  Name = 
REMARK  13 active torsions:
REMARK  status: ('A' for Active; 'I' for Inactive)
REMARK    1  A    between atoms: C_1  and  C_2
REMARK    2  A    between atoms: C_2  and  C_3
REMARK    3  A    between atoms: C_6  and  C_7
REMARK    4  A    between atoms: C_9  and  C_10
REMARK    5  A    between atoms: N_13  and  C_14
REMARK    6  A    between atoms: C_14  and  C_15
REMARK    7  A    between atoms: C_18  and  C_19
REMARK    8  A    between atoms: C_19  and  C_20
REMARK    9  A    between atoms: C_19  and  C_26
REMARK   10  A    between atoms: C_26  and  C_27
REMARK   11  A    between atoms: C_26  and  C_29
REMARK   12  A    between atoms: C_27  and  C_28
REMARK   13  A    between atoms: C_29  and  O_31
REMARK                            x       y       z     vdW  Elec       q    Type
REMARK                         _______ _______ _______ _____ _____    ______ ____
ROOT
ATOM      1  C   UNL     1       2.163   7.269  19.533  0.00  0.00    +0.000 A 
ATOM      2  C   UNL     1       1.432   7.710  20.643  0.00  0.00    +0.000 A 
ATOM      3  C   UNL     1       0.748   8.943  20.621  0.00  0.00    +0.000 A 
ATOM      4  C   UNL     1       0.772   9.784  19.492  0.00  0.00    +0.000 A 
ATOM      5  C   UNL     1       1.441   9.296  18.360  0.00  0.00    +0.000 A 
ATOM      6  C   UNL     1       2.109   8.056  18.374  0.00  0.00    +0.000 A 
ENDROOT
BRANCH   1   7
ATOM      7  C   UNL     1       3.107   6.083  19.620  0.00  0.00    +0.000 C 
BRANCH   7  18
ATOM      8  C   UNL     1       2.960   4.347  17.751  0.00  0.00    +0.000 A 
ATOM      9  N   UNL     1       3.659   3.995  16.688  0.00  0.00    +0.000 NA
ATOM     10  C   UNL     1       4.756   4.805  16.684  0.00  0.00    +0.000 A 
ATOM     11  C   UNL     1       5.895   4.772  15.869  0.00  0.00    +0.000 A 
ATOM     12  C   UNL     1       6.085   3.787  14.758  0.00  0.00    +0.000 C 
ATOM     13  C   UNL     1       6.891   5.710  16.180  0.00  0.00    +0.000 A 
ATOM     14  C   UNL     1       6.718   6.602  17.247  0.00  0.00    +0.000 A 
ATOM     15  C   UNL     1       7.799   7.600  17.552  0.00  0.00    +0.000 C 
ATOM     16  N   UNL     1       5.624   6.647  18.051  0.00  0.00    +0.000 NA
ATOM     17  C   UNL     1       4.689   5.735  17.714  0.00  0.00    +0.000 A 
ATOM     18  N   UNL     1       3.492   5.479  18.351  0.00  0.00    +0.000 N 
BRANCH   8  20
ATOM     19  C   UNL     1       2.408   2.355  19.105  0.00  0.00    +0.000 C 
ATOM     20  C   UNL     1       1.847   3.508  18.283  0.00  0.00    +0.000 C 
ENDBRANCH   8  20
ENDBRANCH   7  18
ENDBRANCH   1   7
BRANCH   4  21
ATOM     21  C   UNL     1       0.135  11.196  19.560  0.00  0.00    +0.000 C 
BRANCH  21  22
ATOM     22  C   UNL     1      -1.298  11.225  19.004  0.00  0.00    +0.000 A 
ATOM     23  C   UNL     1      -1.654  10.595  17.798  0.00  0.00    +0.000 A 
ATOM     24  C   UNL     1      -2.958  10.666  17.302  0.00  0.00    +0.000 A 
ATOM     25  C   UNL     1      -3.926  11.396  17.982  0.00  0.00    +0.000 A 
ATOM     26  C   UNL     1      -3.592  12.044  19.168  0.00  0.00    +0.000 A 
ATOM     27  C   UNL     1      -2.294  11.949  19.682  0.00  0.00    +0.000 A 
ENDBRANCH  21  22
BRANCH  21  28
ATOM     28  C   UNL     1       1.009  12.337  18.925  0.00  0.00    +0.000 C 
BRANCH  28  29
ATOM     29  C   UNL     1       0.221  13.506  18.269  0.00  0.00    +0.000 C 
ATOM     30  C   UNL     1      -0.063  14.713  19.161  0.00  0.00    +0.000 C 
ENDBRANCH  28  29
BRANCH  28  31
ATOM     31  C   UNL     1       1.952  12.947  19.950  0.00  0.00    +0.000 C 
ATOM     32  O   UNL     1       2.972  13.578  19.679  0.00  0.00    +0.000 OA
BRANCH  31  33
ATOM     33  O   UNL     1       1.622  12.647  21.225  0.00  0.00    +0.000 OA
ATOM     34  H   UNL     1       1.418  11.707  21.382  0.00  0.00    +0.000 HD
ENDBRANCH  31  33
ENDBRANCH  28  31
ENDBRANCH  21  28
ENDBRANCH   4  21
TORSDOF 9
ENDMDL
MODEL 8
REMARK VINA RESULT:      -9.0      3.620      8.990
REMARK  Name = 
REMARK  13 active torsions:
REMARK  status: ('A' for Active; 'I' for Inactive)
REMARK    1  A    between atoms: C_1  and  C_2
REMARK    2  A    between atoms: C_2  and  C_3
REMARK    3  A    between atoms: C_6  and  C_7
REMARK    4  A    between atoms: C_9  and  C_10
REMARK    5  A    between atoms: N_13  and  C_14
REMARK    6  A    between atoms: C_14  and  C_15
REMARK    7  A    between atoms: C_18  and  C_19
REMARK    8  A    between atoms: C_19  and  C_20
REMARK    9  A    between atoms: C_19  and  C_26
REMARK   10  A    between atoms: C_26  and  C_27
REMARK   11  A    between atoms: C_26  and  C_29
REMARK   12  A    between atoms: C_27  and  C_28
REMARK   13  A    between atoms: C_29  and  O_31
REMARK                            x       y       z     vdW  Elec       q    Type
REMARK                         _______ _______ _______ _____ _____    ______ ____
ROOT
ATOM      1  C   UNL     1       2.229   7.354  19.751  0.00  0.00    +0.000 A 
ATOM      2  C   UNL     1       2.207   8.133  18.587  0.00  0.00    +0.000 A 
ATOM      3  C   UNL     1       1.452   9.323  18.523  0.00  0.00    +0.000 A 
ATOM      4  C   UNL     1       0.688   9.777  19.614  0.00  0.00    +0.000 A 
ATOM      5  C   UNL     1       0.782   9.031  20.799  0.00  0.00    +0.000 A 
ATOM      6  C   UNL     1       1.550   7.853  20.872  0.00  0.00    +0.000 A 
ENDROOT
BRANCH   1   7
ATOM      7  C   UNL     1       2.819   5.956  19.763  0.00  0.00    +0.000 C 
BRANCH   7  18
ATOM      8  C   UNL     1       2.622   4.447  17.709  0.00  0.00    +0.000 A 
ATOM      9  N   UNL     1       3.367   4.106  16.675  0.00  0.00    +0.000 NA
ATOM     10  C   UNL     1       4.558   4.749  16.850  0.00  0.00    +0.000 A 
ATOM     11  C   UNL     1       5.755   4.634  16.131  0.00  0.00    +0.000 A 
ATOM     12  C   UNL     1       5.919   3.745  14.938  0.00  0.00    +0.000 C 
ATOM     13  C   UNL     1       6.831   5.387  16.623  0.00  0.00    +0.000 A 
ATOM     14  C   UNL     1       6.677   6.187  17.763  0.00  0.00    +0.000 A 
ATOM     15  C   UNL     1       7.846   6.987  18.263  0.00  0.00    +0.000 C 
ATOM     16  N   UNL     1       5.526   6.307  18.476  0.00  0.00    +0.000 NA
ATOM     17  C   UNL     1       4.516   5.574  17.965  0.00  0.00    +0.000 A 
ATOM     18  N   UNL     1       3.240   5.429  18.472  0.00  0.00    +0.000 N 
BRANCH   8  20
ATOM     19  C   UNL     1       1.684   2.332  18.577  0.00  0.00    +0.000 C 
ATOM     20  C   UNL     1       1.363   3.727  18.054  0.00  0.00    +0.000 C 
ENDBRANCH   8  20
ENDBRANCH   7  18
ENDBRANCH   1   7
BRANCH   4  21
ATOM     21  C   UNL     1      -0.245  11.005  19.455  0.00  0.00    +0.000 C 
BRANCH  21  22
ATOM     22  C   UNL     1      -1.424  10.733  18.506  0.00  0.00    +0.000 A 
ATOM     23  C   UNL     1      -1.289   9.972  17.331  0.00  0.00    +0.000 A 
ATOM     24  C   UNL     1      -2.373   9.769  16.473  0.00  0.00    +0.000 A 
ATOM     25  C   UNL     1      -3.604  10.351  16.751  0.00  0.00    +0.000 A 
ATOM     26  C   UNL     1      -3.756  11.124  17.899  0.00  0.00    +0.000 A 
ATOM     27  C   UNL     1      -2.680  11.303  18.776  0.00  0.00    +0.000 A 
ENDBRANCH  21  22
BRANCH  21  28
ATOM     28  C   UNL     1       0.493  12.337  19.069  0.00  0.00    +0.000 C 
BRANCH  28  29
ATOM     29  C   UNL     1      -0.426  13.547  18.738  0.00  0.00    +0.000 C 
ATOM     30  C   UNL     1       0.249  14.918  18.702  0.00  0.00    +0.000 C 
ENDBRANCH  28  29
BRANCH  28  31
ATOM     31  C   UNL     1       1.446  12.781  20.167  0.00  0.00    +0.000 C 
ATOM     32  O   UNL     1       2.625  13.083  19.995  0.00  0.00    +0.000 OA
BRANCH  31  33
ATOM     33  O   UNL     1       0.902  12.721  21.403  0.00  0.00    +0.000 OA
ATOM     34  H   UNL     1       0.241  12.015  21.522  0.00  0.00    +0.000 HD
ENDBRANCH  31  33
ENDBRANCH  28  31
ENDBRANCH  21  28
ENDBRANCH   4  21
TORSDOF 9
ENDMDL
MODEL 9
REMARK VINA RESULT:      -9.0      1.447      3.255
REMARK  Name = 
REMARK  13 active torsions:
REMARK  status: ('A' for Active; 'I' for Inactive)
REMARK    1  A    between atoms: C_1  and  C_2
REMARK    2  A    between atoms: C_2  and  C_3
REMARK    3  A    between atoms: C_6  and  C_7
REMARK    4  A    between atoms: C_9  and  C_10
REMARK    5  A    between atoms: N_13  and  C_14
REMARK    6  A    between atoms: C_14  and  C_15
REMARK    7  A    between atoms: C_18  and  C_19
REMARK    8  A    between atoms: C_19  and  C_20
REMARK    9  A    between atoms: C_19  and  C_26
REMARK   10  A    between atoms: C_26  and  C_27
REMARK   11  A    between atoms: C_26  and  C_29
REMARK   12  A    between atoms: C_27  and  C_28
REMARK   13  A    between atoms: C_29  and  O_31
REMARK                            x       y       z     vdW  Elec       q    Type
REMARK                         _______ _______ _______ _____ _____    ______ ____
ROOT
ATOM      1  C   UNL     1       1.734   9.038  18.553  0.00  0.00    +0.000 A 
ATOM      2  C   UNL     1       2.450   8.291  17.608  0.00  0.00    +0.000 A 
ATOM      3  C   UNL     1       3.024   7.048  17.947  0.00  0.00    +0.000 A 
ATOM      4  C   UNL     1       2.910   6.506  19.241  0.00  0.00    +0.000 A 
ATOM      5  C   UNL     1       2.124   7.224  20.155  0.00  0.00    +0.000 A 
ATOM      6  C   UNL     1       1.534   8.457  19.813  0.00  0.00    +0.000 A 
ENDROOT
BRANCH   1   7
ATOM      7  C   UNL     1       1.331  10.477  18.292  0.00  0.00    +0.000 C 
BRANCH   7  18
ATOM      8  C   UNL     1      -1.216  10.604  18.453  0.00  0.00    +0.000 A 
ATOM      9  N   UNL     1      -2.118  11.292  19.127  0.00  0.00    +0.000 NA
ATOM     10  C   UNL     1      -1.413  12.175  19.891  0.00  0.00    +0.000 A 
ATOM     11  C   UNL     1      -1.865  13.236  20.687  0.00  0.00    +0.000 A 
ATOM     12  C   UNL     1      -3.312  13.570  20.871  0.00  0.00    +0.000 C 
ATOM     13  C   UNL     1      -0.863  14.011  21.289  0.00  0.00    +0.000 A 
ATOM     14  C   UNL     1       0.490  13.713  21.079  0.00  0.00    +0.000 A 
ATOM     15  C   UNL     1       1.540  14.557  21.742  0.00  0.00    +0.000 C 
ATOM     16  N   UNL     1       0.948  12.692  20.307  0.00  0.00    +0.000 NA
ATOM     17  C   UNL     1      -0.047  11.968  19.754  0.00  0.00    +0.000 A 
ATOM     18  N   UNL     1       0.070  10.905  18.882  0.00  0.00    +0.000 N 
BRANCH   8  20
ATOM     19  C   UNL     1      -2.889  10.223  16.675  0.00  0.00    +0.000 C 
ATOM     20  C   UNL     1      -1.578   9.747  17.287  0.00  0.00    +0.000 C 
ENDBRANCH   8  20
ENDBRANCH   7  18
ENDBRANCH   1   7
BRANCH   4  21
ATOM     21  C   UNL     1       3.680   5.213  19.614  0.00  0.00    +0.000 C 
BRANCH  21  22
ATOM     22  C   UNL     1       4.971   5.037  18.799  0.00  0.00    +0.000 A 
ATOM     23  C   UNL     1       6.237   5.385  19.303  0.00  0.00    +0.000 A 
ATOM     24  C   UNL     1       7.389   5.243  18.525  0.00  0.00    +0.000 A 
ATOM     25  C   UNL     1       7.297   4.784  17.217  0.00  0.00    +0.000 A 
ATOM     26  C   UNL     1       6.052   4.451  16.690  0.00  0.00    +0.000 A 
ATOM     27  C   UNL     1       4.901   4.563  17.477  0.00  0.00    +0.000 A 
ENDBRANCH  21  22
BRANCH  21  28
ATOM     28  C   UNL     1       2.811   3.905  19.582  0.00  0.00    +0.000 C 
BRANCH  28  29
ATOM     29  C   UNL     1       3.603   2.567  19.562  0.00  0.00    +0.000 C 
ATOM     30  C   UNL     1       3.248   1.590  18.442  0.00  0.00    +0.000 C 
ENDBRANCH  28  29
BRANCH  28  31
ATOM     31  C   UNL     1       1.854   3.846  20.762  0.00  0.00    +0.000 C 
ATOM     32  O   UNL     1       2.184   3.623  21.925  0.00  0.00    +0.000 OA
BRANCH  31  33
ATOM     33  O   UNL     1       0.556   3.967  20.404  0.00  0.00    +0.000 OA
ATOM     34  H   UNL     1      -0.081   3.712  21.095  0.00  0.00    +0.000 HD
ENDBRANCH  31  33
ENDBRANCH  28  31
ENDBRANCH  21  28
ENDBRANCH   4  21
TORSDOF 9
ENDMDL
