MODEL 1
REMARK VINA RESULT:      -8.0      0.000      0.000
REMARK  Name = 
REMARK  8 active torsions:
REMARK  status: ('A' for Active; 'I' for Inactive)
REMARK    1  A    between atoms: C_1  and  C_2
REMARK    2  A    between atoms: C_2  and  C_3
REMARK    3  A    between atoms: C_2  and  O_4
REMARK    4  A    between atoms: C_2  and  C_5
REMARK    5  A    between atoms: C_5  and  N_6
REMARK    6  A    between atoms: C_5  and  C_27
REMARK    7  A    between atoms: CA_23  and  C_24
REMARK    8  A    between atoms: C_24  and  O_25
REMARK                            x       y       z     vdW  Elec       q    Type
REMARK                         _______ _______ _______ _____ _____    ______ ____
ROOT
ATOM      1  N   UNL     1       8.615  15.092  17.515  0.00  0.00    +0.000 N 
ATOM      2  C   UNL     1       7.454  15.329  18.201  0.00  0.00    +0.000 C 
ATOM      3  O   UNL     1       7.428  15.804  19.329  0.00  0.00    +0.000 OA
ATOM      4  N   UNL     1       6.346  14.970  17.471  0.00  0.00    +0.000 N 
ATOM      5  C   UNL     1       5.067  15.123  18.014  0.00  0.00    +0.000 A 
ATOM      6  C   UNL     1       4.650  16.342  18.532  0.00  0.00    +0.000 A 
ATOM      7  C   UNL     1       3.340  16.365  19.002  0.00  0.00    +0.000 A 
ATOM      8  N   UNL     1       2.587  17.365  19.558  0.00  0.00    +0.000 N 
ATOM      9  N   UNL     1       1.354  16.988  19.926  0.00  0.00    +0.000 NA
ATOM     10  C   UNL     1       1.275  15.708  19.568  0.00  0.00    +0.000 A 
ATOM     11  N   UNL     1       0.180  14.920  19.767  0.00  0.00    +0.000 N 
ATOM     12  C   UNL     1      -0.858  15.282  20.751  0.00  0.00    +0.000 C 
ATOM     13  C   UNL     1      -1.497  13.973  21.275  0.00  0.00    +0.000 C 
ATOM     14  O   UNL     1      -2.004  13.139  20.208  0.00  0.00    +0.000 OA
ATOM     15  C   UNL     1      -0.960  12.847  19.262  0.00  0.00    +0.000 C 
ATOM     16  C   UNL     1      -0.421  14.159  18.665  0.00  0.00    +0.000 C 
ATOM     17  C   UNL     1       2.517  15.244  19.000  0.00  0.00    +0.000 A 
ATOM     18  CA  UNL     1       3.055  14.025  18.531  0.00  0.00    +0.000 A 
ATOM     19  N   UNL     1       4.306  14.012  17.969  0.00  0.00    +0.000 NA
ATOM     20  H   UNL     1       8.541  14.755  16.569  0.00  0.00    +0.000 HD
ATOM     21  H   UNL     1       6.439  14.103  16.965  0.00  0.00    +0.000 HD
ATOM     22  H   UNL     1       2.867  18.329  19.717  0.00  0.00    +0.000 HD
ENDROOT
BRANCH   1  23
ATOM     23  C   UNL     1       9.942  15.328  18.092  0.00  0.00    +0.000 C 
BRANCH  23  24
ATOM     24  C   UNL     1      10.619  13.990  18.409  0.00  0.00    +0.000 A 
ATOM     25  C   UNL     1      11.063  13.739  19.720  0.00  0.00    +0.000 A 
ATOM     26  C   UNL     1      11.629  12.510  20.067  0.00  0.00    +0.000 A 
ATOM     27  C   UNL     1      11.769  11.510  19.110  0.00  0.00    +0.000 A 
ATOM     28  C   UNL     1      11.362  11.748  17.801  0.00  0.00    +0.000 A 
ATOM     29  C   UNL     1      10.804  12.979  17.449  0.00  0.00    +0.000 A 
ENDBRANCH  23  24
BRANCH  23  31
ATOM     30  C   UNL     1      12.333  16.200  17.627  0.00  0.00    +0.000 C 
ATOM     31  C   UNL     1      10.842  16.328  17.268  0.00  0.00    +0.000 C 
ATOM     32  C   UNL     1      10.419  17.793  17.432  0.00  0.00    +0.000 C 
BRANCH  31  33
ATOM     33  O   UNL     1      10.751  15.996  15.867  0.00  0.00    +0.000 OA
ATOM     34  H   UNL     1      11.203  15.148  15.727  0.00  0.00    +0.000 HD
ENDBRANCH  31  33
ENDBRANCH  23  31
ENDBRANCH   1  23
BRANCH  18  35
ATOM     35  C   UNL     1       2.356  12.697  18.618  0.00  0.00    +0.000 C 
BRANCH  35  36
ATOM     36  O   UNL     1       2.570  11.848  17.478  0.00  0.00    +0.000 OA
ATOM     37  H   UNL     1       3.268  11.229  17.761  0.00  0.00    +0.000 HD
ENDBRANCH  35  36
ENDBRANCH  18  35
TORSDOF 6
ENDMDL
MODEL 2
REMARK VINA RESULT:      -7.9      7.263      8.754
REMARK  Name = 
REMARK  8 active torsions:
REMARK  status: ('A' for Active; 'I' for Inactive)
REMARK    1  A    between atoms: C_1  and  C_2
REMARK    2  A    between atoms: C_2  and  C_3
REMARK    3  A    between atoms: C_2  and  O_4
REMARK    4  A    between atoms: C_2  and  C_5
REMARK    5  A    between atoms: C_5  and  N_6
REMARK    6  A    between atoms: C_5  and  C_27
REMARK    7  A    between atoms: CA_23  and  C_24
REMARK    8  A    between atoms: C_24  and  O_25
REMARK                            x       y       z     vdW  Elec       q    Type
REMARK                         _______ _______ _______ _____ _____    ______ ____
ROOT
ATOM      1  N   UNL     1       3.270   7.396  17.436  0.00  0.00    +0.000 N 
ATOM      2  C   UNL     1       2.400   8.044  18.272  0.00  0.00    +0.000 C 
ATOM      3  O   UNL     1       2.342   7.828  19.475  0.00  0.00    +0.000 OA
ATOM      4  N   UNL     1       1.619   8.949  17.595  0.00  0.00    +0.000 N 
ATOM      5  C   UNL     1       0.656   9.697  18.279  0.00  0.00    +0.000 A 
ATOM      6  C   UNL     1       0.994  10.439  19.404  0.00  0.00    +0.000 A 
ATOM      7  C   UNL     1      -0.052  11.169  19.962  0.00  0.00    +0.000 A 
ATOM      8  N   UNL     1      -0.103  12.010  21.042  0.00  0.00    +0.000 N 
ATOM      9  N   UNL     1      -1.321  12.509  21.296  0.00  0.00    +0.000 NA
ATOM     10  C   UNL     1      -2.093  12.013  20.331  0.00  0.00    +0.000 A 
ATOM     11  N   UNL     1      -3.429  12.262  20.210  0.00  0.00    +0.000 N 
ATOM     12  C   UNL     1      -4.223  12.761  21.349  0.00  0.00    +0.000 C 
ATOM     13  C   UNL     1      -5.676  12.256  21.176  0.00  0.00    +0.000 C 
ATOM     14  O   UNL     1      -6.241  12.622  19.897  0.00  0.00    +0.000 OA
ATOM     15  C   UNL     1      -5.409  12.140  18.827  0.00  0.00    +0.000 C 
ATOM     16  C   UNL     1      -4.002  12.750  18.950  0.00  0.00    +0.000 C 
ATOM     17  C   UNL     1      -1.350  11.130  19.466  0.00  0.00    +0.000 A 
ATOM     18  CA  UNL     1      -1.618  10.280  18.369  0.00  0.00    +0.000 A 
ATOM     19  N   UNL     1      -0.578   9.639  17.745  0.00  0.00    +0.000 NA
ATOM     20  H   UNL     1       3.291   7.677  16.469  0.00  0.00    +0.000 HD
ATOM     21  H   UNL     1       1.280   8.626  16.702  0.00  0.00    +0.000 HD
ATOM     22  H   UNL     1       0.666  12.276  21.651  0.00  0.00    +0.000 HD
ENDROOT
BRANCH   1  23
ATOM     23  C   UNL     1       4.172   6.335  17.895  0.00  0.00    +0.000 C 
BRANCH  23  24
ATOM     24  C   UNL     1       3.358   5.123  18.364  0.00  0.00    +0.000 A 
ATOM     25  C   UNL     1       3.756   4.439  19.526  0.00  0.00    +0.000 A 
ATOM     26  C   UNL     1       3.009   3.369  20.025  0.00  0.00    +0.000 A 
ATOM     27  C   UNL     1       1.854   2.957  19.368  0.00  0.00    +0.000 A 
ATOM     28  C   UNL     1       1.458   3.603  18.200  0.00  0.00    +0.000 A 
ATOM     29  C   UNL     1       2.210   4.667  17.695  0.00  0.00    +0.000 A 
ENDBRANCH  23  24
BRANCH  23  31
ATOM     30  C   UNL     1       5.225   4.539  16.358  0.00  0.00    +0.000 C 
ATOM     31  C   UNL     1       5.330   5.982  16.882  0.00  0.00    +0.000 C 
ATOM     32  C   UNL     1       6.729   6.193  17.471  0.00  0.00    +0.000 C 
BRANCH  31  33
ATOM     33  O   UNL     1       5.208   6.826  15.719  0.00  0.00    +0.000 OA
ATOM     34  H   UNL     1       5.726   6.427  14.999  0.00  0.00    +0.000 HD
ENDBRANCH  31  33
ENDBRANCH  23  31
ENDBRANCH   1  23
BRANCH  18  35
ATOM     35  C   UNL     1      -2.991  10.001  17.825  0.00  0.00    +0.000 C 
BRANCH  35  36
ATOM     36  O   UNL     1      -3.057   9.981  16.389  0.00  0.00    +0.000 OA
ATOM     37  H   UNL     1      -2.977  10.916  16.126  0.00  0.00    +0.000 HD
ENDBRANCH  35  36
ENDBRANCH  18  35
TORSDOF 6
ENDMDL
MODEL 3
REMARK VINA RESULT:      -7.7      7.627     11.737
REMARK  Name = 
REMARK  8 active torsions:
REMARK  status: ('A' for Active; 'I' for Inactive)
REMARK    1  A    between atoms: C_1  and  C_2
REMARK    2  A    between atoms: C_2  and  C_3
REMARK    3  A    between atoms: C_2  and  O_4
REMARK    4  A    between atoms: C_2  and  C_5
REMARK    5  A    between atoms: C_5  and  N_6
REMARK    6  A    between atoms: C_5  and  C_27
REMARK    7  A    between atoms: CA_23  and  C_24
REMARK    8  A    between atoms: C_24  and  O_25
REMARK                            x       y       z     vdW  Elec       q    Type
REMARK                         _______ _______ _______ _____ _____    ______ ____
ROOT
ATOM      1  N   UNL     1      -0.572  11.360  20.935  0.00  0.00    +0.000 N 
ATOM      2  C   UNL     1      -0.037  10.382  20.139  0.00  0.00    +0.000 C 
ATOM      3  O   UNL     1      -0.335  10.241  18.960  0.00  0.00    +0.000 OA
ATOM      4  N   UNL     1       0.859   9.598  20.826  0.00  0.00    +0.000 N 
ATOM      5  C   UNL     1       1.497   8.533  20.183  0.00  0.00    +0.000 A 
ATOM      6  C   UNL     1       2.184   8.725  18.991  0.00  0.00    +0.000 A 
ATOM      7  C   UNL     1       2.808   7.589  18.482  0.00  0.00    +0.000 A 
ATOM      8  N   UNL     1       3.571   7.392  17.362  0.00  0.00    +0.000 N 
ATOM      9  N   UNL     1       3.974   6.126  17.184  0.00  0.00    +0.000 NA
ATOM     10  C   UNL     1       3.494   5.472  18.240  0.00  0.00    +0.000 A 
ATOM     11  N   UNL     1       3.664   4.136  18.461  0.00  0.00    +0.000 N 
ATOM     12  C   UNL     1       4.036   3.219  17.366  0.00  0.00    +0.000 C 
ATOM     13  C   UNL     1       3.452   1.823  17.693  0.00  0.00    +0.000 C 
ATOM     14  O   UNL     1       3.864   1.341  18.992  0.00  0.00    +0.000 OA
ATOM     15  C   UNL     1       3.507   2.289  20.014  0.00  0.00    +0.000 C 
ATOM     16  C   UNL     1       4.197   3.636  19.734  0.00  0.00    +0.000 C 
ATOM     17  C   UNL     1       2.718   6.342  19.090  0.00  0.00    +0.000 A 
ATOM     18  CA  UNL     1       1.927   6.224  20.254  0.00  0.00    +0.000 A 
ATOM     19  N   UNL     1       1.396   7.353  20.824  0.00  0.00    +0.000 NA
ATOM     20  H   UNL     1      -0.227  11.441  21.877  0.00  0.00    +0.000 HD
ATOM     21  H   UNL     1       0.574   9.356  21.762  0.00  0.00    +0.000 HD
ATOM     22  H   UNL     1       3.845   8.089  16.674  0.00  0.00    +0.000 HD
ENDROOT
BRANCH   1  23
ATOM     23  C   UNL     1      -1.601  12.292  20.465  0.00  0.00    +0.000 C 
BRANCH  23  24
ATOM     24  C   UNL     1      -2.692  12.448  21.530  0.00  0.00    +0.000 A 
ATOM     25  C   UNL     1      -2.334  12.402  22.889  0.00  0.00    +0.000 A 
ATOM     26  C   UNL     1      -3.285  12.600  23.893  0.00  0.00    +0.000 A 
ATOM     27  C   UNL     1      -4.614  12.843  23.558  0.00  0.00    +0.000 A 
ATOM     28  C   UNL     1      -4.994  12.864  22.219  0.00  0.00    +0.000 A 
ATOM     29  C   UNL     1      -4.046  12.656  21.215  0.00  0.00    +0.000 A 
ENDBRANCH  23  24
BRANCH  23  31
ATOM     30  C   UNL     1      -0.602  13.558  18.441  0.00  0.00    +0.000 C 
ATOM     31  C   UNL     1      -1.037  13.660  19.913  0.00  0.00    +0.000 C 
ATOM     32  C   UNL     1       0.135  14.203  20.739  0.00  0.00    +0.000 C 
BRANCH  31  33
ATOM     33  O   UNL     1      -2.090  14.645  19.939  0.00  0.00    +0.000 OA
ATOM     34  H   UNL     1      -1.973  15.234  19.175  0.00  0.00    +0.000 HD
ENDBRANCH  31  33
ENDBRANCH  23  31
ENDBRANCH   1  23
BRANCH  18  35
ATOM     35  C   UNL     1       1.597   4.923  20.931  0.00  0.00    +0.000 C 
BRANCH  35  36
ATOM     36  O   UNL     1       0.592   4.151  20.252  0.00  0.00    +0.000 OA
ATOM     37  H   UNL     1       1.050   3.333  19.986  0.00  0.00    +0.000 HD
ENDBRANCH  35  36
ENDBRANCH  18  35
TORSDOF 6
ENDMDL
MODEL 4
REMARK VINA RESULT:      -7.7      7.556     11.788
REMARK  Name = 
REMARK  8 active torsions:
REMARK  status: ('A' for Active; 'I' for Inactive)
REMARK    1  A    between atoms: C_1  and  C_2
REMARK    2  A    between atoms: C_2  and  C_3
REMARK    3  A    between atoms: C_2  and  O_4
REMARK    4  A    between atoms: C_2  and  C_5
REMARK    5  A    between atoms: C_5  and  N_6
REMARK    6  A    between atoms: C_5  and  C_27
REMARK    7  A    between atoms: CA_23  and  C_24
REMARK    8  A    between atoms: C_24  and  O_25
REMARK                            x       y       z     vdW  Elec       q    Type
REMARK                         _______ _______ _______ _____ _____    ______ ____
ROOT
ATOM      1  N   UNL     1      -0.678  11.314  21.078  0.00  0.00    +0.000 N 
ATOM      2  C   UNL     1      -0.136  10.359  20.260  0.00  0.00    +0.000 C 
ATOM      3  O   UNL     1      -0.439  10.239  19.080  0.00  0.00    +0.000 OA
ATOM      4  N   UNL     1       0.772   9.571  20.926  0.00  0.00    +0.000 N 
ATOM      5  C   UNL     1       1.419   8.527  20.258  0.00  0.00    +0.000 A 
ATOM      6  C   UNL     1       2.098   8.752  19.066  0.00  0.00    +0.000 A 
ATOM      7  C   UNL     1       2.732   7.634  18.531  0.00  0.00    +0.000 A 
ATOM      8  N   UNL     1       3.491   7.469  17.403  0.00  0.00    +0.000 N 
ATOM      9  N   UNL     1       3.907   6.211  17.197  0.00  0.00    +0.000 NA
ATOM     10  C   UNL     1       3.440   5.530  18.242  0.00  0.00    +0.000 A 
ATOM     11  N   UNL     1       3.627   4.192  18.434  0.00  0.00    +0.000 N 
ATOM     12  C   UNL     1       4.004   3.302  17.319  0.00  0.00    +0.000 C 
ATOM     13  C   UNL     1       3.437   1.893  17.621  0.00  0.00    +0.000 C 
ATOM     14  O   UNL     1       3.861   1.389  18.907  0.00  0.00    +0.000 OA
ATOM     15  C   UNL     1       3.500   2.312  19.950  0.00  0.00    +0.000 C 
ATOM     16  C   UNL     1       4.172   3.672  19.694  0.00  0.00    +0.000 C 
ATOM     17  C   UNL     1       2.659   6.373  19.113  0.00  0.00    +0.000 A 
ATOM     18  CA  UNL     1       1.876   6.223  20.280  0.00  0.00    +0.000 A 
ATOM     19  N   UNL     1       1.334   7.334  20.875  0.00  0.00    +0.000 NA
ATOM     20  H   UNL     1      -0.329  11.380  22.020  0.00  0.00    +0.000 HD
ATOM     21  H   UNL     1       0.495   9.307  21.858  0.00  0.00    +0.000 HD
ATOM     22  H   UNL     1       3.753   8.182  16.729  0.00  0.00    +0.000 HD
ENDROOT
BRANCH   1  23
ATOM     23  C   UNL     1      -1.720  12.244  20.632  0.00  0.00    +0.000 C 
BRANCH  23  24
ATOM     24  C   UNL     1      -2.729  12.479  21.762  0.00  0.00    +0.000 A 
ATOM     25  C   UNL     1      -4.072  12.742  21.437  0.00  0.00    +0.000 A 
ATOM     26  C   UNL     1      -5.038  12.902  22.435  0.00  0.00    +0.000 A 
ATOM     27  C   UNL     1      -4.679  12.806  23.776  0.00  0.00    +0.000 A 
ATOM     28  C   UNL     1      -3.350  12.574  24.119  0.00  0.00    +0.000 A 
ATOM     29  C   UNL     1      -2.382  12.425  23.123  0.00  0.00    +0.000 A 
ENDBRANCH  23  24
BRANCH  23  31
ATOM     30  C   UNL     1       0.310  13.815  20.307  0.00  0.00    +0.000 C 
ATOM     31  C   UNL     1      -1.171  13.568  19.971  0.00  0.00    +0.000 C 
ATOM     32  C   UNL     1      -1.980  14.812  20.356  0.00  0.00    +0.000 C 
BRANCH  31  33
ATOM     33  O   UNL     1      -1.226  13.432  18.536  0.00  0.00    +0.000 OA
ATOM     34  H   UNL     1      -0.355  13.670  18.176  0.00  0.00    +0.000 HD
ENDBRANCH  31  33
ENDBRANCH  23  31
ENDBRANCH   1  23
BRANCH  18  35
ATOM     35  C   UNL     1       1.564   4.905  20.931  0.00  0.00    +0.000 C 
BRANCH  35  36
ATOM     36  O   UNL     1       0.523   4.161  20.275  0.00  0.00    +0.000 OA
ATOM     37  H   UNL     1      -0.072   3.884  20.996  0.00  0.00    +0.000 HD
ENDBRANCH  35  36
ENDBRANCH  18  35
TORSDOF 6
ENDMDL
MODEL 5
REMARK VINA RESULT:      -7.7      7.159      8.829
REMARK  Name = 
REMARK  8 active torsions:
REMARK  status: ('A' for Active; 'I' for Inactive)
REMARK    1  A    between atoms: C_1  and  C_2
REMARK    2  A    between atoms: C_2  and  C_3
REMARK    3  A    between atoms: C_2  and  O_4
REMARK    4  A    between atoms: C_2  and  C_5
REMARK    5  A    between atoms: C_5  and  N_6
REMARK    6  A    between atoms: C_5  and  C_27
REMARK    7  A    between atoms: CA_23  and  C_24
REMARK    8  A    between atoms: C_24  and  O_25
REMARK                            x       y       z     vdW  Elec       q    Type
REMARK                         _______ _______ _______ _____ _____    ______ ____
ROOT
ATOM      1  N   UNL     1       3.317   7.289  17.651  0.00  0.00    +0.000 N 
ATOM      2  C   UNL     1       2.423   7.962  18.440  0.00  0.00    +0.000 C 
ATOM      3  O   UNL     1       2.322   7.778  19.646  0.00  0.00    +0.000 OA
ATOM      4  N   UNL     1       1.669   8.853  17.713  0.00  0.00    +0.000 N 
ATOM      5  C   UNL     1       0.688   9.622  18.344  0.00  0.00    +0.000 A 
ATOM      6  C   UNL     1       0.990  10.392  19.460  0.00  0.00    +0.000 A 
ATOM      7  C   UNL     1      -0.070  11.141  19.963  0.00  0.00    +0.000 A 
ATOM      8  N   UNL     1      -0.154  12.010  21.019  0.00  0.00    +0.000 N 
ATOM      9  N   UNL     1      -1.377  12.521  21.218  0.00  0.00    +0.000 NA
ATOM     10  C   UNL     1      -2.118  12.003  20.239  0.00  0.00    +0.000 A 
ATOM     11  N   UNL     1      -3.448  12.254  20.066  0.00  0.00    +0.000 N 
ATOM     12  C   UNL     1      -4.278  12.786  21.164  0.00  0.00    +0.000 C 
ATOM     13  C   UNL     1      -5.726  12.283  20.954  0.00  0.00    +0.000 C 
ATOM     14  O   UNL     1      -6.246  12.617  19.647  0.00  0.00    +0.000 OA
ATOM     15  C   UNL     1      -5.380  12.105  18.619  0.00  0.00    +0.000 C 
ATOM     16  C   UNL     1      -3.975  12.712  18.775  0.00  0.00    +0.000 C 
ATOM     17  C   UNL     1      -1.351  11.094  19.424  0.00  0.00    +0.000 A 
ATOM     18  CA  UNL     1      -1.585  10.218  18.340  0.00  0.00    +0.000 A 
ATOM     19  N   UNL     1      -0.528   9.555  17.769  0.00  0.00    +0.000 NA
ATOM     20  H   UNL     1       3.373   7.545  16.679  0.00  0.00    +0.000 HD
ATOM     21  H   UNL     1       1.360   8.508  16.817  0.00  0.00    +0.000 HD
ATOM     22  H   UNL     1       0.596  12.288  21.646  0.00  0.00    +0.000 HD
ENDROOT
BRANCH   1  23
ATOM     23  C   UNL     1       4.198   6.236  18.168  0.00  0.00    +0.000 C 
BRANCH  23  24
ATOM     24  C   UNL     1       3.368   5.011  18.566  0.00  0.00    +0.000 A 
ATOM     25  C   UNL     1       2.420   4.501  17.662  0.00  0.00    +0.000 A 
ATOM     26  C   UNL     1       1.686   3.349  17.958  0.00  0.00    +0.000 A 
ATOM     27  C   UNL     1       1.882   2.688  19.166  0.00  0.00    +0.000 A 
ATOM     28  C   UNL     1       2.796   3.192  20.087  0.00  0.00    +0.000 A 
ATOM     29  C   UNL     1       3.523   4.349  19.797  0.00  0.00    +0.000 A 
ENDBRANCH  23  24
BRANCH  23  31
ATOM     30  C   UNL     1       6.592   6.898  17.446  0.00  0.00    +0.000 C 
ATOM     31  C   UNL     1       5.433   5.908  17.241  0.00  0.00    +0.000 C 
ATOM     32  C   UNL     1       5.072   5.868  15.752  0.00  0.00    +0.000 C 
BRANCH  31  33
ATOM     33  O   UNL     1       5.959   4.615  17.603  0.00  0.00    +0.000 OA
ATOM     34  H   UNL     1       6.467   4.714  18.425  0.00  0.00    +0.000 HD
ENDBRANCH  31  33
ENDBRANCH  23  31
ENDBRANCH   1  23
BRANCH  18  35
ATOM     35  C   UNL     1      -2.940   9.930  17.757  0.00  0.00    +0.000 C 
BRANCH  35  36
ATOM     36  O   UNL     1      -3.039  10.202  16.349  0.00  0.00    +0.000 OA
ATOM     37  H   UNL     1      -3.031   9.323  15.928  0.00  0.00    +0.000 HD
ENDBRANCH  35  36
ENDBRANCH  18  35
TORSDOF 6
ENDMDL
MODEL 6
REMARK VINA RESULT:      -7.6      7.428      8.854
REMARK  Name = 
REMARK  8 active torsions:
REMARK  status: ('A' for Active; 'I' for Inactive)
REMARK    1  A    between atoms: C_1  and  C_2
REMARK    2  A    between atoms: C_2  and  C_3
REMARK    3  A    between atoms: C_2  and  O_4
REMARK    4  A    between atoms: C_2  and  C_5
REMARK    5  A    between atoms: C_5  and  N_6
REMARK    6  A    between atoms: C_5  and  C_27
REMARK    7  A    between atoms: CA_23  and  C_24
REMARK    8  A    between atoms: C_24  and  O_25
REMARK                            x       y       z     vdW  Elec       q    Type
REMARK                         _______ _______ _______ _____ _____    ______ ____
ROOT
ATOM      1  N   UNL     1       3.124   7.482  17.947  0.00  0.00    +0.000 N 
ATOM      2  C   UNL     1       2.255   8.109  18.800  0.00  0.00    +0.000 C 
ATOM      3  O   UNL     1       2.096   7.768  19.965  0.00  0.00    +0.000 OA
ATOM      4  N   UNL     1       1.599   9.150  18.187  0.00  0.00    +0.000 N 
ATOM      5  C   UNL     1       0.656   9.901  18.896  0.00  0.00    +0.000 A 
ATOM      6  C   UNL     1       0.976  10.481  20.117  0.00  0.00    +0.000 A 
ATOM      7  C   UNL     1      -0.043  11.236  20.693  0.00  0.00    +0.000 A 
ATOM      8  N   UNL     1      -0.098  11.954  21.858  0.00  0.00    +0.000 N 
ATOM      9  N   UNL     1      -1.286  12.529  22.096  0.00  0.00    +0.000 NA
ATOM     10  C   UNL     1      -2.027  12.214  21.035  0.00  0.00    +0.000 A 
ATOM     11  N   UNL     1      -3.327  12.593  20.865  0.00  0.00    +0.000 N 
ATOM     12  C   UNL     1      -4.154  13.033  22.006  0.00  0.00    +0.000 C 
ATOM     13  C   UNL     1      -5.628  12.682  21.690  0.00  0.00    +0.000 C 
ATOM     14  O   UNL     1      -6.071  13.236  20.431  0.00  0.00    +0.000 OA
ATOM     15  C   UNL     1      -5.210  12.802  19.363  0.00  0.00    +0.000 C 
ATOM     16  C   UNL     1      -3.770  13.267  19.639  0.00  0.00    +0.000 C 
ATOM     17  C   UNL     1      -1.302  11.368  20.119  0.00  0.00    +0.000 A 
ATOM     18  CA  UNL     1      -1.563  10.672  18.918  0.00  0.00    +0.000 A 
ATOM     19  N   UNL     1      -0.539  10.013  18.286  0.00  0.00    +0.000 NA
ATOM     20  H   UNL     1       3.235   7.865  17.023  0.00  0.00    +0.000 HD
ATOM     21  H   UNL     1       1.297   8.959  17.244  0.00  0.00    +0.000 HD
ATOM     22  H   UNL     1       0.646  12.081  22.538  0.00  0.00    +0.000 HD
ENDROOT
BRANCH   1  23
ATOM     23  C   UNL     1       3.902   6.300  18.333  0.00  0.00    +0.000 C 
BRANCH  23  24
ATOM     24  C   UNL     1       2.958   5.134  18.649  0.00  0.00    +0.000 A 
ATOM     25  C   UNL     1       3.056   4.494  19.898  0.00  0.00    +0.000 A 
ATOM     26  C   UNL     1       2.176   3.467  20.253  0.00  0.00    +0.000 A 
ATOM     27  C   UNL     1       1.186   3.058  19.365  0.00  0.00    +0.000 A 
ATOM     28  C   UNL     1       1.091   3.659  18.114  0.00  0.00    +0.000 A 
ATOM     29  C   UNL     1       1.976   4.678  17.753  0.00  0.00    +0.000 A 
ENDBRANCH  23  24
BRANCH  23  31
ATOM     30  C   UNL     1       6.456   6.231  17.928  0.00  0.00    +0.000 C 
ATOM     31  C   UNL     1       5.068   5.935  17.334  0.00  0.00    +0.000 C 
ATOM     32  C   UNL     1       4.946   6.646  15.981  0.00  0.00    +0.000 C 
BRANCH  31  33
ATOM     33  O   UNL     1       5.046   4.514  17.088  0.00  0.00    +0.000 OA
ATOM     34  H   UNL     1       5.959   4.183  17.140  0.00  0.00    +0.000 HD
ENDBRANCH  31  33
ENDBRANCH  23  31
ENDBRANCH   1  23
BRANCH  18  35
ATOM     35  C   UNL     1      -2.913  10.578  18.264  0.00  0.00    +0.000 C 
BRANCH  35  36
ATOM     36  O   UNL     1      -3.209   9.282  17.718  0.00  0.00    +0.000 OA
ATOM     37  H   UNL     1      -4.123   9.358  17.387  0.00  0.00    +0.000 HD
ENDBRANCH  35  36
ENDBRANCH  18  35
TORSDOF 6
ENDMDL
MODEL 7
REMARK VINA RESULT:      -7.5      5.402      9.838
REMARK  Name = 
REMARK  8 active torsions:
REMARK  status: ('A' for Active; 'I' for Inactive)
REMARK    1  A    between atoms: C_1  and  C_2
REMARK    2  A    between atoms: C_2  and  C_3
REMARK    3  A    between atoms: C_2  and  O_4
REMARK    4  A    between atoms: C_2  and  C_5
REMARK    5  A    between atoms: C_5  and  N_6
REMARK    6  A    between atoms: C_5  and  C_27
REMARK    7  A    between atoms: CA_23  and  C_24
REMARK    8  A    between atoms: C_24  and  O_25
REMARK                            x       y       z     vdW  Elec       q    Type
REMARK                         _______ _______ _______ _____ _____    ______ ____
ROOT
ATOM      1  N   UNL     1       7.146   7.408  17.056  0.00  0.00    +0.000 N 
ATOM      2  C   UNL     1       7.870   8.307  17.793  0.00  0.00    +0.000 C 
ATOM      3  O   UNL     1       8.287   8.068  18.919  0.00  0.00    +0.000 OA
ATOM      4  N   UNL     1       8.062   9.487  17.115  0.00  0.00    +0.000 N 
ATOM      5  C   UNL     1       8.767  10.535  17.715  0.00  0.00    +0.000 A 
ATOM      6  C   UNL     1      10.035  10.334  18.245  0.00  0.00    +0.000 A 
ATOM      7  C   UNL     1      10.638  11.472  18.773  0.00  0.00    +0.000 A 
ATOM      8  N   UNL     1      11.862  11.667  19.358  0.00  0.00    +0.000 N 
ATOM      9  N   UNL     1      12.076  12.920  19.783  0.00  0.00    +0.000 NA
ATOM     10  C   UNL     1      10.975  13.584  19.434  0.00  0.00    +0.000 A 
ATOM     11  N   UNL     1      10.763  14.908  19.686  0.00  0.00    +0.000 N 
ATOM     12  C   UNL     1      11.539  15.628  20.714  0.00  0.00    +0.000 C 
ATOM     13  C   UNL     1      10.651  16.767  21.272  0.00  0.00    +0.000 C 
ATOM     14  O   UNL     1      10.153  17.640  20.233  0.00  0.00    +0.000 OA
ATOM     15  C   UNL     1       9.437  16.881  19.242  0.00  0.00    +0.000 C 
ATOM     16  C   UNL     1      10.374  15.834  18.615  0.00  0.00    +0.000 C 
ATOM     17  C   UNL     1      10.010  12.711  18.813  0.00  0.00    +0.000 A 
ATOM     18  CA  UNL     1       8.687  12.802  18.326  0.00  0.00    +0.000 A 
ATOM     19  N   UNL     1       8.120  11.716  17.708  0.00  0.00    +0.000 NA
ATOM     20  H   UNL     1       6.893   7.666  16.116  0.00  0.00    +0.000 HD
ATOM     21  H   UNL     1       7.255   9.817  16.609  0.00  0.00    +0.000 HD
ATOM     22  H   UNL     1      12.592  10.975  19.500  0.00  0.00    +0.000 HD
ENDROOT
BRANCH   1  23
ATOM     23  C   UNL     1       6.748   6.095  17.572  0.00  0.00    +0.000 C 
BRANCH  23  24
ATOM     24  C   UNL     1       5.321   6.163  18.129  0.00  0.00    +0.000 A 
ATOM     25  C   UNL     1       4.374   6.983  17.490  0.00  0.00    +0.000 A 
ATOM     26  C   UNL     1       3.047   7.028  17.925  0.00  0.00    +0.000 A 
ATOM     27  C   UNL     1       2.643   6.259  19.012  0.00  0.00    +0.000 A 
ATOM     28  C   UNL     1       3.571   5.462  19.676  0.00  0.00    +0.000 A 
ATOM     29  C   UNL     1       4.900   5.424  19.248  0.00  0.00    +0.000 A 
ENDBRANCH  23  24
BRANCH  23  31
ATOM     30  C   UNL     1       7.416   5.389  15.175  0.00  0.00    +0.000 C 
ATOM     31  C   UNL     1       6.994   4.900  16.571  0.00  0.00    +0.000 C 
ATOM     32  C   UNL     1       5.778   3.978  16.425  0.00  0.00    +0.000 C 
BRANCH  31  33
ATOM     33  O   UNL     1       8.096   4.104  17.053  0.00  0.00    +0.000 OA
ATOM     34  H   UNL     1       8.578   4.624  17.717  0.00  0.00    +0.000 HD
ENDBRANCH  31  33
ENDBRANCH  23  31
ENDBRANCH   1  23
BRANCH  18  35
ATOM     35  C   UNL     1       7.817  14.022  18.450  0.00  0.00    +0.000 C 
BRANCH  35  36
ATOM     36  O   UNL     1       7.437  14.598  17.189  0.00  0.00    +0.000 OA
ATOM     37  H   UNL     1       6.913  13.904  16.750  0.00  0.00    +0.000 HD
ENDBRANCH  35  36
ENDBRANCH  18  35
TORSDOF 6
ENDMDL
MODEL 8
REMARK VINA RESULT:      -7.5      7.969      9.313
REMARK  Name = 
REMARK  8 active torsions:
REMARK  status: ('A' for Active; 'I' for Inactive)
REMARK    1  A    between atoms: C_1  and  C_2
REMARK    2  A    between atoms: C_2  and  C_3
REMARK    3  A    between atoms: C_2  and  O_4
REMARK    4  A    between atoms: C_2  and  C_5
REMARK    5  A    between atoms: C_5  and  N_6
REMARK    6  A    between atoms: C_5  and  C_27
REMARK    7  A    between atoms: CA_23  and  C_24
REMARK    8  A    between atoms: C_24  and  O_25
REMARK                            x       y       z     vdW  Elec       q    Type
REMARK                         _______ _______ _______ _____ _____    ______ ____
ROOT
ATOM      1  N   UNL     1       3.311   6.799  18.850  0.00  0.00    +0.000 N 
ATOM      2  C   UNL     1       2.343   7.428  19.588  0.00  0.00    +0.000 C 
ATOM      3  O   UNL     1       1.894   6.970  20.631  0.00  0.00    +0.000 OA
ATOM      4  N   UNL     1       1.953   8.615  19.016  0.00  0.00    +0.000 N 
ATOM      5  C   UNL     1       0.960   9.392  19.618  0.00  0.00    +0.000 A 
ATOM      6  C   UNL     1       1.057   9.770  20.951  0.00  0.00    +0.000 A 
ATOM      7  C   UNL     1       0.020  10.578  21.410  0.00  0.00    +0.000 A 
ATOM      8  N   UNL     1      -0.220  11.147  22.633  0.00  0.00    +0.000 N 
ATOM      9  N   UNL     1      -1.364  11.843  22.703  0.00  0.00    +0.000 NA
ATOM     10  C   UNL     1      -1.878  11.763  21.477  0.00  0.00    +0.000 A 
ATOM     11  N   UNL     1      -3.060  12.331  21.100  0.00  0.00    +0.000 N 
ATOM     12  C   UNL     1      -4.070  12.734  22.098  0.00  0.00    +0.000 C 
ATOM     13  C   UNL     1      -5.465  12.626  21.435  0.00  0.00    +0.000 C 
ATOM     14  O   UNL     1      -5.556  13.385  20.208  0.00  0.00    +0.000 OA
ATOM     15  C   UNL     1      -4.527  12.975  19.289  0.00  0.00    +0.000 C 
ATOM     16  C   UNL     1      -3.145  13.204  19.923  0.00  0.00    +0.000 C 
ATOM     17  C   UNL     1      -1.059  10.947  20.615  0.00  0.00    +0.000 A 
ATOM     18  CA  UNL     1      -1.115  10.446  19.295  0.00  0.00    +0.000 A 
ATOM     19  N   UNL     1      -0.051   9.738  18.798  0.00  0.00    +0.000 NA
ATOM     20  H   UNL     1       3.665   7.276  18.036  0.00  0.00    +0.000 HD
ATOM     21  H   UNL     1       1.851   8.584  18.013  0.00  0.00    +0.000 HD
ATOM     22  H   UNL     1       0.363  11.088  23.463  0.00  0.00    +0.000 HD
ENDROOT
BRANCH   1  23
ATOM     23  C   UNL     1       3.855   5.486  19.207  0.00  0.00    +0.000 C 
BRANCH  23  24
ATOM     24  C   UNL     1       2.740   4.435  19.187  0.00  0.00    +0.000 A 
ATOM     25  C   UNL     1       2.480   3.688  20.350  0.00  0.00    +0.000 A 
ATOM     26  C   UNL     1       1.434   2.763  20.396  0.00  0.00    +0.000 A 
ATOM     27  C   UNL     1       0.630   2.563  19.278  0.00  0.00    +0.000 A 
ATOM     28  C   UNL     1       0.887   3.271  18.108  0.00  0.00    +0.000 A 
ATOM     29  C   UNL     1       1.940   4.189  18.057  0.00  0.00    +0.000 A 
ENDBRANCH  23  24
BRANCH  23  31
ATOM     30  C   UNL     1       6.440   5.515  19.102  0.00  0.00    +0.000 C 
ATOM     31  C   UNL     1       5.146   5.074  18.396  0.00  0.00    +0.000 C 
ATOM     32  C   UNL     1       5.154   5.617  16.963  0.00  0.00    +0.000 C 
BRANCH  31  33
ATOM     33  O   UNL     1       5.214   3.635  18.324  0.00  0.00    +0.000 OA
ATOM     34  H   UNL     1       4.761   3.350  17.513  0.00  0.00    +0.000 HD
ENDBRANCH  31  33
ENDBRANCH  23  31
ENDBRANCH   1  23
BRANCH  18  35
ATOM     35  C   UNL     1      -2.288  10.615  18.370  0.00  0.00    +0.000 C 
BRANCH  35  36
ATOM     36  O   UNL     1      -1.924  10.950  17.020  0.00  0.00    +0.000 OA
ATOM     37  H   UNL     1      -1.123  11.498  17.111  0.00  0.00    +0.000 HD
ENDBRANCH  35  36
ENDBRANCH  18  35
TORSDOF 6
ENDMDL
MODEL 9
REMARK VINA RESULT:      -7.4      1.055      1.373
REMARK  Name = 
REMARK  8 active torsions:
REMARK  status: ('A' for Active; 'I' for Inactive)
REMARK    1  A    between atoms: C_1  and  C_2
REMARK    2  A    between atoms: C_2  and  C_3
REMARK    3  A    between atoms: C_2  and  O_4
REMARK    4  A    between atoms: C_2  and  C_5
REMARK    5  A    between atoms: C_5  and  N_6
REMARK    6  A    between atoms: C_5  and  C_27
REMARK    7  A    between atoms: CA_23  and  C_24
REMARK    8  A    between atoms: C_24  and  O_25
REMARK                            x       y       z     vdW  Elec       q    Type
REMARK                         _______ _______ _______ _____ _____    ______ ____
ROOT
ATOM      1  N   UNL     1       8.480  15.629  17.755  0.00  0.00    +0.000 N 
ATOM      2  C   UNL     1       7.457  15.460  18.650  0.00  0.00    +0.000 C 
ATOM      3  O   UNL     1       7.635  15.328  19.854  0.00  0.00    +0.000 OA
ATOM      4  N   UNL     1       6.230  15.460  18.030  0.00  0.00    +0.000 N 
ATOM      5  C   UNL     1       5.064  15.283  18.781  0.00  0.00    +0.000 A 
ATOM      6  C   UNL     1       4.794  16.083  19.884  0.00  0.00    +0.000 A 
ATOM      7  C   UNL     1       3.579  15.827  20.513  0.00  0.00    +0.000 A 
ATOM      8  N   UNL     1       2.974  16.405  21.598  0.00  0.00    +0.000 N 
ATOM      9  N   UNL     1       1.800  15.852  21.934  0.00  0.00    +0.000 NA
ATOM     10  C   UNL     1       1.604  14.904  21.020  0.00  0.00    +0.000 A 
ATOM     11  N   UNL     1       0.517  14.078  20.989  0.00  0.00    +0.000 N 
ATOM     12  C   UNL     1      -0.330  13.880  22.180  0.00  0.00    +0.000 C 
ATOM     13  C   UNL     1      -0.938  12.459  22.102  0.00  0.00    +0.000 C 
ATOM     14  O   UNL     1      -1.649  12.228  20.864  0.00  0.00    +0.000 OA
ATOM     15  C   UNL     1      -0.786  12.470  19.739  0.00  0.00    +0.000 C 
ATOM     16  C   UNL     1      -0.289  13.925  19.772  0.00  0.00    +0.000 C 
ATOM     17  C   UNL     1       2.714  14.819  20.104  0.00  0.00    +0.000 A 
ATOM     18  CA  UNL     1       3.111  14.000  19.023  0.00  0.00    +0.000 A 
ATOM     19  N   UNL     1       4.253  14.307  18.329  0.00  0.00    +0.000 NA
ATOM     20  H   UNL     1       8.239  15.789  16.791  0.00  0.00    +0.000 HD
ATOM     21  H   UNL     1       6.199  14.952  17.160  0.00  0.00    +0.000 HD
ATOM     22  H   UNL     1       3.322  17.180  22.156  0.00  0.00    +0.000 HD
ENDROOT
BRANCH   1  23
ATOM     23  C   UNL     1       9.892  15.603  18.149  0.00  0.00    +0.000 C 
BRANCH  23  24
ATOM     24  C   UNL     1      10.330  14.162  18.431  0.00  0.00    +0.000 A 
ATOM     25  C   UNL     1      10.144  13.182  17.439  0.00  0.00    +0.000 A 
ATOM     26  C   UNL     1      10.584  11.869  17.630  0.00  0.00    +0.000 A 
ATOM     27  C   UNL     1      11.213  11.509  18.817  0.00  0.00    +0.000 A 
ATOM     28  C   UNL     1      11.381  12.457  19.823  0.00  0.00    +0.000 A 
ATOM     29  C   UNL     1      10.932  13.767  19.638  0.00  0.00    +0.000 A 
ENDBRANCH  23  24
BRANCH  23  31
ATOM     30  C   UNL     1      12.332  16.035  17.406  0.00  0.00    +0.000 C 
ATOM     31  C   UNL     1      10.853  16.391  17.176  0.00  0.00    +0.000 C 
ATOM     32  C   UNL     1      10.690  17.912  17.271  0.00  0.00    +0.000 C 
BRANCH  31  33
ATOM     33  O   UNL     1      10.567  16.001  15.817  0.00  0.00    +0.000 OA
ATOM     34  H   UNL     1      11.333  15.512  15.474  0.00  0.00    +0.000 HD
ENDBRANCH  31  33
ENDBRANCH  23  31
ENDBRANCH   1  23
BRANCH  18  35
ATOM     35  C   UNL     1       2.371  12.772  18.570  0.00  0.00    +0.000 C 
BRANCH  35  36
ATOM     36  O   UNL     1       2.779  12.288  17.279  0.00  0.00    +0.000 OA
ATOM     37  H   UNL     1       2.050  12.538  16.682  0.00  0.00    +0.000 HD
ENDBRANCH  35  36
ENDBRANCH  18  35
TORSDOF 6
ENDMDL
