MODEL 1
REMARK VINA RESULT:      -8.7      0.000      0.000
REMARK  Name = 
REMARK  3 active torsions:
REMARK  status: ('A' for Active; 'I' for Inactive)
REMARK    1  A    between atoms: C_4  and  N_5
REMARK    2  A    between atoms: N_5  and  C_6
REMARK    3  A    between atoms: C_8  and  C_9
REMARK                            x       y       z     vdW  Elec       q    Type
REMARK                         _______ _______ _______ _____ _____    ______ ____
ROOT
ATOM      1  C   UNL     1       4.527   4.032  16.924  0.00  0.00    +0.000 A 
ATOM      2  N   UNL     1       5.591   4.063  16.105  0.00  0.00    +0.000 NA
ATOM      3  C   UNL     1       6.186   5.225  15.994  0.00  0.00    +0.000 A 
ATOM      4  N   UNL     1       5.474   6.325  15.797  0.00  0.00    +0.000 NA
ATOM      5  C   UNL     1       4.428   6.404  16.602  0.00  0.00    +0.000 A 
ATOM      6  C   UNL     1       4.106   7.720  16.908  0.00  0.00    +0.000 A 
ATOM      7  C   UNL     1       3.191   8.032  17.867  0.00  0.00    +0.000 A 
ATOM      8  C   UNL     1       2.471   7.011  18.479  0.00  0.00    +0.000 A 
ATOM      9  C   UNL     1       2.779   5.656  18.175  0.00  0.00    +0.000 A 
ATOM     10  C   UNL     1       3.840   5.287  17.260  0.00  0.00    +0.000 A 
ENDROOT
BRANCH   3  11
ATOM     11  C   UNL     1       7.159   5.485  17.072  0.00  0.00    +0.000 A 
ATOM     12  C   UNL     1       7.348   6.695  17.788  0.00  0.00    +0.000 A 
ATOM     13  C   UNL     1       7.934   6.332  18.975  0.00  0.00    +0.000 A 
ATOM     14  O   UNL     1       8.165   4.999  19.040  0.00  0.00    +0.000 OA
ATOM     15  C   UNL     1       7.693   4.484  17.878  0.00  0.00    +0.000 A 
ENDBRANCH   3  11
BRANCH   1  16
ATOM     16  N   UNL     1       4.500   2.791  17.648  0.00  0.00    +0.000 N 
ATOM     17  H   UNL     1       5.411   2.551  18.010  0.00  0.00    +0.000 HD
BRANCH  16  21
ATOM     18  C   UNL     1       1.464   2.474  20.700  0.00  0.00    +0.000 A 
ATOM     19  C   UNL     1       1.144   2.245  19.361  0.00  0.00    +0.000 A 
ATOM     20  C   UNL     1       2.142   2.298  18.357  0.00  0.00    +0.000 A 
ATOM     21  C   UNL     1       3.481   2.593  18.684  0.00  0.00    +0.000 A 
ATOM     22  C   UNL     1       3.781   2.776  20.050  0.00  0.00    +0.000 A 
ATOM     23  C   UNL     1       2.784   2.733  21.040  0.00  0.00    +0.000 A 
ENDBRANCH  16  21
ENDBRANCH   1  16
TORSDOF 3
ENDMDL
MODEL 2
REMARK VINA RESULT:      -8.7      2.065      4.705
REMARK  Name = 
REMARK  3 active torsions:
REMARK  status: ('A' for Active; 'I' for Inactive)
REMARK    1  A    between atoms: C_4  and  N_5
REMARK    2  A    between atoms: N_5  and  C_6
REMARK    3  A    between atoms: C_8  and  C_9
REMARK                            x       y       z     vdW  Elec       q    Type
REMARK                         _______ _______ _______ _____ _____    ______ ____
ROOT
ATOM      1  C   UNL     1       3.757   5.834  18.662  0.00  0.00    +0.000 A 
ATOM      2  N   UNL     1       5.079   5.885  18.896  0.00  0.00    +0.000 NA
ATOM      3  C   UNL     1       5.718   4.747  18.783  0.00  0.00    +0.000 A 
ATOM      4  N   UNL     1       5.235   3.650  19.348  0.00  0.00    +0.000 NA
ATOM      5  C   UNL     1       3.941   3.491  19.123  0.00  0.00    +0.000 A 
ATOM      6  C   UNL     1       3.584   2.150  19.074  0.00  0.00    +0.000 A 
ATOM      7  C   UNL     1       2.347   1.750  18.666  0.00  0.00    +0.000 A 
ATOM      8  C   UNL     1       1.375   2.708  18.401  0.00  0.00    +0.000 A 
ATOM      9  C   UNL     1       1.717   4.088  18.452  0.00  0.00    +0.000 A 
ATOM     10  C   UNL     1       3.059   4.545  18.751  0.00  0.00    +0.000 A 
ENDROOT
BRANCH   3  11
ATOM     11  C   UNL     1       6.098   4.429  17.394  0.00  0.00    +0.000 A 
ATOM     12  C   UNL     1       5.256   4.412  16.253  0.00  0.00    +0.000 A 
ATOM     13  C   UNL     1       6.090   4.589  15.177  0.00  0.00    +0.000 A 
ATOM     14  O   UNL     1       7.389   4.671  15.551  0.00  0.00    +0.000 OA
ATOM     15  C   UNL     1       7.393   4.573  16.903  0.00  0.00    +0.000 A 
ENDBRANCH   3  11
BRANCH   1  16
ATOM     16  N   UNL     1       3.335   7.018  17.964  0.00  0.00    +0.000 N 
ATOM     17  H   UNL     1       3.072   6.815  17.011  0.00  0.00    +0.000 HD
BRANCH  16  21
ATOM     18  C   UNL     1       0.597   9.741  19.891  0.00  0.00    +0.000 A 
ATOM     19  C   UNL     1       0.897   9.884  18.536  0.00  0.00    +0.000 A 
ATOM     20  C   UNL     1       1.756   8.968  17.882  0.00  0.00    +0.000 A 
ATOM     21  C   UNL     1       2.336   7.893  18.586  0.00  0.00    +0.000 A 
ATOM     22  C   UNL     1       1.980   7.749  19.942  0.00  0.00    +0.000 A 
ATOM     23  C   UNL     1       1.136   8.669  20.588  0.00  0.00    +0.000 A 
ENDBRANCH  16  21
ENDBRANCH   1  16
TORSDOF 3
ENDMDL
MODEL 3
REMARK VINA RESULT:      -8.6      2.092      4.771
REMARK  Name = 
REMARK  3 active torsions:
REMARK  status: ('A' for Active; 'I' for Inactive)
REMARK    1  A    between atoms: C_4  and  N_5
REMARK    2  A    between atoms: N_5  and  C_6
REMARK    3  A    between atoms: C_8  and  C_9
REMARK                            x       y       z     vdW  Elec       q    Type
REMARK                         _______ _______ _______ _____ _____    ______ ____
ROOT
ATOM      1  C   UNL     1       3.581   5.886  18.572  0.00  0.00    +0.000 A 
ATOM      2  N   UNL     1       4.893   6.092  18.776  0.00  0.00    +0.000 NA
ATOM      3  C   UNL     1       5.658   5.034  18.657  0.00  0.00    +0.000 A 
ATOM      4  N   UNL     1       5.316   3.894  19.239  0.00  0.00    +0.000 NA
ATOM      5  C   UNL     1       4.045   3.584  19.044  0.00  0.00    +0.000 A 
ATOM      6  C   UNL     1       3.844   2.210  19.013  0.00  0.00    +0.000 A 
ATOM      7  C   UNL     1       2.655   1.667  18.634  0.00  0.00    +0.000 A 
ATOM      8  C   UNL     1       1.572   2.504  18.384  0.00  0.00    +0.000 A 
ATOM      9  C   UNL     1       1.753   3.913  18.419  0.00  0.00    +0.000 A 
ATOM     10  C   UNL     1       3.039   4.526  18.685  0.00  0.00    +0.000 A 
ENDROOT
BRANCH   3  11
ATOM     11  C   UNL     1       6.042   4.749  17.262  0.00  0.00    +0.000 A 
ATOM     12  C   UNL     1       5.379   5.173  16.082  0.00  0.00    +0.000 A 
ATOM     13  C   UNL     1       6.331   5.140  15.093  0.00  0.00    +0.000 A 
ATOM     14  O   UNL     1       7.523   4.688  15.552  0.00  0.00    +0.000 OA
ATOM     15  C   UNL     1       7.345   4.450  16.874  0.00  0.00    +0.000 A 
ENDBRANCH   3  11
BRANCH   1  16
ATOM     16  N   UNL     1       3.011   7.007  17.876  0.00  0.00    +0.000 N 
ATOM     17  H   UNL     1       2.489   6.714  17.063  0.00  0.00    +0.000 HD
BRANCH  16  21
ATOM     18  C   UNL     1       0.528   9.814  20.016  0.00  0.00    +0.000 A 
ATOM     19  C   UNL     1       1.075   8.712  20.675  0.00  0.00    +0.000 A 
ATOM     20  C   UNL     1       1.930   7.811  19.994  0.00  0.00    +0.000 A 
ATOM     21  C   UNL     1       2.244   8.000  18.633  0.00  0.00    +0.000 A 
ATOM     22  C   UNL     1       1.712   9.147  18.007  0.00  0.00    +0.000 A 
ATOM     23  C   UNL     1       0.854  10.030  18.685  0.00  0.00    +0.000 A 
ENDBRANCH  16  21
ENDBRANCH   1  16
TORSDOF 3
ENDMDL
MODEL 4
REMARK VINA RESULT:      -8.5      1.960      3.199
REMARK  Name = 
REMARK  3 active torsions:
REMARK  status: ('A' for Active; 'I' for Inactive)
REMARK    1  A    between atoms: C_4  and  N_5
REMARK    2  A    between atoms: N_5  and  C_6
REMARK    3  A    between atoms: C_8  and  C_9
REMARK                            x       y       z     vdW  Elec       q    Type
REMARK                         _______ _______ _______ _____ _____    ______ ____
ROOT
ATOM      1  C   UNL     1       4.670   4.588  17.631  0.00  0.00    +0.000 A 
ATOM      2  N   UNL     1       4.138   4.981  16.462  0.00  0.00    +0.000 NA
ATOM      3  C   UNL     1       4.910   5.728  15.711  0.00  0.00    +0.000 A 
ATOM      4  N   UNL     1       5.567   6.750  16.237  0.00  0.00    +0.000 NA
ATOM      5  C   UNL     1       6.170   6.437  17.372  0.00  0.00    +0.000 A 
ATOM      6  C   UNL     1       7.333   7.172  17.562  0.00  0.00    +0.000 A 
ATOM      7  C   UNL     1       8.212   6.882  18.561  0.00  0.00    +0.000 A 
ATOM      8  C   UNL     1       7.886   5.899  19.490  0.00  0.00    +0.000 A 
ATOM      9  C   UNL     1       6.696   5.139  19.319  0.00  0.00    +0.000 A 
ATOM     10  C   UNL     1       5.807   5.331  18.191  0.00  0.00    +0.000 A 
ENDROOT
BRANCH   3  11
ATOM     11  C   UNL     1       5.848   4.946  14.884  0.00  0.00    +0.000 A 
ATOM     12  C   UNL     1       5.546   3.835  14.055  0.00  0.00    +0.000 A 
ATOM     13  C   UNL     1       6.554   3.784  13.125  0.00  0.00    +0.000 A 
ATOM     14  O   UNL     1       7.484   4.747  13.333  0.00  0.00    +0.000 OA
ATOM     15  C   UNL     1       7.052   5.454  14.405  0.00  0.00    +0.000 A 
ENDBRANCH   3  11
BRANCH   1  16
ATOM     16  N   UNL     1       4.268   3.240  17.926  0.00  0.00    +0.000 N 
ATOM     17  H   UNL     1       5.063   2.643  18.100  0.00  0.00    +0.000 HD
BRANCH  16  21
ATOM     18  C   UNL     1       1.249   2.826  20.983  0.00  0.00    +0.000 A 
ATOM     19  C   UNL     1       0.882   2.986  19.646  0.00  0.00    +0.000 A 
ATOM     20  C   UNL     1       1.863   3.074  18.629  0.00  0.00    +0.000 A 
ATOM     21  C   UNL     1       3.236   3.011  18.943  0.00  0.00    +0.000 A 
ATOM     22  C   UNL     1       3.575   2.804  20.295  0.00  0.00    +0.000 A 
ATOM     23  C   UNL     1       2.597   2.730  21.302  0.00  0.00    +0.000 A 
ENDBRANCH  16  21
ENDBRANCH   1  16
TORSDOF 3
ENDMDL
MODEL 5
REMARK VINA RESULT:      -8.3      1.983      3.358
REMARK  Name = 
REMARK  3 active torsions:
REMARK  status: ('A' for Active; 'I' for Inactive)
REMARK    1  A    between atoms: C_4  and  N_5
REMARK    2  A    between atoms: N_5  and  C_6
REMARK    3  A    between atoms: C_8  and  C_9
REMARK                            x       y       z     vdW  Elec       q    Type
REMARK                         _______ _______ _______ _____ _____    ______ ____
ROOT
ATOM      1  C   UNL     1       4.568   4.847  17.708  0.00  0.00    +0.000 A 
ATOM      2  N   UNL     1       4.089   5.265  16.525  0.00  0.00    +0.000 NA
ATOM      3  C   UNL     1       4.935   5.924  15.772  0.00  0.00    +0.000 A 
ATOM      4  N   UNL     1       5.676   6.893  16.290  0.00  0.00    +0.000 NA
ATOM      5  C   UNL     1       6.233   6.547  17.438  0.00  0.00    +0.000 A 
ATOM      6  C   UNL     1       7.456   7.178  17.633  0.00  0.00    +0.000 A 
ATOM      7  C   UNL     1       8.291   6.827  18.649  0.00  0.00    +0.000 A 
ATOM      8  C   UNL     1       7.865   5.896  19.591  0.00  0.00    +0.000 A 
ATOM      9  C   UNL     1       6.614   5.244  19.416  0.00  0.00    +0.000 A 
ATOM     10  C   UNL     1       5.760   5.494  18.272  0.00  0.00    +0.000 A 
ENDROOT
BRANCH   3  11
ATOM     11  C   UNL     1       5.808   5.045  14.972  0.00  0.00    +0.000 A 
ATOM     12  C   UNL     1       5.417   3.950  14.160  0.00  0.00    +0.000 A 
ATOM     13  C   UNL     1       6.428   3.790  13.246  0.00  0.00    +0.000 A 
ATOM     14  O   UNL     1       7.439   4.668  13.449  0.00  0.00    +0.000 OA
ATOM     15  C   UNL     1       7.060   5.433  14.502  0.00  0.00    +0.000 A 
ENDBRANCH   3  11
BRANCH   1  16
ATOM     16  N   UNL     1       4.040   3.547  18.021  0.00  0.00    +0.000 N 
ATOM     17  H   UNL     1       4.769   2.850  18.065  0.00  0.00    +0.000 HD
BRANCH  16  21
ATOM     18  C   UNL     1       1.295   2.890  21.286  0.00  0.00    +0.000 A 
ATOM     19  C   UNL     1       2.639   2.535  21.412  0.00  0.00    +0.000 A 
ATOM     20  C   UNL     1       3.559   2.790  20.366  0.00  0.00    +0.000 A 
ATOM     21  C   UNL     1       3.138   3.402  19.168  0.00  0.00    +0.000 A 
ATOM     22  C   UNL     1       1.785   3.789  19.087  0.00  0.00    +0.000 A 
ATOM     23  C   UNL     1       0.874   3.522  20.124  0.00  0.00    +0.000 A 
ENDBRANCH  16  21
ENDBRANCH   1  16
TORSDOF 3
ENDMDL
MODEL 6
REMARK VINA RESULT:      -8.1      0.191      1.041
REMARK  Name = 
REMARK  3 active torsions:
REMARK  status: ('A' for Active; 'I' for Inactive)
REMARK    1  A    between atoms: C_4  and  N_5
REMARK    2  A    between atoms: N_5  and  C_6
REMARK    3  A    between atoms: C_8  and  C_9
REMARK                            x       y       z     vdW  Elec       q    Type
REMARK                         _______ _______ _______ _____ _____    ______ ____
ROOT
ATOM      1  C   UNL     1       4.448   4.092  17.015  0.00  0.00    +0.000 A 
ATOM      2  N   UNL     1       5.512   4.030  16.197  0.00  0.00    +0.000 NA
ATOM      3  C   UNL     1       6.154   5.159  16.017  0.00  0.00    +0.000 A 
ATOM      4  N   UNL     1       5.487   6.273  15.755  0.00  0.00    +0.000 NA
ATOM      5  C   UNL     1       4.446   6.442  16.553  0.00  0.00    +0.000 A 
ATOM      6  C   UNL     1       4.178   7.786  16.780  0.00  0.00    +0.000 A 
ATOM      7  C   UNL     1       3.278   8.191  17.718  0.00  0.00    +0.000 A 
ATOM      8  C   UNL     1       2.518   7.238  18.389  0.00  0.00    +0.000 A 
ATOM      9  C   UNL     1       2.770   5.857  18.167  0.00  0.00    +0.000 A 
ATOM     10  C   UNL     1       3.814   5.391  17.276  0.00  0.00    +0.000 A 
ENDROOT
BRANCH   3  11
ATOM     11  C   UNL     1       7.138   5.443  17.078  0.00  0.00    +0.000 A 
ATOM     12  C   UNL     1       7.338   6.669  17.762  0.00  0.00    +0.000 A 
ATOM     13  C   UNL     1       7.935   6.334  18.952  0.00  0.00    +0.000 A 
ATOM     14  O   UNL     1       8.162   5.002  19.048  0.00  0.00    +0.000 OA
ATOM     15  C   UNL     1       7.676   4.460  17.905  0.00  0.00    +0.000 A 
ENDBRANCH   3  11
BRANCH   1  16
ATOM     16  N   UNL     1       4.372   2.898  17.812  0.00  0.00    +0.000 N 
ATOM     17  H   UNL     1       5.278   2.626  18.163  0.00  0.00    +0.000 HD
BRANCH  16  21
ATOM     18  C   UNL     1       1.467   2.399  20.965  0.00  0.00    +0.000 A 
ATOM     19  C   UNL     1       2.784   2.750  21.268  0.00  0.00    +0.000 A 
ATOM     20  C   UNL     1       3.733   2.963  20.239  0.00  0.00    +0.000 A 
ATOM     21  C   UNL     1       3.374   2.819  18.883  0.00  0.00    +0.000 A 
ATOM     22  C   UNL     1       2.027   2.508  18.607  0.00  0.00    +0.000 A 
ATOM     23  C   UNL     1       1.092   2.285  19.633  0.00  0.00    +0.000 A 
ENDBRANCH  16  21
ENDBRANCH   1  16
TORSDOF 3
ENDMDL
MODEL 7
REMARK VINA RESULT:      -8.1      1.937      5.168
REMARK  Name = 
REMARK  3 active torsions:
REMARK  status: ('A' for Active; 'I' for Inactive)
REMARK    1  A    between atoms: C_4  and  N_5
REMARK    2  A    between atoms: N_5  and  C_6
REMARK    3  A    between atoms: C_8  and  C_9
REMARK                            x       y       z     vdW  Elec       q    Type
REMARK                         _______ _______ _______ _____ _____    ______ ____
ROOT
ATOM      1  C   UNL     1       3.782   3.295  17.875  0.00  0.00    +0.000 A 
ATOM      2  N   UNL     1       3.049   4.039  17.031  0.00  0.00    +0.000 NA
ATOM      3  C   UNL     1       2.077   4.727  17.579  0.00  0.00    +0.000 A 
ATOM      4  N   UNL     1       1.260   4.152  18.449  0.00  0.00    +0.000 NA
ATOM      5  C   UNL     1       1.904   3.437  19.356  0.00  0.00    +0.000 A 
ATOM      6  C   UNL     1       1.236   3.417  20.573  0.00  0.00    +0.000 A 
ATOM      7  C   UNL     1       1.807   2.906  21.698  0.00  0.00    +0.000 A 
ATOM      8  C   UNL     1       3.046   2.280  21.609  0.00  0.00    +0.000 A 
ATOM      9  C   UNL     1       3.745   2.281  20.371  0.00  0.00    +0.000 A 
ATOM     10  C   UNL     1       3.226   2.935  19.186  0.00  0.00    +0.000 A 
ENDROOT
BRANCH   3  11
ATOM     11  C   UNL     1       2.522   6.017  18.139  0.00  0.00    +0.000 A 
ATOM     12  C   UNL     1       3.177   7.073  17.454  0.00  0.00    +0.000 A 
ATOM     13  C   UNL     1       2.920   8.203  18.189  0.00  0.00    +0.000 A 
ATOM     14  O   UNL     1       2.194   7.932  19.300  0.00  0.00    +0.000 OA
ATOM     15  C   UNL     1       1.952   6.598  19.268  0.00  0.00    +0.000 A 
ENDBRANCH   3  11
BRANCH   1  16
ATOM     16  N   UNL     1       5.164   3.324  17.482  0.00  0.00    +0.000 N 
ATOM     17  H   UNL     1       5.283   3.046  16.519  0.00  0.00    +0.000 HD
BRANCH  16  21
ATOM     18  C   UNL     1       7.727   6.702  18.285  0.00  0.00    +0.000 A 
ATOM     19  C   UNL     1       7.237   6.478  16.998  0.00  0.00    +0.000 A 
ATOM     20  C   UNL     1       6.357   5.401  16.732  0.00  0.00    +0.000 A 
ATOM     21  C   UNL     1       5.960   4.523  17.761  0.00  0.00    +0.000 A 
ATOM     22  C   UNL     1       6.435   4.800  19.059  0.00  0.00    +0.000 A 
ATOM     23  C   UNL     1       7.318   5.864  19.313  0.00  0.00    +0.000 A 
ENDBRANCH  16  21
ENDBRANCH   1  16
TORSDOF 3
ENDMDL
MODEL 8
REMARK VINA RESULT:      -8.0      2.095      3.208
REMARK  Name = 
REMARK  3 active torsions:
REMARK  status: ('A' for Active; 'I' for Inactive)
REMARK    1  A    between atoms: C_4  and  N_5
REMARK    2  A    between atoms: N_5  and  C_6
REMARK    3  A    between atoms: C_8  and  C_9
REMARK                            x       y       z     vdW  Elec       q    Type
REMARK                         _______ _______ _______ _____ _____    ______ ____
ROOT
ATOM      1  C   UNL     1       5.503   4.604  18.622  0.00  0.00    +0.000 A 
ATOM      2  N   UNL     1       6.618   4.866  19.324  0.00  0.00    +0.000 NA
ATOM      3  C   UNL     1       7.631   5.322  18.629  0.00  0.00    +0.000 A 
ATOM      4  N   UNL     1       7.980   4.737  17.493  0.00  0.00    +0.000 NA
ATOM      5  C   UNL     1       6.943   4.488  16.711  0.00  0.00    +0.000 A 
ATOM      6  C   UNL     1       7.282   4.541  15.365  0.00  0.00    +0.000 A 
ATOM      7  C   UNL     1       6.339   4.508  14.384  0.00  0.00    +0.000 A 
ATOM      8  C   UNL     1       5.007   4.298  14.726  0.00  0.00    +0.000 A 
ATOM      9  C   UNL     1       4.638   4.232  16.098  0.00  0.00    +0.000 A 
ATOM     10  C   UNL     1       5.598   4.400  17.170  0.00  0.00    +0.000 A 
ENDROOT
BRANCH   3  11
ATOM     11  C   UNL     1       7.574   6.779  18.406  0.00  0.00    +0.000 A 
ATOM     12  C   UNL     1       8.502   7.755  18.850  0.00  0.00    +0.000 A 
ATOM     13  C   UNL     1       8.344   8.824  18.003  0.00  0.00    +0.000 A 
ATOM     14  O   UNL     1       7.363   8.610  17.093  0.00  0.00    +0.000 OA
ATOM     15  C   UNL     1       6.894   7.363  17.340  0.00  0.00    +0.000 A 
ENDBRANCH   3  11
BRANCH   1  16
ATOM     16  N   UNL     1       4.343   4.971  19.386  0.00  0.00    +0.000 N 
ATOM     17  H   UNL     1       4.111   5.946  19.266  0.00  0.00    +0.000 HD
BRANCH  16  21
ATOM     18  C   UNL     1       0.880   2.450  18.856  0.00  0.00    +0.000 A 
ATOM     19  C   UNL     1       1.901   2.072  19.729  0.00  0.00    +0.000 A 
ATOM     20  C   UNL     1       3.019   2.914  19.948  0.00  0.00    +0.000 A 
ATOM     21  C   UNL     1       3.132   4.151  19.282  0.00  0.00    +0.000 A 
ATOM     22  C   UNL     1       2.065   4.526  18.440  0.00  0.00    +0.000 A 
ATOM     23  C   UNL     1       0.964   3.680  18.218  0.00  0.00    +0.000 A 
ENDBRANCH  16  21
ENDBRANCH   1  16
TORSDOF 3
ENDMDL
MODEL 9
REMARK VINA RESULT:      -8.0      2.439      5.324
REMARK  Name = 
REMARK  3 active torsions:
REMARK  status: ('A' for Active; 'I' for Inactive)
REMARK    1  A    between atoms: C_4  and  N_5
REMARK    2  A    between atoms: N_5  and  C_6
REMARK    3  A    between atoms: C_8  and  C_9
REMARK                            x       y       z     vdW  Elec       q    Type
REMARK                         _______ _______ _______ _____ _____    ______ ____
ROOT
ATOM      1  C   UNL     1       2.891   5.763  18.620  0.00  0.00    +0.000 A 
ATOM      2  N   UNL     1       1.914   4.842  18.589  0.00  0.00    +0.000 NA
ATOM      3  C   UNL     1       2.272   3.649  18.183  0.00  0.00    +0.000 A 
ATOM      4  N   UNL     1       3.016   3.508  17.096  0.00  0.00    +0.000 NA
ATOM      5  C   UNL     1       4.040   4.345  17.068  0.00  0.00    +0.000 A 
ATOM      6  C   UNL     1       5.131   3.809  16.398  0.00  0.00    +0.000 A 
ATOM      7  C   UNL     1       6.352   4.413  16.414  0.00  0.00    +0.000 A 
ATOM      8  C   UNL     1       6.487   5.659  17.017  0.00  0.00    +0.000 A 
ATOM      9  C   UNL     1       5.380   6.230  17.702  0.00  0.00    +0.000 A 
ATOM     10  C   UNL     1       4.105   5.552  17.821  0.00  0.00    +0.000 A 
ENDROOT
BRANCH   3  11
ATOM     11  C   UNL     1       2.853   2.820  19.256  0.00  0.00    +0.000 A 
ATOM     12  C   UNL     1       4.121   2.186  19.264  0.00  0.00    +0.000 A 
ATOM     13  C   UNL     1       4.432   2.001  20.589  0.00  0.00    +0.000 A 
ATOM     14  O   UNL     1       3.441   2.430  21.406  0.00  0.00    +0.000 OA
ATOM     15  C   UNL     1       2.479   2.929  20.593  0.00  0.00    +0.000 A 
ENDBRANCH   3  11
BRANCH   1  16
ATOM     16  N   UNL     1       2.728   6.613  19.767  0.00  0.00    +0.000 N 
ATOM     17  H   UNL     1       3.606   6.777  20.238  0.00  0.00    +0.000 HD
BRANCH  16  21
ATOM     18  C   UNL     1       0.368  10.187  19.232  0.00  0.00    +0.000 A 
ATOM     19  C   UNL     1       0.430   9.563  20.479  0.00  0.00    +0.000 A 
ATOM     20  C   UNL     1       1.239   8.418  20.678  0.00  0.00    +0.000 A 
ATOM     21  C   UNL     1       1.996   7.875  19.620  0.00  0.00    +0.000 A 
ATOM     22  C   UNL     1       1.948   8.553  18.385  0.00  0.00    +0.000 A 
ATOM     23  C   UNL     1       1.133   9.682  18.190  0.00  0.00    +0.000 A 
ENDBRANCH  16  21
ENDBRANCH   1  16
TORSDOF 3
ENDMDL
