MODEL 1
REMARK VINA RESULT:      -8.0      0.000      0.000
REMARK  Name = 
REMARK  7 active torsions:
REMARK  status: ('A' for Active; 'I' for Inactive)
REMARK    1  A    between atoms: C_2  and  C_16
REMARK    2  A    between atoms: N_3  and  C_4
REMARK    3  A    between atoms: C_4  and  C_5
REMARK    4  A    between atoms: C_5  and  C_6
REMARK    5  A    between atoms: C_12  and  O_13
REMARK    6  A    between atoms: C_19  and  O_20
REMARK    7  A    between atoms: C_22  and  O_23
REMARK                            x       y       z     vdW  Elec       q    Type
REMARK                         _______ _______ _______ _____ _____    ______ ____
ROOT
ATOM      1  O   UNL     1       3.453   5.650  20.143  0.00  0.00    +0.000 OA
ATOM      2  C   UNL     1       2.826   5.994  19.142  0.00  0.00    +0.000 C 
ATOM      3  N   UNL     1       2.629   5.150  18.074  0.00  0.00    +0.000 N 
ATOM      4  H   UNL     1       2.070   5.488  17.293  0.00  0.00    +0.000 HD
ENDROOT
BRANCH   2   5
ATOM      5  C   UNL     1       2.262   7.375  19.053  0.00  0.00    +0.000 A 
ATOM      6  C   UNL     1       2.363   8.022  17.806  0.00  0.00    +0.000 A 
ATOM      7  C   UNL     1       1.863   9.313  17.622  0.00  0.00    +0.000 A 
ATOM      8  C   UNL     1       1.258   9.962  18.689  0.00  0.00    +0.000 A 
ATOM      9  C   UNL     1       1.143   9.347  19.932  0.00  0.00    +0.000 A 
ATOM     10  C   UNL     1       1.648   8.055  20.116  0.00  0.00    +0.000 A 
BRANCH   8  11
ATOM     11  O   UNL     1       0.757  11.224  18.558  0.00  0.00    +0.000 OA
ATOM     12  H   UNL     1      -0.070  11.180  18.050  0.00  0.00    +0.000 HD
ENDBRANCH   8  11
BRANCH  10  13
ATOM     13  O   UNL     1       1.531   7.475  21.354  0.00  0.00    +0.000 OA
ATOM     14  H   UNL     1       0.589   7.300  21.527  0.00  0.00    +0.000 HD
ENDBRANCH  10  13
ENDBRANCH   2   5
BRANCH   3  15
ATOM     15  C   UNL     1       3.181   3.811  18.079  0.00  0.00    +0.000 C 
BRANCH  15  16
ATOM     16  C   UNL     1       4.247   3.588  17.009  0.00  0.00    +0.000 C 
BRANCH  16  17
ATOM     17  C   UNL     1       5.067   4.818  16.761  0.00  0.00    +0.000 A 
ATOM     18  C   UNL     1       4.992   5.638  15.651  0.00  0.00    +0.000 A 
ATOM     19  N   UNL     1       5.910   6.644  15.792  0.00  0.00    +0.000 N 
ATOM     20  C   UNL     1       6.594   6.501  16.976  0.00  0.00    +0.000 A 
ATOM     21  C   UNL     1       7.625   7.279  17.521  0.00  0.00    +0.000 A 
ATOM     22  C   UNL     1       8.142   6.896  18.762  0.00  0.00    +0.000 A 
ATOM     23  C   UNL     1       7.633   5.783  19.422  0.00  0.00    +0.000 A 
ATOM     24  C   UNL     1       6.600   5.020  18.877  0.00  0.00    +0.000 A 
ATOM     25  C   UNL     1       6.075   5.373  17.616  0.00  0.00    +0.000 A 
ATOM     26  H   UNL     1       6.069   7.385  15.125  0.00  0.00    +0.000 HD
BRANCH  23  27
ATOM     27  O   UNL     1       8.131   5.393  20.632  0.00  0.00    +0.000 OA
ATOM     28  H   UNL     1       9.013   5.783  20.744  0.00  0.00    +0.000 HD
ENDBRANCH  23  27
ENDBRANCH  16  17
ENDBRANCH  15  16
ENDBRANCH   3  15
TORSDOF 7
ENDMDL
MODEL 2
REMARK VINA RESULT:      -7.9      2.259      5.763
REMARK  Name = 
REMARK  7 active torsions:
REMARK  status: ('A' for Active; 'I' for Inactive)
REMARK    1  A    between atoms: C_2  and  C_16
REMARK    2  A    between atoms: N_3  and  C_4
REMARK    3  A    between atoms: C_4  and  C_5
REMARK    4  A    between atoms: C_5  and  C_6
REMARK    5  A    between atoms: C_12  and  O_13
REMARK    6  A    between atoms: C_19  and  O_20
REMARK    7  A    between atoms: C_22  and  O_23
REMARK                            x       y       z     vdW  Elec       q    Type
REMARK                         _______ _______ _______ _____ _____    ______ ____
ROOT
ATOM      1  O   UNL     1       4.868   3.927  15.883  0.00  0.00    +0.000 OA
ATOM      2  C   UNL     1       5.179   4.033  17.068  0.00  0.00    +0.000 C 
ATOM      3  N   UNL     1       4.680   3.191  18.035  0.00  0.00    +0.000 N 
ATOM      4  H   UNL     1       5.008   3.314  18.992  0.00  0.00    +0.000 HD
ENDROOT
BRANCH   2   5
ATOM      5  C   UNL     1       6.117   5.113  17.500  0.00  0.00    +0.000 A 
ATOM      6  C   UNL     1       6.854   4.880  18.677  0.00  0.00    +0.000 A 
ATOM      7  C   UNL     1       7.759   5.827  19.160  0.00  0.00    +0.000 A 
ATOM      8  C   UNL     1       7.929   7.016  18.464  0.00  0.00    +0.000 A 
ATOM      9  C   UNL     1       7.215   7.273  17.297  0.00  0.00    +0.000 A 
ATOM     10  C   UNL     1       6.307   6.324  16.816  0.00  0.00    +0.000 A 
BRANCH   8  11
ATOM     11  O   UNL     1       8.799   7.973  18.898  0.00  0.00    +0.000 OA
ATOM     12  H   UNL     1       9.703   7.621  18.842  0.00  0.00    +0.000 HD
ENDBRANCH   8  11
BRANCH  10  13
ATOM     13  O   UNL     1       5.608   6.606  15.670  0.00  0.00    +0.000 OA
ATOM     14  H   UNL     1       4.738   6.174  15.723  0.00  0.00    +0.000 HD
ENDBRANCH  10  13
ENDBRANCH   2   5
BRANCH   3  15
ATOM     15  C   UNL     1       3.738   2.147  17.691  0.00  0.00    +0.000 C 
BRANCH  15  16
ATOM     16  C   UNL     1       2.286   2.621  17.666  0.00  0.00    +0.000 C 
BRANCH  16  17
ATOM     17  C   UNL     1       1.930   3.423  18.881  0.00  0.00    +0.000 A 
ATOM     18  C   UNL     1       1.414   2.926  20.064  0.00  0.00    +0.000 A 
ATOM     19  N   UNL     1       1.211   3.973  20.922  0.00  0.00    +0.000 N 
ATOM     20  C   UNL     1       1.582   5.155  20.326  0.00  0.00    +0.000 A 
ATOM     21  C   UNL     1       1.532   6.467  20.819  0.00  0.00    +0.000 A 
ATOM     22  C   UNL     1       1.983   7.493  19.983  0.00  0.00    +0.000 A 
ATOM     23  C   UNL     1       2.468   7.202  18.712  0.00  0.00    +0.000 A 
ATOM     24  C   UNL     1       2.523   5.892  18.233  0.00  0.00    +0.000 A 
ATOM     25  C   UNL     1       2.055   4.841  19.050  0.00  0.00    +0.000 A 
ATOM     26  H   UNL     1       0.841   3.895  21.858  0.00  0.00    +0.000 HD
BRANCH  23  27
ATOM     27  O   UNL     1       2.906   8.193  17.881  0.00  0.00    +0.000 OA
ATOM     28  H   UNL     1       3.862   8.303  18.010  0.00  0.00    +0.000 HD
ENDBRANCH  23  27
ENDBRANCH  16  17
ENDBRANCH  15  16
ENDBRANCH   3  15
TORSDOF 7
ENDMDL
MODEL 3
REMARK VINA RESULT:      -7.5      0.853      1.421
REMARK  Name = 
REMARK  7 active torsions:
REMARK  status: ('A' for Active; 'I' for Inactive)
REMARK    1  A    between atoms: C_2  and  C_16
REMARK    2  A    between atoms: N_3  and  C_4
REMARK    3  A    between atoms: C_4  and  C_5
REMARK    4  A    between atoms: C_5  and  C_6
REMARK    5  A    between atoms: C_12  and  O_13
REMARK    6  A    between atoms: C_19  and  O_20
REMARK    7  A    between atoms: C_22  and  O_23
REMARK                            x       y       z     vdW  Elec       q    Type
REMARK                         _______ _______ _______ _____ _____    ______ ____
ROOT
ATOM      1  O   UNL     1       3.212   5.612  20.279  0.00  0.00    +0.000 OA
ATOM      2  C   UNL     1       2.712   6.025  19.234  0.00  0.00    +0.000 C 
ATOM      3  N   UNL     1       2.608   5.238  18.110  0.00  0.00    +0.000 N 
ATOM      4  H   UNL     1       2.151   5.633  17.290  0.00  0.00    +0.000 HD
ENDROOT
BRANCH   2   5
ATOM      5  C   UNL     1       2.207   7.429  19.152  0.00  0.00    +0.000 A 
ATOM      6  C   UNL     1       1.481   7.907  20.260  0.00  0.00    +0.000 A 
ATOM      7  C   UNL     1       0.971   9.207  20.280  0.00  0.00    +0.000 A 
ATOM      8  C   UNL     1       1.186  10.034  19.187  0.00  0.00    +0.000 A 
ATOM      9  C   UNL     1       1.901   9.589  18.079  0.00  0.00    +0.000 A 
ATOM     10  C   UNL     1       2.409   8.286  18.059  0.00  0.00    +0.000 A 
BRANCH   8  11
ATOM     11  O   UNL     1       0.705  11.311  19.159  0.00  0.00    +0.000 OA
ATOM     12  H   UNL     1       1.217  11.850  19.785  0.00  0.00    +0.000 HD
ENDBRANCH   8  11
BRANCH  10  13
ATOM     13  O   UNL     1       3.101   7.868  16.951  0.00  0.00    +0.000 OA
ATOM     14  H   UNL     1       2.483   7.409  16.354  0.00  0.00    +0.000 HD
ENDBRANCH  10  13
ENDBRANCH   2   5
BRANCH   3  15
ATOM     15  C   UNL     1       3.111   3.880  18.110  0.00  0.00    +0.000 C 
BRANCH  15  16
ATOM     16  C   UNL     1       4.140   3.613  17.013  0.00  0.00    +0.000 C 
BRANCH  16  17
ATOM     17  C   UNL     1       5.002   4.809  16.741  0.00  0.00    +0.000 A 
ATOM     18  C   UNL     1       4.972   5.593  15.603  0.00  0.00    +0.000 A 
ATOM     19  N   UNL     1       5.918   6.576  15.729  0.00  0.00    +0.000 N 
ATOM     20  C   UNL     1       6.574   6.452  16.929  0.00  0.00    +0.000 A 
ATOM     21  C   UNL     1       7.619   7.218  17.469  0.00  0.00    +0.000 A 
ATOM     22  C   UNL     1       8.101   6.861  18.732  0.00  0.00    +0.000 A 
ATOM     23  C   UNL     1       7.546   5.787  19.418  0.00  0.00    +0.000 A 
ATOM     24  C   UNL     1       6.500   5.036  18.879  0.00  0.00    +0.000 A 
ATOM     25  C   UNL     1       6.010   5.363  17.597  0.00  0.00    +0.000 A 
ATOM     26  H   UNL     1       6.111   7.289  15.041  0.00  0.00    +0.000 HD
BRANCH  23  27
ATOM     27  O   UNL     1       8.010   5.423  20.650  0.00  0.00    +0.000 OA
ATOM     28  H   UNL     1       7.252   5.326  21.249  0.00  0.00    +0.000 HD
ENDBRANCH  23  27
ENDBRANCH  16  17
ENDBRANCH  15  16
ENDBRANCH   3  15
TORSDOF 7
ENDMDL
MODEL 4
REMARK VINA RESULT:      -7.5      3.779      5.791
REMARK  Name = 
REMARK  7 active torsions:
REMARK  status: ('A' for Active; 'I' for Inactive)
REMARK    1  A    between atoms: C_2  and  C_16
REMARK    2  A    between atoms: N_3  and  C_4
REMARK    3  A    between atoms: C_4  and  C_5
REMARK    4  A    between atoms: C_5  and  C_6
REMARK    5  A    between atoms: C_12  and  O_13
REMARK    6  A    between atoms: C_19  and  O_20
REMARK    7  A    between atoms: C_22  and  O_23
REMARK                            x       y       z     vdW  Elec       q    Type
REMARK                         _______ _______ _______ _____ _____    ______ ____
ROOT
ATOM      1  O   UNL     1      -0.120  10.097  19.813  0.00  0.00    +0.000 OA
ATOM      2  C   UNL     1      -0.323  10.175  18.602  0.00  0.00    +0.000 C 
ATOM      3  N   UNL     1       0.668   9.950  17.675  0.00  0.00    +0.000 N 
ATOM      4  H   UNL     1       0.421   9.997  16.689  0.00  0.00    +0.000 HD
ENDROOT
BRANCH   2   5
ATOM      5  C   UNL     1      -1.681  10.540  18.096  0.00  0.00    +0.000 A 
ATOM      6  C   UNL     1      -2.103   9.915  16.907  0.00  0.00    +0.000 A 
ATOM      7  C   UNL     1      -3.357  10.188  16.356  0.00  0.00    +0.000 A 
ATOM      8  C   UNL     1      -4.195  11.091  16.996  0.00  0.00    +0.000 A 
ATOM      9  C   UNL     1      -3.805  11.723  18.173  0.00  0.00    +0.000 A 
ATOM     10  C   UNL     1      -2.547  11.451  18.722  0.00  0.00    +0.000 A 
BRANCH   8  11
ATOM     11  O   UNL     1      -5.427  11.391  16.495  0.00  0.00    +0.000 OA
ATOM     12  H   UNL     1      -5.843  10.572  16.177  0.00  0.00    +0.000 HD
ENDBRANCH   8  11
BRANCH  10  13
ATOM     13  O   UNL     1      -2.182  12.095  19.877  0.00  0.00    +0.000 OA
ATOM     14  H   UNL     1      -2.986  12.295  20.388  0.00  0.00    +0.000 HD
ENDBRANCH  10  13
ENDBRANCH   2   5
BRANCH   3  15
ATOM     15  C   UNL     1       2.015   9.629  18.098  0.00  0.00    +0.000 C 
BRANCH  15  16
ATOM     16  C   UNL     1       2.427   8.193  17.780  0.00  0.00    +0.000 C 
BRANCH  16  17
ATOM     17  C   UNL     1       2.205   7.269  18.939  0.00  0.00    +0.000 A 
ATOM     18  C   UNL     1       2.031   7.643  20.259  0.00  0.00    +0.000 A 
ATOM     19  N   UNL     1       1.871   6.511  21.012  0.00  0.00    +0.000 N 
ATOM     20  C   UNL     1       1.939   5.394  20.214  0.00  0.00    +0.000 A 
ATOM     21  C   UNL     1       1.848   4.037  20.553  0.00  0.00    +0.000 A 
ATOM     22  C   UNL     1       1.952   3.100  19.520  0.00  0.00    +0.000 A 
ATOM     23  C   UNL     1       2.132   3.519  18.207  0.00  0.00    +0.000 A 
ATOM     24  C   UNL     1       2.211   4.873  17.876  0.00  0.00    +0.000 A 
ATOM     25  C   UNL     1       2.130   5.837  18.903  0.00  0.00    +0.000 A 
ATOM     26  H   UNL     1       1.727   6.493  22.011  0.00  0.00    +0.000 HD
BRANCH  23  27
ATOM     27  O   UNL     1       2.240   2.617  17.187  0.00  0.00    +0.000 OA
ATOM     28  H   UNL     1       2.961   2.001  17.395  0.00  0.00    +0.000 HD
ENDBRANCH  23  27
ENDBRANCH  16  17
ENDBRANCH  15  16
ENDBRANCH   3  15
TORSDOF 7
ENDMDL
MODEL 5
REMARK VINA RESULT:      -7.4      2.006      5.529
REMARK  Name = 
REMARK  7 active torsions:
REMARK  status: ('A' for Active; 'I' for Inactive)
REMARK    1  A    between atoms: C_2  and  C_16
REMARK    2  A    between atoms: N_3  and  C_4
REMARK    3  A    between atoms: C_4  and  C_5
REMARK    4  A    between atoms: C_5  and  C_6
REMARK    5  A    between atoms: C_12  and  O_13
REMARK    6  A    between atoms: C_19  and  O_20
REMARK    7  A    between atoms: C_22  and  O_23
REMARK                            x       y       z     vdW  Elec       q    Type
REMARK                         _______ _______ _______ _____ _____    ______ ____
ROOT
ATOM      1  O   UNL     1       5.425   3.531  19.664  0.00  0.00    +0.000 OA
ATOM      2  C   UNL     1       5.394   4.035  18.543  0.00  0.00    +0.000 C 
ATOM      3  N   UNL     1       4.633   3.511  17.524  0.00  0.00    +0.000 N 
ATOM      4  H   UNL     1       4.628   4.000  16.630  0.00  0.00    +0.000 HD
ENDROOT
BRANCH   2   5
ATOM      5  C   UNL     1       6.214   5.250  18.248  0.00  0.00    +0.000 A 
ATOM      6  C   UNL     1       5.918   5.939  17.056  0.00  0.00    +0.000 A 
ATOM      7  C   UNL     1       6.626   7.087  16.695  0.00  0.00    +0.000 A 
ATOM      8  C   UNL     1       7.636   7.550  17.527  0.00  0.00    +0.000 A 
ATOM      9  C   UNL     1       7.948   6.889  18.711  0.00  0.00    +0.000 A 
ATOM     10  C   UNL     1       7.241   5.737  19.071  0.00  0.00    +0.000 A 
BRANCH   8  11
ATOM     11  O   UNL     1       8.356   8.665  17.215  0.00  0.00    +0.000 OA
ATOM     12  H   UNL     1       8.445   9.213  18.013  0.00  0.00    +0.000 HD
ENDBRANCH   8  11
BRANCH  10  13
ATOM     13  O   UNL     1       7.575   5.099  20.238  0.00  0.00    +0.000 OA
ATOM     14  H   UNL     1       7.266   4.177  20.187  0.00  0.00    +0.000 HD
ENDBRANCH  10  13
ENDBRANCH   2   5
BRANCH   3  15
ATOM     15  C   UNL     1       3.845   2.314  17.731  0.00  0.00    +0.000 C 
BRANCH  15  16
ATOM     16  C   UNL     1       2.345   2.583  17.831  0.00  0.00    +0.000 C 
BRANCH  16  17
ATOM     17  C   UNL     1       1.997   3.417  19.027  0.00  0.00    +0.000 A 
ATOM     18  C   UNL     1       1.547   2.946  20.247  0.00  0.00    +0.000 A 
ATOM     19  N   UNL     1       1.329   4.018  21.071  0.00  0.00    +0.000 N 
ATOM     20  C   UNL     1       1.624   5.189  20.416  0.00  0.00    +0.000 A 
ATOM     21  C   UNL     1       1.534   6.517  20.859  0.00  0.00    +0.000 A 
ATOM     22  C   UNL     1       1.907   7.527  19.967  0.00  0.00    +0.000 A 
ATOM     23  C   UNL     1       2.358   7.206  18.692  0.00  0.00    +0.000 A 
ATOM     24  C   UNL     1       2.455   5.881  18.262  0.00  0.00    +0.000 A 
ATOM     25  C   UNL     1       2.064   4.845  19.136  0.00  0.00    +0.000 A 
ATOM     26  H   UNL     1       0.996   3.961  22.023  0.00  0.00    +0.000 HD
BRANCH  23  27
ATOM     27  O   UNL     1       2.722   8.180  17.807  0.00  0.00    +0.000 OA
ATOM     28  H   UNL     1       3.485   8.658  18.169  0.00  0.00    +0.000 HD
ENDBRANCH  23  27
ENDBRANCH  16  17
ENDBRANCH  15  16
ENDBRANCH   3  15
TORSDOF 7
ENDMDL
MODEL 6
REMARK VINA RESULT:      -7.2      3.750      7.205
REMARK  Name = 
REMARK  7 active torsions:
REMARK  status: ('A' for Active; 'I' for Inactive)
REMARK    1  A    between atoms: C_2  and  C_16
REMARK    2  A    between atoms: N_3  and  C_4
REMARK    3  A    between atoms: C_4  and  C_5
REMARK    4  A    between atoms: C_5  and  C_6
REMARK    5  A    between atoms: C_12  and  O_13
REMARK    6  A    between atoms: C_19  and  O_20
REMARK    7  A    between atoms: C_22  and  O_23
REMARK                            x       y       z     vdW  Elec       q    Type
REMARK                         _______ _______ _______ _____ _____    ______ ____
ROOT
ATOM      1  O   UNL     1       7.455   5.972  16.143  0.00  0.00    +0.000 OA
ATOM      2  C   UNL     1       6.445   5.810  15.459  0.00  0.00    +0.000 C 
ATOM      3  N   UNL     1       5.243   6.400  15.774  0.00  0.00    +0.000 N 
ATOM      4  H   UNL     1       4.457   6.250  15.144  0.00  0.00    +0.000 HD
ENDROOT
BRANCH   2   5
ATOM      5  C   UNL     1       6.497   4.935  14.248  0.00  0.00    +0.000 A 
ATOM      6  C   UNL     1       5.457   3.997  14.100  0.00  0.00    +0.000 A 
ATOM      7  C   UNL     1       5.416   3.137  13.000  0.00  0.00    +0.000 A 
ATOM      8  C   UNL     1       6.418   3.214  12.043  0.00  0.00    +0.000 A 
ATOM      9  C   UNL     1       7.456   4.132  12.163  0.00  0.00    +0.000 A 
ATOM     10  C   UNL     1       7.499   4.991  13.267  0.00  0.00    +0.000 A 
BRANCH   8  11
ATOM     11  O   UNL     1       6.421   2.393  10.953  0.00  0.00    +0.000 OA
ATOM     12  H   UNL     1       6.779   2.884  10.194  0.00  0.00    +0.000 HD
ENDBRANCH   8  11
BRANCH  10  13
ATOM     13  O   UNL     1       8.539   5.880  13.367  0.00  0.00    +0.000 OA
ATOM     14  H   UNL     1       9.375   5.388  13.291  0.00  0.00    +0.000 HD
ENDBRANCH  10  13
ENDBRANCH   2   5
BRANCH   3  15
ATOM     15  C   UNL     1       5.114   7.228  16.955  0.00  0.00    +0.000 C 
BRANCH  15  16
ATOM     16  C   UNL     1       4.060   6.725  17.940  0.00  0.00    +0.000 C 
BRANCH  16  17
ATOM     17  C   UNL     1       4.393   5.369  18.482  0.00  0.00    +0.000 A 
ATOM     18  C   UNL     1       5.632   4.951  18.932  0.00  0.00    +0.000 A 
ATOM     19  N   UNL     1       5.531   3.647  19.334  0.00  0.00    +0.000 N 
ATOM     20  C   UNL     1       4.246   3.193  19.155  0.00  0.00    +0.000 A 
ATOM     21  C   UNL     1       3.693   1.929  19.409  0.00  0.00    +0.000 A 
ATOM     22  C   UNL     1       2.335   1.745  19.130  0.00  0.00    +0.000 A 
ATOM     23  C   UNL     1       1.574   2.794  18.625  0.00  0.00    +0.000 A 
ATOM     24  C   UNL     1       2.130   4.051  18.385  0.00  0.00    +0.000 A 
ATOM     25  C   UNL     1       3.502   4.256  18.639  0.00  0.00    +0.000 A 
ATOM     26  H   UNL     1       6.288   3.092  19.706  0.00  0.00    +0.000 HD
BRANCH  23  27
ATOM     27  O   UNL     1       0.248   2.629  18.342  0.00  0.00    +0.000 OA
ATOM     28  H   UNL     1      -0.021   1.742  18.628  0.00  0.00    +0.000 HD
ENDBRANCH  23  27
ENDBRANCH  16  17
ENDBRANCH  15  16
ENDBRANCH   3  15
TORSDOF 7
ENDMDL
MODEL 7
REMARK VINA RESULT:      -7.2      2.186      5.623
REMARK  Name = 
REMARK  7 active torsions:
REMARK  status: ('A' for Active; 'I' for Inactive)
REMARK    1  A    between atoms: C_2  and  C_16
REMARK    2  A    between atoms: N_3  and  C_4
REMARK    3  A    between atoms: C_4  and  C_5
REMARK    4  A    between atoms: C_5  and  C_6
REMARK    5  A    between atoms: C_12  and  O_13
REMARK    6  A    between atoms: C_19  and  O_20
REMARK    7  A    between atoms: C_22  and  O_23
REMARK                            x       y       z     vdW  Elec       q    Type
REMARK                         _______ _______ _______ _____ _____    ______ ____
ROOT
ATOM      1  O   UNL     1       4.892   4.015  15.670  0.00  0.00    +0.000 OA
ATOM      2  C   UNL     1       5.177   4.244  16.844  0.00  0.00    +0.000 C 
ATOM      3  N   UNL     1       4.712   3.463  17.877  0.00  0.00    +0.000 N 
ATOM      4  H   UNL     1       5.017   3.688  18.822  0.00  0.00    +0.000 HD
ENDROOT
BRANCH   2   5
ATOM      5  C   UNL     1       6.045   5.411  17.188  0.00  0.00    +0.000 A 
ATOM      6  C   UNL     1       5.603   6.677  16.757  0.00  0.00    +0.000 A 
ATOM      7  C   UNL     1       6.342   7.829  17.032  0.00  0.00    +0.000 A 
ATOM      8  C   UNL     1       7.530   7.717  17.741  0.00  0.00    +0.000 A 
ATOM      9  C   UNL     1       7.990   6.480  18.180  0.00  0.00    +0.000 A 
ATOM     10  C   UNL     1       7.250   5.326  17.901  0.00  0.00    +0.000 A 
BRANCH   8  11
ATOM     11  O   UNL     1       8.287   8.814  18.031  0.00  0.00    +0.000 OA
ATOM     12  H   UNL     1       7.729   9.607  17.960  0.00  0.00    +0.000 HD
ENDBRANCH   8  11
BRANCH  10  13
ATOM     13  O   UNL     1       7.730   4.117  18.336  0.00  0.00    +0.000 OA
ATOM     14  H   UNL     1       8.688   4.201  18.490  0.00  0.00    +0.000 HD
ENDBRANCH  10  13
ENDBRANCH   2   5
BRANCH   3  15
ATOM     15  C   UNL     1       3.838   2.338  17.617  0.00  0.00    +0.000 C 
BRANCH  15  16
ATOM     16  C   UNL     1       2.355   2.674  17.767  0.00  0.00    +0.000 C 
BRANCH  16  17
ATOM     17  C   UNL     1       2.081   3.503  18.984  0.00  0.00    +0.000 A 
ATOM     18  C   UNL     1       1.744   3.027  20.238  0.00  0.00    +0.000 A 
ATOM     19  N   UNL     1       1.562   4.096  21.073  0.00  0.00    +0.000 N 
ATOM     20  C   UNL     1       1.770   5.272  20.394  0.00  0.00    +0.000 A 
ATOM     21  C   UNL     1       1.678   6.599  20.838  0.00  0.00    +0.000 A 
ATOM     22  C   UNL     1       1.949   7.614  19.916  0.00  0.00    +0.000 A 
ATOM     23  C   UNL     1       2.305   7.299  18.609  0.00  0.00    +0.000 A 
ATOM     24  C   UNL     1       2.405   5.976  18.177  0.00  0.00    +0.000 A 
ATOM     25  C   UNL     1       2.116   4.934  19.083  0.00  0.00    +0.000 A 
ATOM     26  H   UNL     1       1.309   4.035  22.049  0.00  0.00    +0.000 HD
BRANCH  23  27
ATOM     27  O   UNL     1       2.568   8.279  17.695  0.00  0.00    +0.000 OA
ATOM     28  H   UNL     1       1.758   8.794  17.552  0.00  0.00    +0.000 HD
ENDBRANCH  23  27
ENDBRANCH  16  17
ENDBRANCH  15  16
ENDBRANCH   3  15
TORSDOF 7
ENDMDL
MODEL 8
REMARK VINA RESULT:      -7.0      2.825      4.548
REMARK  Name = 
REMARK  7 active torsions:
REMARK  status: ('A' for Active; 'I' for Inactive)
REMARK    1  A    between atoms: C_2  and  C_16
REMARK    2  A    between atoms: N_3  and  C_4
REMARK    3  A    between atoms: C_4  and  C_5
REMARK    4  A    between atoms: C_5  and  C_6
REMARK    5  A    between atoms: C_12  and  O_13
REMARK    6  A    between atoms: C_19  and  O_20
REMARK    7  A    between atoms: C_22  and  O_23
REMARK                            x       y       z     vdW  Elec       q    Type
REMARK                         _______ _______ _______ _____ _____    ______ ____
ROOT
ATOM      1  O   UNL     1       1.851   9.673  17.395  0.00  0.00    +0.000 OA
ATOM      2  C   UNL     1       1.831   9.017  18.435  0.00  0.00    +0.000 C 
ATOM      3  N   UNL     1       2.526   7.837  18.572  0.00  0.00    +0.000 N 
ATOM      4  H   UNL     1       2.492   7.364  19.473  0.00  0.00    +0.000 HD
ENDROOT
BRANCH   2   5
ATOM      5  C   UNL     1       1.019   9.488  19.598  0.00  0.00    +0.000 A 
ATOM      6  C   UNL     1       1.104   8.726  20.780  0.00  0.00    +0.000 A 
ATOM      7  C   UNL     1       0.386   9.086  21.922  0.00  0.00    +0.000 A 
ATOM      8  C   UNL     1      -0.422  10.214  21.884  0.00  0.00    +0.000 A 
ATOM      9  C   UNL     1      -0.524  10.986  20.732  0.00  0.00    +0.000 A 
ATOM     10  C   UNL     1       0.193  10.622  19.587  0.00  0.00    +0.000 A 
BRANCH   8  11
ATOM     11  O   UNL     1      -1.144  10.604  22.974  0.00  0.00    +0.000 OA
ATOM     12  H   UNL     1      -2.087  10.455  22.793  0.00  0.00    +0.000 HD
ENDBRANCH   8  11
BRANCH  10  13
ATOM     13  O   UNL     1       0.067  11.394  18.460  0.00  0.00    +0.000 OA
ATOM     14  H   UNL     1       0.385  12.291  18.662  0.00  0.00    +0.000 HD
ENDBRANCH  10  13
ENDBRANCH   2   5
BRANCH   3  15
ATOM     15  C   UNL     1       3.301   7.305  17.471  0.00  0.00    +0.000 C 
BRANCH  15  16
ATOM     16  C   UNL     1       4.550   6.547  17.917  0.00  0.00    +0.000 C 
BRANCH  16  17
ATOM     17  C   UNL     1       4.417   5.068  17.719  0.00  0.00    +0.000 A 
ATOM     18  C   UNL     1       5.237   4.271  16.943  0.00  0.00    +0.000 A 
ATOM     19  N   UNL     1       4.779   2.982  17.010  0.00  0.00    +0.000 N 
ATOM     20  C   UNL     1       3.667   2.914  17.814  0.00  0.00    +0.000 A 
ATOM     21  C   UNL     1       2.865   1.814  18.151  0.00  0.00    +0.000 A 
ATOM     22  C   UNL     1       1.780   2.038  19.005  0.00  0.00    +0.000 A 
ATOM     23  C   UNL     1       1.526   3.313  19.499  0.00  0.00    +0.000 A 
ATOM     24  C   UNL     1       2.336   4.400  19.166  0.00  0.00    +0.000 A 
ATOM     25  C   UNL     1       3.424   4.204  18.290  0.00  0.00    +0.000 A 
ATOM     26  H   UNL     1       5.193   2.192  16.536  0.00  0.00    +0.000 HD
BRANCH  23  27
ATOM     27  O   UNL     1       0.468   3.549  20.329  0.00  0.00    +0.000 OA
ATOM     28  H   UNL     1       0.478   2.886  21.039  0.00  0.00    +0.000 HD
ENDBRANCH  23  27
ENDBRANCH  16  17
ENDBRANCH  15  16
ENDBRANCH   3  15
TORSDOF 7
ENDMDL
MODEL 9
REMARK VINA RESULT:      -7.0      4.678      6.804
REMARK  Name = 
REMARK  7 active torsions:
REMARK  status: ('A' for Active; 'I' for Inactive)
REMARK    1  A    between atoms: C_2  and  C_16
REMARK    2  A    between atoms: N_3  and  C_4
REMARK    3  A    between atoms: C_4  and  C_5
REMARK    4  A    between atoms: C_5  and  C_6
REMARK    5  A    between atoms: C_12  and  O_13
REMARK    6  A    between atoms: C_19  and  O_20
REMARK    7  A    between atoms: C_22  and  O_23
REMARK                            x       y       z     vdW  Elec       q    Type
REMARK                         _______ _______ _______ _____ _____    ______ ____
ROOT
ATOM      1  O   UNL     1       7.842   5.430  17.641  0.00  0.00    +0.000 OA
ATOM      2  C   UNL     1       6.844   6.146  17.707  0.00  0.00    +0.000 C 
ATOM      3  N   UNL     1       6.929   7.508  17.887  0.00  0.00    +0.000 N 
ATOM      4  H   UNL     1       6.063   8.044  17.897  0.00  0.00    +0.000 HD
ENDROOT
BRANCH   2   5
ATOM      5  C   UNL     1       5.482   5.540  17.604  0.00  0.00    +0.000 A 
ATOM      6  C   UNL     1       4.423   6.257  18.194  0.00  0.00    +0.000 A 
ATOM      7  C   UNL     1       3.114   5.774  18.148  0.00  0.00    +0.000 A 
ATOM      8  C   UNL     1       2.860   4.568  17.511  0.00  0.00    +0.000 A 
ATOM      9  C   UNL     1       3.886   3.838  16.919  0.00  0.00    +0.000 A 
ATOM     10  C   UNL     1       5.198   4.321  16.968  0.00  0.00    +0.000 A 
BRANCH   8  11
ATOM     11  O   UNL     1       1.597   4.055  17.443  0.00  0.00    +0.000 OA
ATOM     12  H   UNL     1       0.961   4.770  17.609  0.00  0.00    +0.000 HD
ENDBRANCH   8  11
BRANCH  10  13
ATOM     13  O   UNL     1       6.193   3.578  16.386  0.00  0.00    +0.000 OA
ATOM     14  H   UNL     1       6.262   3.832  15.449  0.00  0.00    +0.000 HD
ENDBRANCH  10  13
ENDBRANCH   2   5
BRANCH   3  15
ATOM     15  C   UNL     1       8.216   8.155  18.031  0.00  0.00    +0.000 C 
BRANCH  15  16
ATOM     16  C   UNL     1       8.173   9.660  17.776  0.00  0.00    +0.000 C 
BRANCH  16  17
ATOM     17  C   UNL     1       9.044  10.422  18.728  0.00  0.00    +0.000 A 
ATOM     18  C   UNL     1       9.182  10.177  20.082  0.00  0.00    +0.000 A 
ATOM     19  N   UNL     1      10.055  11.095  20.602  0.00  0.00    +0.000 N 
ATOM     20  C   UNL     1      10.495  11.945  19.615  0.00  0.00    +0.000 A 
ATOM     21  C   UNL     1      11.373  13.035  19.690  0.00  0.00    +0.000 A 
ATOM     22  C   UNL     1      11.648  13.732  18.509  0.00  0.00    +0.000 A 
ATOM     23  C   UNL     1      11.067  13.336  17.309  0.00  0.00    +0.000 A 
ATOM     24  C   UNL     1      10.202  12.243  17.241  0.00  0.00    +0.000 A 
ATOM     25  C   UNL     1       9.892  11.537  18.423  0.00  0.00    +0.000 A 
ATOM     26  H   UNL     1      10.337  11.147  21.570  0.00  0.00    +0.000 HD
BRANCH  23  27
ATOM     27  O   UNL     1      11.320  14.009  16.149  0.00  0.00    +0.000 OA
ATOM     28  H   UNL     1      12.092  14.582  16.285  0.00  0.00    +0.000 HD
ENDBRANCH  23  27
ENDBRANCH  16  17
ENDBRANCH  15  16
ENDBRANCH   3  15
TORSDOF 7
ENDMDL
