MODEL 1
REMARK VINA RESULT:      -6.9      0.000      0.000
REMARK  Name = 
REMARK  4 active torsions:
REMARK  status: ('A' for Active; 'I' for Inactive)
REMARK    1  A    between atoms: C_1  and  C_2
REMARK    2  A    between atoms: C_2  and  C_3
REMARK    3  A    between atoms: C_2  and  C_4
REMARK    4  A    between atoms: C_4  and  N_5
REMARK                            x       y       z     vdW  Elec       q    Type
REMARK                         _______ _______ _______ _____ _____    ______ ____
ROOT
ATOM      1  N   UNL     1       4.200   5.435  17.304  0.00  0.00    +0.000 N 
ATOM      2  C   UNL     1       4.381   6.748  16.953  0.00  0.00    +0.000 A 
ATOM      3  N   UNL     1       3.683   7.557  17.714  0.00  0.00    +0.000 NA
ATOM      4  C   UNL     1       3.028   6.733  18.609  0.00  0.00    +0.000 A 
ATOM      5  C   UNL     1       2.155   7.072  19.665  0.00  0.00    +0.000 A 
ATOM      6  N   UNL     1       1.800   8.391  19.921  0.00  0.00    +0.000 N 
ATOM      7  N   UNL     1       1.666   6.092  20.467  0.00  0.00    +0.000 NA
ATOM      8  C   UNL     1       1.941   4.796  20.191  0.00  0.00    +0.000 A 
ATOM      9  C   UNL     1       1.448   3.757  20.970  0.00  0.00    +0.000 A 
ATOM     10  C   UNL     1       1.704   2.418  20.645  0.00  0.00    +0.000 A 
ATOM     11  C   UNL     1       2.462   2.140  19.520  0.00  0.00    +0.000 A 
ATOM     12  N   UNL     1       2.992   3.097  18.736  0.00  0.00    +0.000 NA
ATOM     13  C   UNL     1       2.734   4.378  19.108  0.00  0.00    +0.000 A 
ATOM     14  C   UNL     1       3.321   5.396  18.359  0.00  0.00    +0.000 A 
ATOM     15  H   UNL     1       2.422   9.053  19.466  0.00  0.00    +0.000 HD
ATOM     16  H   UNL     1       1.586   8.544  20.896  0.00  0.00    +0.000 HD
ENDROOT
BRANCH   1  17
ATOM     17  C   UNL     1       4.695   4.297  16.540  0.00  0.00    +0.000 C 
BRANCH  17  19
ATOM     18  C   UNL     1       7.190   4.519  16.652  0.00  0.00    +0.000 C 
ATOM     19  C   UNL     1       5.947   4.711  15.770  0.00  0.00    +0.000 C 
ATOM     20  C   UNL     1       6.084   4.017  14.416  0.00  0.00    +0.000 C 
ENDBRANCH  17  19
ENDBRANCH   1  17
TORSDOF 2
ENDMDL
MODEL 2
REMARK VINA RESULT:      -6.9      1.366      3.623
REMARK  Name = 
REMARK  4 active torsions:
REMARK  status: ('A' for Active; 'I' for Inactive)
REMARK    1  A    between atoms: C_1  and  C_2
REMARK    2  A    between atoms: C_2  and  C_3
REMARK    3  A    between atoms: C_2  and  C_4
REMARK    4  A    between atoms: C_4  and  N_5
REMARK                            x       y       z     vdW  Elec       q    Type
REMARK                         _______ _______ _______ _____ _____    ______ ____
ROOT
ATOM      1  N   UNL     1       3.579   3.477  17.639  0.00  0.00    +0.000 N 
ATOM      2  C   UNL     1       3.707   2.165  18.012  0.00  0.00    +0.000 A 
ATOM      3  N   UNL     1       3.303   1.967  19.245  0.00  0.00    +0.000 NA
ATOM      4  C   UNL     1       2.884   3.206  19.689  0.00  0.00    +0.000 A 
ATOM      5  C   UNL     1       2.338   3.571  20.939  0.00  0.00    +0.000 A 
ATOM      6  N   UNL     1       2.182   2.647  21.964  0.00  0.00    +0.000 N 
ATOM      7  N   UNL     1       1.933   4.852  21.141  0.00  0.00    +0.000 NA
ATOM      8  C   UNL     1       2.144   5.784  20.182  0.00  0.00    +0.000 A 
ATOM      9  C   UNL     1       1.765   7.110  20.349  0.00  0.00    +0.000 A 
ATOM     10  C   UNL     1       2.030   8.073  19.366  0.00  0.00    +0.000 A 
ATOM     11  C   UNL     1       2.686   7.681  18.212  0.00  0.00    +0.000 A 
ATOM     12  N   UNL     1       3.057   6.409  17.972  0.00  0.00    +0.000 NA
ATOM     13  C   UNL     1       2.756   5.511  18.946  0.00  0.00    +0.000 A 
ATOM     14  C   UNL     1       3.065   4.174  18.707  0.00  0.00    +0.000 A 
ATOM     15  H   UNL     1       2.242   1.689  21.631  0.00  0.00    +0.000 HD
ATOM     16  H   UNL     1       1.412   2.883  22.574  0.00  0.00    +0.000 HD
ENDROOT
BRANCH   1  17
ATOM     17  C   UNL     1       4.104   4.043  16.402  0.00  0.00    +0.000 C 
BRANCH  17  19
ATOM     18  C   UNL     1       6.103   3.929  14.893  0.00  0.00    +0.000 C 
ATOM     19  C   UNL     1       5.614   3.819  16.345  0.00  0.00    +0.000 C 
ATOM     20  C   UNL     1       6.398   4.725  17.292  0.00  0.00    +0.000 C 
ENDBRANCH  17  19
ENDBRANCH   1  17
TORSDOF 2
ENDMDL
MODEL 3
REMARK VINA RESULT:      -6.8      1.888      4.218
REMARK  Name = 
REMARK  4 active torsions:
REMARK  status: ('A' for Active; 'I' for Inactive)
REMARK    1  A    between atoms: C_1  and  C_2
REMARK    2  A    between atoms: C_2  and  C_3
REMARK    3  A    between atoms: C_2  and  C_4
REMARK    4  A    between atoms: C_4  and  N_5
REMARK                            x       y       z     vdW  Elec       q    Type
REMARK                         _______ _______ _______ _____ _____    ______ ____
ROOT
ATOM      1  N   UNL     1       3.160   6.674  17.879  0.00  0.00    +0.000 N 
ATOM      2  C   UNL     1       4.231   7.204  17.207  0.00  0.00    +0.000 A 
ATOM      3  N   UNL     1       5.320   6.493  17.387  0.00  0.00    +0.000 NA
ATOM      4  C   UNL     1       4.935   5.447  18.204  0.00  0.00    +0.000 A 
ATOM      5  C   UNL     1       5.701   4.371  18.700  0.00  0.00    +0.000 A 
ATOM      6  N   UNL     1       7.059   4.255  18.425  0.00  0.00    +0.000 N 
ATOM      7  N   UNL     1       5.097   3.410  19.446  0.00  0.00    +0.000 NA
ATOM      8  C   UNL     1       3.794   3.542  19.787  0.00  0.00    +0.000 A 
ATOM      9  C   UNL     1       3.137   2.598  20.564  0.00  0.00    +0.000 A 
ATOM     10  C   UNL     1       1.800   2.771  20.946  0.00  0.00    +0.000 A 
ATOM     11  C   UNL     1       1.134   3.913  20.536  0.00  0.00    +0.000 A 
ATOM     12  N   UNL     1       1.700   4.855  19.760  0.00  0.00    +0.000 NA
ATOM     13  C   UNL     1       2.990   4.629  19.398  0.00  0.00    +0.000 A 
ATOM     14  C   UNL     1       3.590   5.549  18.542  0.00  0.00    +0.000 A 
ATOM     15  H   UNL     1       7.346   4.843  17.649  0.00  0.00    +0.000 HD
ATOM     16  H   UNL     1       7.364   3.292  18.421  0.00  0.00    +0.000 HD
ENDROOT
BRANCH   1  17
ATOM     17  C   UNL     1       1.865   7.327  18.020  0.00  0.00    +0.000 C 
BRANCH  17  19
ATOM     18  C   UNL     1       1.389   9.785  18.156  0.00  0.00    +0.000 C 
ATOM     19  C   UNL     1       2.024   8.584  18.873  0.00  0.00    +0.000 C 
ATOM     20  C   UNL     1       1.504   8.419  20.300  0.00  0.00    +0.000 C 
ENDBRANCH  17  19
ENDBRANCH   1  17
TORSDOF 2
ENDMDL
MODEL 4
REMARK VINA RESULT:      -6.8      2.241      5.420
REMARK  Name = 
REMARK  4 active torsions:
REMARK  status: ('A' for Active; 'I' for Inactive)
REMARK    1  A    between atoms: C_1  and  C_2
REMARK    2  A    between atoms: C_2  and  C_3
REMARK    3  A    between atoms: C_2  and  C_4
REMARK    4  A    between atoms: C_4  and  N_5
REMARK                            x       y       z     vdW  Elec       q    Type
REMARK                         _______ _______ _______ _____ _____    ______ ____
ROOT
ATOM      1  N   UNL     1       3.978   4.653  18.216  0.00  0.00    +0.000 N 
ATOM      2  C   UNL     1       4.118   5.052  19.520  0.00  0.00    +0.000 A 
ATOM      3  N   UNL     1       5.315   5.534  19.756  0.00  0.00    +0.000 NA
ATOM      4  C   UNL     1       5.979   5.455  18.547  0.00  0.00    +0.000 A 
ATOM      5  C   UNL     1       7.294   5.852  18.220  0.00  0.00    +0.000 A 
ATOM      6  N   UNL     1       8.154   6.381  19.176  0.00  0.00    +0.000 N 
ATOM      7  N   UNL     1       7.726   5.737  16.938  0.00  0.00    +0.000 NA
ATOM      8  C   UNL     1       6.932   5.157  16.009  0.00  0.00    +0.000 A 
ATOM      9  C   UNL     1       7.336   4.999  14.690  0.00  0.00    +0.000 A 
ATOM     10  C   UNL     1       6.519   4.356  13.749  0.00  0.00    +0.000 A 
ATOM     11  C   UNL     1       5.289   3.870  14.159  0.00  0.00    +0.000 A 
ATOM     12  N   UNL     1       4.823   4.013  15.413  0.00  0.00    +0.000 NA
ATOM     13  C   UNL     1       5.643   4.663  16.280  0.00  0.00    +0.000 A 
ATOM     14  C   UNL     1       5.168   4.887  17.570  0.00  0.00    +0.000 A 
ATOM     15  H   UNL     1       7.662   6.685  20.010  0.00  0.00    +0.000 HD
ATOM     16  H   UNL     1       8.827   7.017  18.770  0.00  0.00    +0.000 HD
ENDROOT
BRANCH   1  17
ATOM     17  C   UNL     1       2.834   3.917  17.693  0.00  0.00    +0.000 C 
BRANCH  17  19
ATOM     18  C   UNL     1       1.020   2.431  18.582  0.00  0.00    +0.000 C 
ATOM     19  C   UNL     1       2.524   2.740  18.616  0.00  0.00    +0.000 C 
ATOM     20  C   UNL     1       3.377   1.505  18.333  0.00  0.00    +0.000 C 
ENDBRANCH  17  19
ENDBRANCH   1  17
TORSDOF 2
ENDMDL
MODEL 5
REMARK VINA RESULT:      -6.7      2.522      5.534
REMARK  Name = 
REMARK  4 active torsions:
REMARK  status: ('A' for Active; 'I' for Inactive)
REMARK    1  A    between atoms: C_1  and  C_2
REMARK    2  A    between atoms: C_2  and  C_3
REMARK    3  A    between atoms: C_2  and  C_4
REMARK    4  A    between atoms: C_4  and  N_5
REMARK                            x       y       z     vdW  Elec       q    Type
REMARK                         _______ _______ _______ _____ _____    ______ ____
ROOT
ATOM      1  N   UNL     1       4.161   3.608  18.242  0.00  0.00    +0.000 N 
ATOM      2  C   UNL     1       4.256   3.714  19.606  0.00  0.00    +0.000 A 
ATOM      3  N   UNL     1       5.373   4.297  19.973  0.00  0.00    +0.000 NA
ATOM      4  C   UNL     1       6.028   4.593  18.793  0.00  0.00    +0.000 A 
ATOM      5  C   UNL     1       7.268   5.239  18.596  0.00  0.00    +0.000 A 
ATOM      6  N   UNL     1       8.052   5.653  19.665  0.00  0.00    +0.000 N 
ATOM      7  N   UNL     1       7.698   5.484  17.331  0.00  0.00    +0.000 NA
ATOM      8  C   UNL     1       6.986   5.023  16.276  0.00  0.00    +0.000 A 
ATOM      9  C   UNL     1       7.395   5.231  14.966  0.00  0.00    +0.000 A 
ATOM     10  C   UNL     1       6.670   4.709  13.885  0.00  0.00    +0.000 A 
ATOM     11  C   UNL     1       5.528   3.972  14.145  0.00  0.00    +0.000 A 
ATOM     12  N   UNL     1       5.060   3.754  15.388  0.00  0.00    +0.000 NA
ATOM     13  C   UNL     1       5.786   4.301  16.398  0.00  0.00    +0.000 A 
ATOM     14  C   UNL     1       5.297   4.153  17.694  0.00  0.00    +0.000 A 
ATOM     15  H   UNL     1       7.530   5.685  20.536  0.00  0.00    +0.000 HD
ATOM     16  H   UNL     1       8.621   6.455  19.431  0.00  0.00    +0.000 HD
ENDROOT
BRANCH   1  17
ATOM     17  C   UNL     1       3.130   2.855  17.539  0.00  0.00    +0.000 C 
BRANCH  17  19
ATOM     18  C   UNL     1       0.965   2.885  18.803  0.00  0.00    +0.000 C 
ATOM     19  C   UNL     1       1.787   3.565  17.698  0.00  0.00    +0.000 C 
ATOM     20  C   UNL     1       1.920   5.071  17.916  0.00  0.00    +0.000 C 
ENDBRANCH  17  19
ENDBRANCH   1  17
TORSDOF 2
ENDMDL
MODEL 6
REMARK VINA RESULT:      -6.6      2.177      5.332
REMARK  Name = 
REMARK  4 active torsions:
REMARK  status: ('A' for Active; 'I' for Inactive)
REMARK    1  A    between atoms: C_1  and  C_2
REMARK    2  A    between atoms: C_2  and  C_3
REMARK    3  A    between atoms: C_2  and  C_4
REMARK    4  A    between atoms: C_4  and  N_5
REMARK                            x       y       z     vdW  Elec       q    Type
REMARK                         _______ _______ _______ _____ _____    ______ ____
ROOT
ATOM      1  N   UNL     1       3.666   4.465  18.158  0.00  0.00    +0.000 N 
ATOM      2  C   UNL     1       3.670   4.654  19.516  0.00  0.00    +0.000 A 
ATOM      3  N   UNL     1       4.865   4.960  19.962  0.00  0.00    +0.000 NA
ATOM      4  C   UNL     1       5.673   4.982  18.841  0.00  0.00    +0.000 A 
ATOM      5  C   UNL     1       7.050   5.272  18.736  0.00  0.00    +0.000 A 
ATOM      6  N   UNL     1       7.822   5.558  19.855  0.00  0.00    +0.000 N 
ATOM      7  N   UNL     1       7.635   5.295  17.511  0.00  0.00    +0.000 NA
ATOM      8  C   UNL     1       6.919   4.948  16.416  0.00  0.00    +0.000 A 
ATOM      9  C   UNL     1       7.477   4.937  15.144  0.00  0.00    +0.000 A 
ATOM     10  C   UNL     1       6.736   4.532  14.026  0.00  0.00    +0.000 A 
ATOM     11  C   UNL     1       5.423   4.133  14.209  0.00  0.00    +0.000 A 
ATOM     12  N   UNL     1       4.811   4.145  15.407  0.00  0.00    +0.000 NA
ATOM     13  C   UNL     1       5.566   4.568  16.454  0.00  0.00    +0.000 A 
ATOM     14  C   UNL     1       4.948   4.655  17.700  0.00  0.00    +0.000 A 
ATOM     15  H   UNL     1       7.255   5.792  20.664  0.00  0.00    +0.000 HD
ATOM     16  H   UNL     1       8.599   6.166  19.636  0.00  0.00    +0.000 HD
ENDROOT
BRANCH   1  17
ATOM     17  C   UNL     1       2.538   3.945  17.396  0.00  0.00    +0.000 C 
BRANCH  17  19
ATOM     18  C   UNL     1       3.559   1.771  18.117  0.00  0.00    +0.000 C 
ATOM     19  C   UNL     1       2.243   2.514  17.843  0.00  0.00    +0.000 C 
ATOM     20  C   UNL     1       1.274   2.434  19.022  0.00  0.00    +0.000 C 
ENDBRANCH  17  19
ENDBRANCH   1  17
TORSDOF 2
ENDMDL
MODEL 7
REMARK VINA RESULT:      -6.6      0.950      1.031
REMARK  Name = 
REMARK  4 active torsions:
REMARK  status: ('A' for Active; 'I' for Inactive)
REMARK    1  A    between atoms: C_1  and  C_2
REMARK    2  A    between atoms: C_2  and  C_3
REMARK    3  A    between atoms: C_2  and  C_4
REMARK    4  A    between atoms: C_4  and  N_5
REMARK                            x       y       z     vdW  Elec       q    Type
REMARK                         _______ _______ _______ _____ _____    ______ ____
ROOT
ATOM      1  N   UNL     1       4.726   5.199  16.753  0.00  0.00    +0.000 N 
ATOM      2  C   UNL     1       4.968   6.529  16.527  0.00  0.00    +0.000 A 
ATOM      3  N   UNL     1       4.208   7.297  17.272  0.00  0.00    +0.000 NA
ATOM      4  C   UNL     1       3.445   6.425  18.025  0.00  0.00    +0.000 A 
ATOM      5  C   UNL     1       2.471   6.707  19.007  0.00  0.00    +0.000 A 
ATOM      6  N   UNL     1       2.115   8.012  19.326  0.00  0.00    +0.000 N 
ATOM      7  N   UNL     1       1.881   5.682  19.674  0.00  0.00    +0.000 NA
ATOM      8  C   UNL     1       2.159   4.404  19.328  0.00  0.00    +0.000 A 
ATOM      9  C   UNL     1       1.567   3.323  19.967  0.00  0.00    +0.000 A 
ATOM     10  C   UNL     1       1.831   2.005  19.567  0.00  0.00    +0.000 A 
ATOM     11  C   UNL     1       2.699   1.793  18.510  0.00  0.00    +0.000 A 
ATOM     12  N   UNL     1       3.328   2.792  17.864  0.00  0.00    +0.000 NA
ATOM     13  C   UNL     1       3.056   4.048  18.305  0.00  0.00    +0.000 A 
ATOM     14  C   UNL     1       3.738   5.104  17.704  0.00  0.00    +0.000 A 
ATOM     15  H   UNL     1       2.794   8.689  18.992  0.00  0.00    +0.000 HD
ATOM     16  H   UNL     1       1.801   8.096  20.283  0.00  0.00    +0.000 HD
ENDROOT
BRANCH   1  17
ATOM     17  C   UNL     1       5.278   4.109  15.959  0.00  0.00    +0.000 C 
BRANCH  17  19
ATOM     18  C   UNL     1       7.331   4.818  14.706  0.00  0.00    +0.000 C 
ATOM     19  C   UNL     1       5.804   4.663  14.637  0.00  0.00    +0.000 C 
ATOM     20  C   UNL     1       5.357   3.855  13.420  0.00  0.00    +0.000 C 
ENDBRANCH  17  19
ENDBRANCH   1  17
TORSDOF 2
ENDMDL
MODEL 8
REMARK VINA RESULT:      -6.5      1.767      3.802
REMARK  Name = 
REMARK  4 active torsions:
REMARK  status: ('A' for Active; 'I' for Inactive)
REMARK    1  A    between atoms: C_1  and  C_2
REMARK    2  A    between atoms: C_2  and  C_3
REMARK    3  A    between atoms: C_2  and  C_4
REMARK    4  A    between atoms: C_4  and  N_5
REMARK                            x       y       z     vdW  Elec       q    Type
REMARK                         _______ _______ _______ _____ _____    ______ ____
ROOT
ATOM      1  N   UNL     1       5.312   5.305  17.100  0.00  0.00    +0.000 N 
ATOM      2  C   UNL     1       5.974   4.342  16.385  0.00  0.00    +0.000 A 
ATOM      3  N   UNL     1       5.518   3.140  16.647  0.00  0.00    +0.000 NA
ATOM      4  C   UNL     1       4.504   3.333  17.566  0.00  0.00    +0.000 A 
ATOM      5  C   UNL     1       3.658   2.383  18.178  0.00  0.00    +0.000 A 
ATOM      6  N   UNL     1       3.789   1.022  17.928  0.00  0.00    +0.000 N 
ATOM      7  N   UNL     1       2.677   2.806  19.016  0.00  0.00    +0.000 NA
ATOM      8  C   UNL     1       2.580   4.118  19.331  0.00  0.00    +0.000 A 
ATOM      9  C   UNL     1       1.606   4.597  20.198  0.00  0.00    +0.000 A 
ATOM     10  C   UNL     1       1.546   5.953  20.549  0.00  0.00    +0.000 A 
ATOM     11  C   UNL     1       2.484   6.820  20.017  0.00  0.00    +0.000 A 
ATOM     12  N   UNL     1       3.438   6.429  19.151  0.00  0.00    +0.000 NA
ATOM     13  C   UNL     1       3.438   5.110  18.825  0.00  0.00    +0.000 A 
ATOM     14  C   UNL     1       4.369   4.681  17.881  0.00  0.00    +0.000 A 
ATOM     15  H   UNL     1       4.341   0.835  17.096  0.00  0.00    +0.000 HD
ATOM     16  H   UNL     1       2.911   0.532  18.027  0.00  0.00    +0.000 HD
ENDROOT
BRANCH   1  17
ATOM     17  C   UNL     1       5.703   6.708  17.163  0.00  0.00    +0.000 C 
BRANCH  17  19
ATOM     18  C   UNL     1       7.628   8.275  17.518  0.00  0.00    +0.000 C 
ATOM     19  C   UNL     1       7.190   6.803  17.503  0.00  0.00    +0.000 C 
ATOM     20  C   UNL     1       7.565   6.071  18.790  0.00  0.00    +0.000 C 
ENDBRANCH  17  19
ENDBRANCH   1  17
TORSDOF 2
ENDMDL
MODEL 9
REMARK VINA RESULT:      -6.4      1.410      5.294
REMARK  Name = 
REMARK  4 active torsions:
REMARK  status: ('A' for Active; 'I' for Inactive)
REMARK    1  A    between atoms: C_1  and  C_2
REMARK    2  A    between atoms: C_2  and  C_3
REMARK    3  A    between atoms: C_2  and  C_4
REMARK    4  A    between atoms: C_4  and  N_5
REMARK                            x       y       z     vdW  Elec       q    Type
REMARK                         _______ _______ _______ _____ _____    ______ ____
ROOT
ATOM      1  N   UNL     1       2.329   6.117  19.730  0.00  0.00    +0.000 N 
ATOM      2  C   UNL     1       1.404   5.489  20.523  0.00  0.00    +0.000 A 
ATOM      3  N   UNL     1       1.230   4.237  20.171  0.00  0.00    +0.000 NA
ATOM      4  C   UNL     1       2.091   4.040  19.108  0.00  0.00    +0.000 A 
ATOM      5  C   UNL     1       2.328   2.871  18.353  0.00  0.00    +0.000 A 
ATOM      6  N   UNL     1       1.632   1.693  18.597  0.00  0.00    +0.000 N 
ATOM      7  N   UNL     1       3.275   2.886  17.380  0.00  0.00    +0.000 NA
ATOM      8  C   UNL     1       3.911   4.041  17.077  0.00  0.00    +0.000 A 
ATOM      9  C   UNL     1       4.872   4.112  16.078  0.00  0.00    +0.000 A 
ATOM     10  C   UNL     1       5.490   5.326  15.746  0.00  0.00    +0.000 A 
ATOM     11  C   UNL     1       5.123   6.469  16.435  0.00  0.00    +0.000 A 
ATOM     12  N   UNL     1       4.220   6.468  17.432  0.00  0.00    +0.000 NA
ATOM     13  C   UNL     1       3.668   5.263  17.730  0.00  0.00    +0.000 A 
ATOM     14  C   UNL     1       2.777   5.210  18.800  0.00  0.00    +0.000 A 
ATOM     15  H   UNL     1       1.170   1.698  19.501  0.00  0.00    +0.000 HD
ATOM     16  H   UNL     1       2.173   0.875  18.352  0.00  0.00    +0.000 HD
ENDROOT
BRANCH   1  17
ATOM     17  C   UNL     1       2.608   7.547  19.755  0.00  0.00    +0.000 C 
BRANCH  17  19
ATOM     18  C   UNL     1       0.839   9.269  20.197  0.00  0.00    +0.000 C 
ATOM     19  C   UNL     1       1.424   8.304  19.156  0.00  0.00    +0.000 C 
ATOM     20  C   UNL     1       1.755   9.002  17.838  0.00  0.00    +0.000 C 
ENDBRANCH  17  19
ENDBRANCH   1  17
TORSDOF 2
ENDMDL
