MODEL 1
REMARK VINA RESULT:      -8.7      0.000      0.000
REMARK  Name = 
REMARK  4 active torsions:
REMARK  status: ('A' for Active; 'I' for Inactive)
REMARK    1  A    between atoms: C_2  and  C_27
REMARK    2  A    between atoms: N_3  and  C_4
REMARK    3  A    between atoms: C_7  and  N_8
REMARK    4  A    between atoms: N_18  and  C_19
REMARK                            x       y       z     vdW  Elec       q    Type
REMARK                         _______ _______ _______ _____ _____    ______ ____
ROOT
ATOM      1  C   UNL     1       0.865  10.993  19.796  0.00  0.00    +0.000 C 
ATOM      2  C   UNL     1       0.947   9.843  20.810  0.00  0.00    +0.000 C 
ATOM      3  C   UNL     1       0.434   8.514  20.235  0.00  0.00    +0.000 C 
ATOM      4  C   UNL     1       1.179   8.080  18.953  0.00  0.00    +0.000 C 
ATOM      5  C   UNL     1       1.049   9.244  17.934  0.00  0.00    +0.000 C 
ATOM      6  C   UNL     1       1.489  10.620  18.450  0.00  0.00    +0.000 C 
ENDROOT
BRANCH   4   7
ATOM      7  N   UNL     1       2.556   7.648  19.286  0.00  0.00    +0.000 NA
ATOM      8  C   UNL     1       2.600   6.543  20.262  0.00  0.00    +0.000 C 
ATOM      9  C   UNL     1       2.234   5.154  19.725  0.00  0.00    +0.000 C 
ATOM     10  C   UNL     1       2.850   4.803  18.362  0.00  0.00    +0.000 C 
ATOM     11  C   UNL     1       3.020   6.012  17.429  0.00  0.00    +0.000 C 
ATOM     12  C   UNL     1       3.413   7.301  18.146  0.00  0.00    +0.000 C 
ATOM     13  C   UNL     1       1.860   3.855  17.645  0.00  0.00    +0.000 C 
ATOM     14  O   UNL     1       0.703   4.081  17.329  0.00  0.00    +0.000 OA
ATOM     15  N   UNL     1       2.503   2.671  17.400  0.00  0.00    +0.000 N 
ATOM     16  C   UNL     1       3.769   2.563  18.034  0.00  0.00    +0.000 C 
ATOM     17  N   UNL     1       4.060   3.907  18.515  0.00  0.00    +0.000 N 
ATOM     18  H   UNL     1       2.004   1.894  16.991  0.00  0.00    +0.000 HD
BRANCH  17  19
ATOM     19  C   UNL     1       5.337   4.431  18.369  0.00  0.00    +0.000 A 
ATOM     20  C   UNL     1       6.045   4.433  17.159  0.00  0.00    +0.000 A 
ATOM     21  C   UNL     1       7.263   5.114  17.027  0.00  0.00    +0.000 A 
ATOM     22  C   UNL     1       7.791   5.822  18.102  0.00  0.00    +0.000 A 
ATOM     23  C   UNL     1       7.141   5.783  19.326  0.00  0.00    +0.000 A 
ATOM     24  C   UNL     1       5.954   5.056  19.458  0.00  0.00    +0.000 A 
ENDBRANCH  17  19
ENDBRANCH   4   7
BRANCH   1  27
ATOM     25  O   UNL     1      -0.540  13.524  20.385  0.00  0.00    +0.000 OA
ATOM     26  C   UNL     1      -1.124  12.536  19.961  0.00  0.00    +0.000 C 
ATOM     27  N   UNL     1      -0.532  11.345  19.636  0.00  0.00    +0.000 N 
ATOM     28  H   UNL     1      -1.083  10.742  19.044  0.00  0.00    +0.000 HD
BRANCH  26  29
ATOM     29  C   UNL     1      -2.541  12.481  19.678  0.00  0.00    +0.000 A 
ATOM     30  C   UNL     1      -3.597  12.809  20.515  0.00  0.00    +0.000 A 
ATOM     31  C   UNL     1      -4.801  12.425  19.890  0.00  0.00    +0.000 A 
ATOM     32  C   UNL     1      -6.150  12.442  20.291  0.00  0.00    +0.000 A 
ATOM     33  C   UNL     1      -7.117  11.918  19.442  0.00  0.00    +0.000 A 
ATOM     34  C   UNL     1      -6.756  11.391  18.203  0.00  0.00    +0.000 A 
ATOM     35  C   UNL     1      -5.424  11.383  17.771  0.00  0.00    +0.000 A 
ATOM     36  C   UNL     1      -4.463  11.913  18.637  0.00  0.00    +0.000 A 
ATOM     37  N   UNL     1      -3.096  12.048  18.497  0.00  0.00    +0.000 N 
ATOM     38  H   UNL     1      -2.561  11.774  17.685  0.00  0.00    +0.000 HD
ENDBRANCH  26  29
ENDBRANCH   1  27
TORSDOF 4
ENDMDL
MODEL 2
REMARK VINA RESULT:      -8.4      3.099     10.796
REMARK  Name = 
REMARK  4 active torsions:
REMARK  status: ('A' for Active; 'I' for Inactive)
REMARK    1  A    between atoms: C_2  and  C_27
REMARK    2  A    between atoms: N_3  and  C_4
REMARK    3  A    between atoms: C_7  and  N_8
REMARK    4  A    between atoms: N_18  and  C_19
REMARK                            x       y       z     vdW  Elec       q    Type
REMARK                         _______ _______ _______ _____ _____    ______ ____
ROOT
ATOM      1  C   UNL     1       1.192  10.434  18.676  0.00  0.00    +0.000 C 
ATOM      2  C   UNL     1      -0.274  10.540  18.230  0.00  0.00    +0.000 C 
ATOM      3  C   UNL     1      -1.259  10.273  19.379  0.00  0.00    +0.000 C 
ATOM      4  C   UNL     1      -1.053  11.216  20.586  0.00  0.00    +0.000 C 
ATOM      5  C   UNL     1       0.424  11.061  21.037  0.00  0.00    +0.000 C 
ATOM      6  C   UNL     1       1.472  11.256  19.935  0.00  0.00    +0.000 C 
ENDROOT
BRANCH   4   7
ATOM      7  N   UNL     1      -1.495  12.587  20.243  0.00  0.00    +0.000 NA
ATOM      8  C   UNL     1      -2.946  12.685  19.991  0.00  0.00    +0.000 C 
ATOM      9  C   UNL     1      -3.849  12.642  21.229  0.00  0.00    +0.000 C 
ATOM     10  C   UNL     1      -3.366  13.492  22.415  0.00  0.00    +0.000 C 
ATOM     11  C   UNL     1      -1.836  13.579  22.532  0.00  0.00    +0.000 C 
ATOM     12  C   UNL     1      -1.111  13.640  21.190  0.00  0.00    +0.000 C 
ATOM     13  C   UNL     1      -3.848  12.790  23.705  0.00  0.00    +0.000 C 
ATOM     14  O   UNL     1      -3.572  11.666  24.094  0.00  0.00    +0.000 OA
ATOM     15  N   UNL     1      -4.664  13.655  24.384  0.00  0.00    +0.000 N 
ATOM     16  C   UNL     1      -5.005  14.821  23.648  0.00  0.00    +0.000 C 
ATOM     17  N   UNL     1      -4.114  14.806  22.495  0.00  0.00    +0.000 N 
ATOM     18  H   UNL     1      -5.133  13.359  25.228  0.00  0.00    +0.000 HD
BRANCH  17  19
ATOM     19  C   UNL     1      -3.503  15.981  22.079  0.00  0.00    +0.000 A 
ATOM     20  C   UNL     1      -2.791  16.834  22.934  0.00  0.00    +0.000 A 
ATOM     21  C   UNL     1      -2.061  17.922  22.437  0.00  0.00    +0.000 A 
ATOM     22  C   UNL     1      -2.016  18.171  21.070  0.00  0.00    +0.000 A 
ATOM     23  C   UNL     1      -2.762  17.379  20.211  0.00  0.00    +0.000 A 
ATOM     24  C   UNL     1      -3.529  16.329  20.724  0.00  0.00    +0.000 A 
ENDBRANCH  17  19
ENDBRANCH   4   7
BRANCH   1  27
ATOM     25  O   UNL     1       2.911   8.582  17.146  0.00  0.00    +0.000 OA
ATOM     26  C   UNL     1       2.275   8.223  18.126  0.00  0.00    +0.000 C 
ATOM     27  N   UNL     1       1.487   9.032  18.900  0.00  0.00    +0.000 N 
ATOM     28  H   UNL     1       1.265   8.667  19.814  0.00  0.00    +0.000 HD
BRANCH  26  29
ATOM     29  C   UNL     1       2.293   6.882  18.668  0.00  0.00    +0.000 A 
ATOM     30  C   UNL     1       2.122   5.682  17.995  0.00  0.00    +0.000 A 
ATOM     31  C   UNL     1       2.029   4.644  18.946  0.00  0.00    +0.000 A 
ATOM     32  C   UNL     1       1.783   3.262  18.851  0.00  0.00    +0.000 A 
ATOM     33  C   UNL     1       1.688   2.508  20.014  0.00  0.00    +0.000 A 
ATOM     34  C   UNL     1       1.845   3.112  21.260  0.00  0.00    +0.000 A 
ATOM     35  C   UNL     1       2.113   4.481  21.381  0.00  0.00    +0.000 A 
ATOM     36  C   UNL     1       2.206   5.226  20.201  0.00  0.00    +0.000 A 
ATOM     37  N   UNL     1       2.459   6.567  19.997  0.00  0.00    +0.000 N 
ATOM     38  H   UNL     1       2.639   7.246  20.723  0.00  0.00    +0.000 HD
ENDBRANCH  26  29
ENDBRANCH   1  27
TORSDOF 4
ENDMDL
MODEL 3
REMARK VINA RESULT:      -8.2      0.577      1.022
REMARK  Name = 
REMARK  4 active torsions:
REMARK  status: ('A' for Active; 'I' for Inactive)
REMARK    1  A    between atoms: C_2  and  C_27
REMARK    2  A    between atoms: N_3  and  C_4
REMARK    3  A    between atoms: C_7  and  N_8
REMARK    4  A    between atoms: N_18  and  C_19
REMARK                            x       y       z     vdW  Elec       q    Type
REMARK                         _______ _______ _______ _____ _____    ______ ____
ROOT
ATOM      1  C   UNL     1       0.756  10.897  19.884  0.00  0.00    +0.000 C 
ATOM      2  C   UNL     1       0.848   9.689  20.827  0.00  0.00    +0.000 C 
ATOM      3  C   UNL     1       0.393   8.383  20.156  0.00  0.00    +0.000 C 
ATOM      4  C   UNL     1       1.187   8.053  18.871  0.00  0.00    +0.000 C 
ATOM      5  C   UNL     1       1.046   9.274  17.924  0.00  0.00    +0.000 C 
ATOM      6  C   UNL     1       1.427  10.628  18.535  0.00  0.00    +0.000 C 
ENDROOT
BRANCH   4   7
ATOM      7  N   UNL     1       2.567   7.644  19.216  0.00  0.00    +0.000 NA
ATOM      8  C   UNL     1       2.621   6.569  20.227  0.00  0.00    +0.000 C 
ATOM      9  C   UNL     1       2.266   5.162  19.734  0.00  0.00    +0.000 C 
ATOM     10  C   UNL     1       2.884   4.773  18.381  0.00  0.00    +0.000 C 
ATOM     11  C   UNL     1       3.043   5.954  17.411  0.00  0.00    +0.000 C 
ATOM     12  C   UNL     1       3.426   7.268  18.087  0.00  0.00    +0.000 C 
ATOM     13  C   UNL     1       1.901   3.795  17.696  0.00  0.00    +0.000 C 
ATOM     14  O   UNL     1       0.742   4.002  17.374  0.00  0.00    +0.000 OA
ATOM     15  N   UNL     1       2.554   2.610  17.487  0.00  0.00    +0.000 N 
ATOM     16  C   UNL     1       3.821   2.531  18.123  0.00  0.00    +0.000 C 
ATOM     17  N   UNL     1       4.101   3.892  18.561  0.00  0.00    +0.000 N 
ATOM     18  H   UNL     1       2.061   1.816  17.103  0.00  0.00    +0.000 HD
BRANCH  17  19
ATOM     19  C   UNL     1       5.374   4.422  18.397  0.00  0.00    +0.000 A 
ATOM     20  C   UNL     1       6.071   4.414  17.182  0.00  0.00    +0.000 A 
ATOM     21  C   UNL     1       7.283   5.101  17.031  0.00  0.00    +0.000 A 
ATOM     22  C   UNL     1       7.817   5.824  18.093  0.00  0.00    +0.000 A 
ATOM     23  C   UNL     1       7.178   5.795  19.323  0.00  0.00    +0.000 A 
ATOM     24  C   UNL     1       5.997   5.063  19.474  0.00  0.00    +0.000 A 
ENDBRANCH  17  19
ENDBRANCH   4   7
BRANCH   1  27
ATOM     25  O   UNL     1      -0.562  13.501  19.428  0.00  0.00    +0.000 OA
ATOM     26  C   UNL     1      -1.193  12.459  19.528  0.00  0.00    +0.000 C 
ATOM     27  N   UNL     1      -0.647  11.216  19.706  0.00  0.00    +0.000 N 
ATOM     28  H   UNL     1      -1.259  10.444  19.485  0.00  0.00    +0.000 HD
BRANCH  26  29
ATOM     29  C   UNL     1      -2.632  12.359  19.420  0.00  0.00    +0.000 A 
ATOM     30  C   UNL     1      -3.374  11.569  18.555  0.00  0.00    +0.000 A 
ATOM     31  C   UNL     1      -4.733  11.932  18.672  0.00  0.00    +0.000 A 
ATOM     32  C   UNL     1      -5.903  11.532  18.001  0.00  0.00    +0.000 A 
ATOM     33  C   UNL     1      -7.109  12.144  18.317  0.00  0.00    +0.000 A 
ATOM     34  C   UNL     1      -7.160  13.137  19.295  0.00  0.00    +0.000 A 
ATOM     35  C   UNL     1      -6.014  13.537  19.992  0.00  0.00    +0.000 A 
ATOM     36  C   UNL     1      -4.808  12.911  19.662  0.00  0.00    +0.000 A 
ATOM     37  N   UNL     1      -3.534  13.081  20.165  0.00  0.00    +0.000 N 
ATOM     38  H   UNL     1      -3.277  13.720  20.905  0.00  0.00    +0.000 HD
ENDBRANCH  26  29
ENDBRANCH   1  27
TORSDOF 4
ENDMDL
MODEL 4
REMARK VINA RESULT:      -8.0      3.139     10.912
REMARK  Name = 
REMARK  4 active torsions:
REMARK  status: ('A' for Active; 'I' for Inactive)
REMARK    1  A    between atoms: C_2  and  C_27
REMARK    2  A    between atoms: N_3  and  C_4
REMARK    3  A    between atoms: C_7  and  N_8
REMARK    4  A    between atoms: N_18  and  C_19
REMARK                            x       y       z     vdW  Elec       q    Type
REMARK                         _______ _______ _______ _____ _____    ______ ____
ROOT
ATOM      1  C   UNL     1       1.177  10.493  18.827  0.00  0.00    +0.000 C 
ATOM      2  C   UNL     1      -0.270  10.617  18.327  0.00  0.00    +0.000 C 
ATOM      3  C   UNL     1      -1.300  10.359  19.437  0.00  0.00    +0.000 C 
ATOM      4  C   UNL     1      -1.129  11.297  20.654  0.00  0.00    +0.000 C 
ATOM      5  C   UNL     1       0.329  11.124  21.160  0.00  0.00    +0.000 C 
ATOM      6  C   UNL     1       1.419  11.310  20.097  0.00  0.00    +0.000 C 
ENDROOT
BRANCH   4   7
ATOM      7  N   UNL     1      -1.542  12.673  20.298  0.00  0.00    +0.000 NA
ATOM      8  C   UNL     1      -2.985  12.793  20.013  0.00  0.00    +0.000 C 
ATOM      9  C   UNL     1      -3.917  12.767  21.231  0.00  0.00    +0.000 C 
ATOM     10  C   UNL     1      -3.447  13.613  22.425  0.00  0.00    +0.000 C 
ATOM     11  C   UNL     1      -1.919  13.677  22.576  0.00  0.00    +0.000 C 
ATOM     12  C   UNL     1      -1.164  13.723  21.250  0.00  0.00    +0.000 C 
ATOM     13  C   UNL     1      -3.968  12.922  23.706  0.00  0.00    +0.000 C 
ATOM     14  O   UNL     1      -3.717  11.795  24.104  0.00  0.00    +0.000 OA
ATOM     15  N   UNL     1      -4.785  13.801  24.365  0.00  0.00    +0.000 N 
ATOM     16  C   UNL     1      -5.092  14.970  23.618  0.00  0.00    +0.000 C 
ATOM     17  N   UNL     1      -4.176  14.938  22.486  0.00  0.00    +0.000 N 
ATOM     18  H   UNL     1      -5.277  13.515  25.199  0.00  0.00    +0.000 HD
BRANCH  17  19
ATOM     19  C   UNL     1      -3.538  16.102  22.081  0.00  0.00    +0.000 A 
ATOM     20  C   UNL     1      -2.834  16.948  22.949  0.00  0.00    +0.000 A 
ATOM     21  C   UNL     1      -2.077  18.023  22.466  0.00  0.00    +0.000 A 
ATOM     22  C   UNL     1      -1.997  18.267  21.099  0.00  0.00    +0.000 A 
ATOM     23  C   UNL     1      -2.734  17.483  20.225  0.00  0.00    +0.000 A 
ATOM     24  C   UNL     1      -3.528  16.446  20.724  0.00  0.00    +0.000 A 
ENDBRANCH  17  19
ENDBRANCH   4   7
BRANCH   1  27
ATOM     25  O   UNL     1       2.781   8.578  17.250  0.00  0.00    +0.000 OA
ATOM     26  C   UNL     1       2.180   8.249  18.263  0.00  0.00    +0.000 C 
ATOM     27  N   UNL     1       1.448   9.088  19.059  0.00  0.00    +0.000 N 
ATOM     28  H   UNL     1       1.259   8.741  19.987  0.00  0.00    +0.000 HD
BRANCH  26  29
ATOM     29  C   UNL     1       2.190   6.915  18.824  0.00  0.00    +0.000 A 
ATOM     30  C   UNL     1       1.900   6.528  20.123  0.00  0.00    +0.000 A 
ATOM     31  C   UNL     1       2.219   5.161  20.266  0.00  0.00    +0.000 A 
ATOM     32  C   UNL     1       2.204   4.272  21.355  0.00  0.00    +0.000 A 
ATOM     33  C   UNL     1       2.651   2.969  21.174  0.00  0.00    +0.000 A 
ATOM     34  C   UNL     1       3.100   2.546  19.924  0.00  0.00    +0.000 A 
ATOM     35  C   UNL     1       3.104   3.405  18.819  0.00  0.00    +0.000 A 
ATOM     36  C   UNL     1       2.651   4.713  19.018  0.00  0.00    +0.000 A 
ATOM     37  N   UNL     1       2.532   5.771  18.140  0.00  0.00    +0.000 N 
ATOM     38  H   UNL     1       2.761   5.745  17.156  0.00  0.00    +0.000 HD
ENDBRANCH  26  29
ENDBRANCH   1  27
TORSDOF 4
ENDMDL
MODEL 5
REMARK VINA RESULT:      -7.7      3.600     10.302
REMARK  Name = 
REMARK  4 active torsions:
REMARK  status: ('A' for Active; 'I' for Inactive)
REMARK    1  A    between atoms: C_2  and  C_27
REMARK    2  A    between atoms: N_3  and  C_4
REMARK    3  A    between atoms: C_7  and  N_8
REMARK    4  A    between atoms: N_18  and  C_19
REMARK                            x       y       z     vdW  Elec       q    Type
REMARK                         _______ _______ _______ _____ _____    ______ ____
ROOT
ATOM      1  C   UNL     1       0.893   9.957  17.772  0.00  0.00    +0.000 C 
ATOM      2  C   UNL     1      -0.582  10.185  18.133  0.00  0.00    +0.000 C 
ATOM      3  C   UNL     1      -0.792  10.412  19.638  0.00  0.00    +0.000 C 
ATOM      4  C   UNL     1       0.029  11.598  20.193  0.00  0.00    +0.000 C 
ATOM      5  C   UNL     1       1.517  11.324  19.846  0.00  0.00    +0.000 C 
ATOM      6  C   UNL     1       1.804  11.031  18.368  0.00  0.00    +0.000 C 
ENDROOT
BRANCH   4   7
ATOM      7  N   UNL     1      -0.534  12.878  19.706  0.00  0.00    +0.000 NA
ATOM      8  C   UNL     1      -1.024  13.749  20.792  0.00  0.00    +0.000 C 
ATOM      9  C   UNL     1       0.050  14.469  21.616  0.00  0.00    +0.000 C 
ATOM     10  C   UNL     1       1.194  15.086  20.794  0.00  0.00    +0.000 C 
ATOM     11  C   UNL     1       1.544  14.290  19.526  0.00  0.00    +0.000 C 
ATOM     12  C   UNL     1       0.336  13.669  18.828  0.00  0.00    +0.000 C 
ATOM     13  C   UNL     1       2.462  15.048  21.678  0.00  0.00    +0.000 C 
ATOM     14  O   UNL     1       3.015  14.068  22.152  0.00  0.00    +0.000 OA
ATOM     15  N   UNL     1       2.899  16.333  21.854  0.00  0.00    +0.000 N 
ATOM     16  C   UNL     1       1.990  17.318  21.386  0.00  0.00    +0.000 C 
ATOM     17  N   UNL     1       1.004  16.576  20.612  0.00  0.00    +0.000 N 
ATOM     18  H   UNL     1       3.685  16.527  22.458  0.00  0.00    +0.000 HD
BRANCH  17  19
ATOM     19  C   UNL     1       0.560  17.077  19.396  0.00  0.00    +0.000 A 
ATOM     20  C   UNL     1      -0.793  17.214  19.056  0.00  0.00    +0.000 A 
ATOM     21  C   UNL     1      -1.188  17.871  17.883  0.00  0.00    +0.000 A 
ATOM     22  C   UNL     1      -0.235  18.419  17.031  0.00  0.00    +0.000 A 
ATOM     23  C   UNL     1       1.110  18.242  17.313  0.00  0.00    +0.000 A 
ATOM     24  C   UNL     1       1.492  17.539  18.459  0.00  0.00    +0.000 A 
ENDBRANCH  17  19
ENDBRANCH   4   7
BRANCH   1  27
ATOM     25  O   UNL     1       3.277   8.321  17.167  0.00  0.00    +0.000 OA
ATOM     26  C   UNL     1       2.382   7.925  17.900  0.00  0.00    +0.000 C 
ATOM     27  N   UNL     1       1.268   8.641  18.249  0.00  0.00    +0.000 N 
ATOM     28  H   UNL     1       0.780   8.302  19.065  0.00  0.00    +0.000 HD
BRANCH  26  29
ATOM     29  C   UNL     1       2.378   6.642  18.569  0.00  0.00    +0.000 A 
ATOM     30  C   UNL     1       2.138   5.391  18.024  0.00  0.00    +0.000 A 
ATOM     31  C   UNL     1       2.052   4.453  19.074  0.00  0.00    +0.000 A 
ATOM     32  C   UNL     1       1.756   3.079  19.124  0.00  0.00    +0.000 A 
ATOM     33  C   UNL     1       1.687   2.444  20.358  0.00  0.00    +0.000 A 
ATOM     34  C   UNL     1       1.918   3.159  21.532  0.00  0.00    +0.000 A 
ATOM     35  C   UNL     1       2.237   4.522  21.508  0.00  0.00    +0.000 A 
ATOM     36  C   UNL     1       2.303   5.146  20.258  0.00  0.00    +0.000 A 
ATOM     37  N   UNL     1       2.592   6.451  19.914  0.00  0.00    +0.000 N 
ATOM     38  H   UNL     1       2.826   7.189  20.562  0.00  0.00    +0.000 HD
ENDBRANCH  26  29
ENDBRANCH   1  27
TORSDOF 4
ENDMDL
MODEL 6
REMARK VINA RESULT:      -7.4      6.465     11.990
REMARK  Name = 
REMARK  4 active torsions:
REMARK  status: ('A' for Active; 'I' for Inactive)
REMARK    1  A    between atoms: C_2  and  C_27
REMARK    2  A    between atoms: N_3  and  C_4
REMARK    3  A    between atoms: C_7  and  N_8
REMARK    4  A    between atoms: N_18  and  C_19
REMARK                            x       y       z     vdW  Elec       q    Type
REMARK                         _______ _______ _______ _____ _____    ______ ____
ROOT
ATOM      1  C   UNL     1       4.527  16.511  18.594  0.00  0.00    +0.000 C 
ATOM      2  C   UNL     1       3.445  15.922  17.676  0.00  0.00    +0.000 C 
ATOM      3  C   UNL     1       2.988  14.525  18.127  0.00  0.00    +0.000 C 
ATOM      4  C   UNL     1       2.455  14.500  19.578  0.00  0.00    +0.000 C 
ATOM      5  C   UNL     1       3.580  15.066  20.485  0.00  0.00    +0.000 C 
ATOM      6  C   UNL     1       4.134  16.435  20.070  0.00  0.00    +0.000 C 
ENDROOT
BRANCH   4   7
ATOM      7  N   UNL     1       1.145  15.186  19.651  0.00  0.00    +0.000 NA
ATOM      8  C   UNL     1       0.061  14.444  18.977  0.00  0.00    +0.000 C 
ATOM      9  C   UNL     1      -0.476  13.215  19.719  0.00  0.00    +0.000 C 
ATOM     10  C   UNL     1      -0.704  13.414  21.226  0.00  0.00    +0.000 C 
ATOM     11  C   UNL     1       0.295  14.381  21.880  0.00  0.00    +0.000 C 
ATOM     12  C   UNL     1       0.692  15.560  20.995  0.00  0.00    +0.000 C 
ATOM     13  C   UNL     1      -0.472  12.045  21.906  0.00  0.00    +0.000 C 
ATOM     14  O   UNL     1       0.548  11.374  21.909  0.00  0.00    +0.000 OA
ATOM     15  N   UNL     1      -1.629  11.680  22.541  0.00  0.00    +0.000 N 
ATOM     16  C   UNL     1      -2.739  12.511  22.232  0.00  0.00    +0.000 C 
ATOM     17  N   UNL     1      -2.165  13.656  21.538  0.00  0.00    +0.000 N 
ATOM     18  H   UNL     1      -1.701  10.781  22.995  0.00  0.00    +0.000 HD
BRANCH  17  19
ATOM     19  C   UNL     1      -2.610  14.937  21.833  0.00  0.00    +0.000 A 
ATOM     20  C   UNL     1      -2.924  15.896  20.861  0.00  0.00    +0.000 A 
ATOM     21  C   UNL     1      -3.519  17.117  21.205  0.00  0.00    +0.000 A 
ATOM     22  C   UNL     1      -3.826  17.398  22.532  0.00  0.00    +0.000 A 
ATOM     23  C   UNL     1      -3.468  16.492  23.518  0.00  0.00    +0.000 A 
ATOM     24  C   UNL     1      -2.827  15.301  23.167  0.00  0.00    +0.000 A 
ENDBRANCH  17  19
ENDBRANCH   4   7
BRANCH   1  27
ATOM     25  O   UNL     1       7.315  17.479  18.472  0.00  0.00    +0.000 OA
ATOM     26  C   UNL     1       7.021  16.308  18.277  0.00  0.00    +0.000 C 
ATOM     27  N   UNL     1       5.758  15.785  18.351  0.00  0.00    +0.000 N 
ATOM     28  H   UNL     1       5.715  14.781  18.449  0.00  0.00    +0.000 HD
BRANCH  26  29
ATOM     29  C   UNL     1       7.977  15.261  17.989  0.00  0.00    +0.000 A 
ATOM     30  C   UNL     1       7.785  13.888  18.031  0.00  0.00    +0.000 A 
ATOM     31  C   UNL     1       9.033  13.255  17.860  0.00  0.00    +0.000 A 
ATOM     32  C   UNL     1       9.451  11.912  17.888  0.00  0.00    +0.000 A 
ATOM     33  C   UNL     1      10.800  11.617  17.743  0.00  0.00    +0.000 A 
ATOM     34  C   UNL     1      11.729  12.641  17.562  0.00  0.00    +0.000 A 
ATOM     35  C   UNL     1      11.337  13.984  17.507  0.00  0.00    +0.000 A 
ATOM     36  C   UNL     1       9.975  14.263  17.654  0.00  0.00    +0.000 A 
ATOM     37  N   UNL     1       9.292  15.463  17.642  0.00  0.00    +0.000 N 
ATOM     38  H   UNL     1       9.709  16.372  17.502  0.00  0.00    +0.000 HD
ENDBRANCH  26  29
ENDBRANCH   1  27
TORSDOF 4
ENDMDL
MODEL 7
REMARK VINA RESULT:      -7.3      5.739     11.610
REMARK  Name = 
REMARK  4 active torsions:
REMARK  status: ('A' for Active; 'I' for Inactive)
REMARK    1  A    between atoms: C_2  and  C_27
REMARK    2  A    between atoms: N_3  and  C_4
REMARK    3  A    between atoms: C_7  and  N_8
REMARK    4  A    between atoms: N_18  and  C_19
REMARK                            x       y       z     vdW  Elec       q    Type
REMARK                         _______ _______ _______ _____ _____    ______ ____
ROOT
ATOM      1  C   UNL     1       4.927  16.301  19.776  0.00  0.00    +0.000 C 
ATOM      2  C   UNL     1       3.834  16.224  18.701  0.00  0.00    +0.000 C 
ATOM      3  C   UNL     1       3.317  14.792  18.488  0.00  0.00    +0.000 C 
ATOM      4  C   UNL     1       2.768  14.147  19.781  0.00  0.00    +0.000 C 
ATOM      5  C   UNL     1       3.904  14.206  20.837  0.00  0.00    +0.000 C 
ATOM      6  C   UNL     1       4.515  15.593  21.068  0.00  0.00    +0.000 C 
ENDROOT
BRANCH   4   7
ATOM      7  N   UNL     1       1.485  14.781  20.160  0.00  0.00    +0.000 NA
ATOM      8  C   UNL     1       0.582  15.000  19.013  0.00  0.00    +0.000 C 
ATOM      9  C   UNL     1      -0.128  13.756  18.467  0.00  0.00    +0.000 C 
ATOM     10  C   UNL     1      -0.702  12.814  19.538  0.00  0.00    +0.000 C 
ATOM     11  C   UNL     1       0.125  12.771  20.832  0.00  0.00    +0.000 C 
ATOM     12  C   UNL     1       0.732  14.115  21.228  0.00  0.00    +0.000 C 
ATOM     13  C   UNL     1      -0.652  11.381  18.959  0.00  0.00    +0.000 C 
ATOM     14  O   UNL     1       0.332  10.755  18.597  0.00  0.00    +0.000 OA
ATOM     15  N   UNL     1      -1.930  10.892  18.915  0.00  0.00    +0.000 N 
ATOM     16  C   UNL     1      -2.927  11.865  19.192  0.00  0.00    +0.000 C 
ATOM     17  N   UNL     1      -2.193  13.012  19.709  0.00  0.00    +0.000 N 
ATOM     18  H   UNL     1      -2.117   9.987  18.507  0.00  0.00    +0.000 HD
BRANCH  17  19
ATOM     19  C   UNL     1      -2.681  13.707  20.807  0.00  0.00    +0.000 A 
ATOM     20  C   UNL     1      -2.736  15.105  20.883  0.00  0.00    +0.000 A 
ATOM     21  C   UNL     1      -3.382  15.754  21.944  0.00  0.00    +0.000 A 
ATOM     22  C   UNL     1      -4.000  15.014  22.946  0.00  0.00    +0.000 A 
ATOM     23  C   UNL     1      -3.905  13.631  22.926  0.00  0.00    +0.000 A 
ATOM     24  C   UNL     1      -3.213  12.998  21.890  0.00  0.00    +0.000 A 
ENDBRANCH  17  19
ENDBRANCH   4   7
BRANCH   1  27
ATOM     25  O   UNL     1       7.242  17.574  18.454  0.00  0.00    +0.000 OA
ATOM     26  C   UNL     1       7.156  16.363  18.597  0.00  0.00    +0.000 C 
ATOM     27  N   UNL     1       6.132  15.709  19.228  0.00  0.00    +0.000 N 
ATOM     28  H   UNL     1       6.339  14.763  19.513  0.00  0.00    +0.000 HD
BRANCH  26  29
ATOM     29  C   UNL     1       8.161  15.415  18.167  0.00  0.00    +0.000 A 
ATOM     30  C   UNL     1       8.160  14.037  18.317  0.00  0.00    +0.000 A 
ATOM     31  C   UNL     1       9.419  13.541  17.919  0.00  0.00    +0.000 A 
ATOM     32  C   UNL     1      10.004  12.262  17.926  0.00  0.00    +0.000 A 
ATOM     33  C   UNL     1      11.323  12.115  17.515  0.00  0.00    +0.000 A 
ATOM     34  C   UNL     1      12.056  13.223  17.093  0.00  0.00    +0.000 A 
ATOM     35  C   UNL     1      11.491  14.503  17.055  0.00  0.00    +0.000 A 
ATOM     36  C   UNL     1      10.162  14.634  17.471  0.00  0.00    +0.000 A 
ATOM     37  N   UNL     1       9.342  15.741  17.542  0.00  0.00    +0.000 N 
ATOM     38  H   UNL     1       9.601  16.680  17.273  0.00  0.00    +0.000 HD
ENDBRANCH  26  29
ENDBRANCH   1  27
TORSDOF 4
ENDMDL
MODEL 8
REMARK VINA RESULT:      -7.3      3.337     11.693
REMARK  Name = 
REMARK  4 active torsions:
REMARK  status: ('A' for Active; 'I' for Inactive)
REMARK    1  A    between atoms: C_2  and  C_27
REMARK    2  A    between atoms: N_3  and  C_4
REMARK    3  A    between atoms: C_7  and  N_8
REMARK    4  A    between atoms: N_18  and  C_19
REMARK                            x       y       z     vdW  Elec       q    Type
REMARK                         _______ _______ _______ _____ _____    ______ ____
ROOT
ATOM      1  C   UNL     1      -0.804  12.150  18.213  0.00  0.00    +0.000 C 
ATOM      2  C   UNL     1      -2.271  11.706  18.126  0.00  0.00    +0.000 C 
ATOM      3  C   UNL     1      -2.842  11.289  19.491  0.00  0.00    +0.000 C 
ATOM      4  C   UNL     1      -2.737  12.403  20.558  0.00  0.00    +0.000 C 
ATOM      5  C   UNL     1      -1.241  12.806  20.650  0.00  0.00    +0.000 C 
ATOM      6  C   UNL     1      -0.578  13.182  19.318  0.00  0.00    +0.000 C 
ENDROOT
BRANCH   4   7
ATOM      7  N   UNL     1      -3.693  13.491  20.253  0.00  0.00    +0.000 NA
ATOM      8  C   UNL     1      -5.084  13.021  20.106  0.00  0.00    +0.000 C 
ATOM      9  C   UNL     1      -5.815  12.665  21.406  0.00  0.00    +0.000 C 
ATOM     10  C   UNL     1      -5.616  13.664  22.557  0.00  0.00    +0.000 C 
ATOM     11  C   UNL     1      -4.232  14.333  22.564  0.00  0.00    +0.000 C 
ATOM     12  C   UNL     1      -3.679  14.634  21.173  0.00  0.00    +0.000 C 
ATOM     13  C   UNL     1      -5.703  12.863  23.876  0.00  0.00    +0.000 C 
ATOM     14  O   UNL     1      -4.990  11.940  24.240  0.00  0.00    +0.000 OA
ATOM     15  N   UNL     1      -6.739  13.366  24.616  0.00  0.00    +0.000 N 
ATOM     16  C   UNL     1      -7.551  14.294  23.910  0.00  0.00    +0.000 C 
ATOM     17  N   UNL     1      -6.802  14.593  22.696  0.00  0.00    +0.000 N 
ATOM     18  H   UNL     1      -7.000  12.933  25.490  0.00  0.00    +0.000 HD
BRANCH  17  19
ATOM     19  C   UNL     1      -6.719  15.902  22.242  0.00  0.00    +0.000 A 
ATOM     20  C   UNL     1      -6.897  16.275  20.903  0.00  0.00    +0.000 A 
ATOM     21  C   UNL     1      -6.960  17.622  20.522  0.00  0.00    +0.000 A 
ATOM     22  C   UNL     1      -6.859  18.627  21.479  0.00  0.00    +0.000 A 
ATOM     23  C   UNL     1      -6.620  18.284  22.800  0.00  0.00    +0.000 A 
ATOM     24  C   UNL     1      -6.507  16.938  23.159  0.00  0.00    +0.000 A 
ENDBRANCH  17  19
ENDBRANCH   4   7
BRANCH   1  27
ATOM     25  O   UNL     1       2.132  11.821  18.205  0.00  0.00    +0.000 OA
ATOM     26  C   UNL     1       1.370  10.883  18.390  0.00  0.00    +0.000 C 
ATOM     27  N   UNL     1       0.005  10.968  18.440  0.00  0.00    +0.000 N 
ATOM     28  H   UNL     1      -0.457  10.183  18.875  0.00  0.00    +0.000 HD
BRANCH  26  29
ATOM     29  C   UNL     1       1.793   9.523  18.644  0.00  0.00    +0.000 A 
ATOM     30  C   UNL     1       2.384   8.629  17.764  0.00  0.00    +0.000 A 
ATOM     31  C   UNL     1       2.452   7.365  18.386  0.00  0.00    +0.000 A 
ATOM     32  C   UNL     1       2.873   6.094  17.955  0.00  0.00    +0.000 A 
ATOM     33  C   UNL     1       2.748   5.010  18.814  0.00  0.00    +0.000 A 
ATOM     34  C   UNL     1       2.218   5.181  20.092  0.00  0.00    +0.000 A 
ATOM     35  C   UNL     1       1.813   6.439  20.553  0.00  0.00    +0.000 A 
ATOM     36  C   UNL     1       1.946   7.520  19.677  0.00  0.00    +0.000 A 
ATOM     37  N   UNL     1       1.644   8.857  19.838  0.00  0.00    +0.000 N 
ATOM     38  H   UNL     1       1.268   9.275  20.678  0.00  0.00    +0.000 HD
ENDBRANCH  26  29
ENDBRANCH   1  27
TORSDOF 4
ENDMDL
MODEL 9
REMARK VINA RESULT:      -7.3      1.919      2.513
REMARK  Name = 
REMARK  4 active torsions:
REMARK  status: ('A' for Active; 'I' for Inactive)
REMARK    1  A    between atoms: C_2  and  C_27
REMARK    2  A    between atoms: N_3  and  C_4
REMARK    3  A    between atoms: C_7  and  N_8
REMARK    4  A    between atoms: N_18  and  C_19
REMARK                            x       y       z     vdW  Elec       q    Type
REMARK                         _______ _______ _______ _____ _____    ______ ____
ROOT
ATOM      1  C   UNL     1       1.360  10.631  20.716  0.00  0.00    +0.000 C 
ATOM      2  C   UNL     1       1.834   9.468  21.600  0.00  0.00    +0.000 C 
ATOM      3  C   UNL     1       1.073   8.164  21.315  0.00  0.00    +0.000 C 
ATOM      4  C   UNL     1       1.167   7.717  19.838  0.00  0.00    +0.000 C 
ATOM      5  C   UNL     1       0.648   8.896  18.972  0.00  0.00    +0.000 C 
ATOM      6  C   UNL     1       1.319  10.250  19.236  0.00  0.00    +0.000 C 
ENDROOT
BRANCH   4   7
ATOM      7  N   UNL     1       2.533   7.234  19.538  0.00  0.00    +0.000 NA
ATOM      8  C   UNL     1       3.048   6.282  20.542  0.00  0.00    +0.000 C 
ATOM      9  C   UNL     1       2.471   4.863  20.484  0.00  0.00    +0.000 C 
ATOM     10  C   UNL     1       2.351   4.269  19.071  0.00  0.00    +0.000 C 
ATOM     11  C   UNL     1       2.045   5.313  17.985  0.00  0.00    +0.000 C 
ATOM     12  C   UNL     1       2.732   6.659  18.203  0.00  0.00    +0.000 C 
ATOM     13  C   UNL     1       1.141   3.307  19.082  0.00  0.00    +0.000 C 
ATOM     14  O   UNL     1      -0.026   3.574  19.325  0.00  0.00    +0.000 OA
ATOM     15  N   UNL     1       1.587   2.054  18.759  0.00  0.00    +0.000 N 
ATOM     16  C   UNL     1       3.002   1.941  18.719  0.00  0.00    +0.000 C 
ATOM     17  N   UNL     1       3.486   3.314  18.772  0.00  0.00    +0.000 N 
ATOM     18  H   UNL     1       0.955   1.267  18.774  0.00  0.00    +0.000 HD
BRANCH  17  19
ATOM     19  C   UNL     1       4.531   3.711  17.950  0.00  0.00    +0.000 A 
ATOM     20  C   UNL     1       4.532   3.548  16.558  0.00  0.00    +0.000 A 
ATOM     21  C   UNL     1       5.538   4.107  15.758  0.00  0.00    +0.000 A 
ATOM     22  C   UNL     1       6.559   4.854  16.336  0.00  0.00    +0.000 A 
ATOM     23  C   UNL     1       6.614   4.976  17.715  0.00  0.00    +0.000 A 
ATOM     24  C   UNL     1       5.634   4.370  18.505  0.00  0.00    +0.000 A 
ENDBRANCH  17  19
ENDBRANCH   4   7
BRANCH   1  27
ATOM     25  O   UNL     1       0.455  13.193  21.876  0.00  0.00    +0.000 OA
ATOM     26  C   UNL     1      -0.295  12.237  21.740  0.00  0.00    +0.000 C 
ATOM     27  N   UNL     1       0.047  11.034  21.181  0.00  0.00    +0.000 N 
ATOM     28  H   UNL     1      -0.730  10.465  20.882  0.00  0.00    +0.000 HD
BRANCH  26  29
ATOM     29  C   UNL     1      -1.696  12.237  22.099  0.00  0.00    +0.000 A 
ATOM     30  C   UNL     1      -2.789  12.509  21.292  0.00  0.00    +0.000 A 
ATOM     31  C   UNL     1      -3.941  12.576  22.103  0.00  0.00    +0.000 A 
ATOM     32  C   UNL     1      -5.289  12.889  21.849  0.00  0.00    +0.000 A 
ATOM     33  C   UNL     1      -6.188  12.930  22.907  0.00  0.00    +0.000 A 
ATOM     34  C   UNL     1      -5.760  12.656  24.205  0.00  0.00    +0.000 A 
ATOM     35  C   UNL     1      -4.429  12.320  24.482  0.00  0.00    +0.000 A 
ATOM     36  C   UNL     1      -3.538  12.283  23.406  0.00  0.00    +0.000 A 
ATOM     37  N   UNL     1      -2.190  11.987  23.358  0.00  0.00    +0.000 N 
ATOM     38  H   UNL     1      -1.620  11.725  24.150  0.00  0.00    +0.000 HD
ENDBRANCH  26  29
ENDBRANCH   1  27
TORSDOF 4
ENDMDL
