MODEL 1
REMARK VINA RESULT:      -8.0      0.000      0.000
REMARK  Name = 
REMARK  10 active torsions:
REMARK  status: ('A' for Active; 'I' for Inactive)
REMARK    1  A    between atoms: O_1  and  C_2
REMARK    2  A    between atoms: N_5  and  C_6
REMARK    3  A    between atoms: C_6  and  C_7
REMARK    4  A    between atoms: C_11  and  O_12
REMARK    5  A    between atoms: O_12  and  C_13
REMARK    6  A    between atoms: C_13  and  C_14
REMARK    7  A    between atoms: C_14  and  C_15
REMARK    8  A    between atoms: C_15  and  C_16
REMARK    9  A    between atoms: C_16  and  N_17
REMARK   10  A    between atoms: C_25  and  O_26
REMARK                            x       y       z     vdW  Elec       q    Type
REMARK                         _______ _______ _______ _____ _____    ______ ____
ROOT
ATOM      1  C   UNL     1       4.783   4.700  17.052  0.00  0.00    +0.000 A 
ATOM      2  C   UNL     1       4.933   3.883  15.927  0.00  0.00    +0.000 A 
ATOM      3  C   UNL     1       6.040   4.049  15.088  0.00  0.00    +0.000 A 
ATOM      4  C   UNL     1       6.976   5.057  15.341  0.00  0.00    +0.000 A 
ATOM      5  C   UNL     1       6.833   5.884  16.454  0.00  0.00    +0.000 A 
ATOM      6  C   UNL     1       5.764   5.664  17.319  0.00  0.00    +0.000 A 
ENDROOT
BRANCH   1   7
ATOM      7  C   UNL     1       3.588   4.599  17.975  0.00  0.00    +0.000 C 
BRANCH   7  11
ATOM      8  C   UNL     1       2.241   2.773  20.921  0.00  0.00    +0.000 C 
ATOM      9  C   UNL     1       1.386   3.610  19.978  0.00  0.00    +0.000 C 
ATOM     10  C   UNL     1       1.598   3.198  18.522  0.00  0.00    +0.000 C 
ATOM     11  N   UNL     1       3.000   3.246  18.080  0.00  0.00    +0.000 NA
ATOM     12  C   UNL     1       3.819   2.397  18.966  0.00  0.00    +0.000 C 
ATOM     13  C   UNL     1       3.714   2.735  20.467  0.00  0.00    +0.000 C 
BRANCH   8  14
ATOM     14  O   UNL     1       2.159   3.321  22.241  0.00  0.00    +0.000 OA
ATOM     15  H   UNL     1       1.237   3.250  22.543  0.00  0.00    +0.000 HD
ENDBRANCH   8  14
BRANCH  13  16
ATOM     16  O   UNL     1       4.466   1.769  21.211  0.00  0.00    +0.000 OA
ATOM     17  H   UNL     1       4.184   1.813  22.139  0.00  0.00    +0.000 HD
ENDBRANCH  13  16
ENDBRANCH   7  11
ENDBRANCH   1   7
BRANCH   5  18
ATOM     18  O   UNL     1       7.760   6.882  16.605  0.00  0.00    +0.000 OA
BRANCH  18  19
ATOM     19  C   UNL     1       7.740   7.542  17.876  0.00  0.00    +0.000 C 
BRANCH  19  20
ATOM     20  C   UNL     1       7.898   9.043  17.697  0.00  0.00    +0.000 C 
BRANCH  20  21
ATOM     21  C   UNL     1       8.918   9.625  18.676  0.00  0.00    +0.000 C 
BRANCH  21  22
ATOM     22  C   UNL     1       9.135  11.127  18.458  0.00  0.00    +0.000 C 
BRANCH  22  23
ATOM     23  N   UNL     1      10.482  11.472  17.978  0.00  0.00    +0.000 NA
ATOM     24  C   UNL     1      10.553  12.800  17.329  0.00  0.00    +0.000 C 
ATOM     25  C   UNL     1      10.381  13.967  18.314  0.00  0.00    +0.000 C 
ATOM     26  O   UNL     1      11.360  13.910  19.359  0.00  0.00    +0.000 OA
ATOM     27  C   UNL     1      11.310  12.654  20.050  0.00  0.00    +0.000 C 
ATOM     28  C   UNL     1      11.464  11.464  19.086  0.00  0.00    +0.000 C 
ENDBRANCH  22  23
ENDBRANCH  21  22
ENDBRANCH  20  21
ENDBRANCH  19  20
ENDBRANCH  18  19
ENDBRANCH   5  18
TORSDOF 10
ENDMDL
MODEL 2
REMARK VINA RESULT:      -7.7      1.483      1.899
REMARK  Name = 
REMARK  10 active torsions:
REMARK  status: ('A' for Active; 'I' for Inactive)
REMARK    1  A    between atoms: O_1  and  C_2
REMARK    2  A    between atoms: N_5  and  C_6
REMARK    3  A    between atoms: C_6  and  C_7
REMARK    4  A    between atoms: C_11  and  O_12
REMARK    5  A    between atoms: O_12  and  C_13
REMARK    6  A    between atoms: C_13  and  C_14
REMARK    7  A    between atoms: C_14  and  C_15
REMARK    8  A    between atoms: C_15  and  C_16
REMARK    9  A    between atoms: C_16  and  N_17
REMARK   10  A    between atoms: C_25  and  O_26
REMARK                            x       y       z     vdW  Elec       q    Type
REMARK                         _______ _______ _______ _____ _____    ______ ____
ROOT
ATOM      1  C   UNL     1       5.111   4.542  17.507  0.00  0.00    +0.000 A 
ATOM      2  C   UNL     1       5.108   3.825  16.307  0.00  0.00    +0.000 A 
ATOM      3  C   UNL     1       6.014   4.157  15.294  0.00  0.00    +0.000 A 
ATOM      4  C   UNL     1       6.895   5.231  15.455  0.00  0.00    +0.000 A 
ATOM      5  C   UNL     1       6.902   5.960  16.644  0.00  0.00    +0.000 A 
ATOM      6  C   UNL     1       6.042   5.576  17.670  0.00  0.00    +0.000 A 
ENDROOT
BRANCH   1   7
ATOM      7  C   UNL     1       4.131   4.260  18.624  0.00  0.00    +0.000 C 
BRANCH   7  11
ATOM      8  C   UNL     1       0.905   3.590  20.349  0.00  0.00    +0.000 C 
ATOM      9  C   UNL     1       1.900   4.654  20.794  0.00  0.00    +0.000 C 
ATOM     10  C   UNL     1       2.275   5.582  19.640  0.00  0.00    +0.000 C 
ATOM     11  N   UNL     1       2.802   4.889  18.455  0.00  0.00    +0.000 NA
ATOM     12  C   UNL     1       1.816   3.892  17.997  0.00  0.00    +0.000 C 
ATOM     13  C   UNL     1       1.378   2.873  19.068  0.00  0.00    +0.000 C 
BRANCH   8  14
ATOM     14  O   UNL     1       0.736   2.634  21.400  0.00  0.00    +0.000 OA
ATOM     15  H   UNL     1       0.528   1.773  20.998  0.00  0.00    +0.000 HD
ENDBRANCH   8  14
BRANCH  13  16
ATOM     16  O   UNL     1       0.344   2.045  18.521  0.00  0.00    +0.000 OA
ATOM     17  H   UNL     1       0.552   1.874  17.588  0.00  0.00    +0.000 HD
ENDBRANCH  13  16
ENDBRANCH   7  11
ENDBRANCH   1   7
BRANCH   5  18
ATOM     18  O   UNL     1       7.754   7.031  16.706  0.00  0.00    +0.000 OA
BRANCH  18  19
ATOM     19  C   UNL     1       7.906   7.611  18.007  0.00  0.00    +0.000 C 
BRANCH  19  20
ATOM     20  C   UNL     1       8.232   9.091  17.894  0.00  0.00    +0.000 C 
BRANCH  20  21
ATOM     21  C   UNL     1       9.106   9.569  19.053  0.00  0.00    +0.000 C 
BRANCH  21  22
ATOM     22  C   UNL     1       9.346  11.082  19.010  0.00  0.00    +0.000 C 
BRANCH  22  23
ATOM     23  N   UNL     1      10.014  11.616  20.207  0.00  0.00    +0.000 NA
ATOM     24  C   UNL     1      11.224  12.411  19.902  0.00  0.00    +0.000 C 
ATOM     25  C   UNL     1      10.912  13.755  19.226  0.00  0.00    +0.000 C 
ATOM     26  O   UNL     1      10.030  14.547  20.031  0.00  0.00    +0.000 OA
ATOM     27  C   UNL     1       8.819  13.836  20.326  0.00  0.00    +0.000 C 
ATOM     28  C   UNL     1       9.101  12.477  20.991  0.00  0.00    +0.000 C 
ENDBRANCH  22  23
ENDBRANCH  21  22
ENDBRANCH  20  21
ENDBRANCH  19  20
ENDBRANCH  18  19
ENDBRANCH   5  18
TORSDOF 10
ENDMDL
MODEL 3
REMARK VINA RESULT:      -7.6      0.716      1.048
REMARK  Name = 
REMARK  10 active torsions:
REMARK  status: ('A' for Active; 'I' for Inactive)
REMARK    1  A    between atoms: O_1  and  C_2
REMARK    2  A    between atoms: N_5  and  C_6
REMARK    3  A    between atoms: C_6  and  C_7
REMARK    4  A    between atoms: C_11  and  O_12
REMARK    5  A    between atoms: O_12  and  C_13
REMARK    6  A    between atoms: C_13  and  C_14
REMARK    7  A    between atoms: C_14  and  C_15
REMARK    8  A    between atoms: C_15  and  C_16
REMARK    9  A    between atoms: C_16  and  N_17
REMARK   10  A    between atoms: C_25  and  O_26
REMARK                            x       y       z     vdW  Elec       q    Type
REMARK                         _______ _______ _______ _____ _____    ______ ____
ROOT
ATOM      1  C   UNL     1       4.688   4.676  16.994  0.00  0.00    +0.000 A 
ATOM      2  C   UNL     1       4.810   3.967  15.794  0.00  0.00    +0.000 A 
ATOM      3  C   UNL     1       5.924   4.172  14.974  0.00  0.00    +0.000 A 
ATOM      4  C   UNL     1       6.897   5.115  15.323  0.00  0.00    +0.000 A 
ATOM      5  C   UNL     1       6.782   5.835  16.511  0.00  0.00    +0.000 A 
ATOM      6  C   UNL     1       5.703   5.571  17.352  0.00  0.00    +0.000 A 
ENDROOT
BRANCH   1   7
ATOM      7  C   UNL     1       3.488   4.530  17.904  0.00  0.00    +0.000 C 
BRANCH   7  11
ATOM      8  C   UNL     1       2.461   2.655  20.947  0.00  0.00    +0.000 C 
ATOM      9  C   UNL     1       1.493   3.429  20.060  0.00  0.00    +0.000 C 
ATOM     10  C   UNL     1       1.629   3.016  18.596  0.00  0.00    +0.000 C 
ATOM     11  N   UNL     1       2.992   3.144  18.057  0.00  0.00    +0.000 NA
ATOM     12  C   UNL     1       3.921   2.356  18.890  0.00  0.00    +0.000 C 
ATOM     13  C   UNL     1       3.898   2.702  20.392  0.00  0.00    +0.000 C 
BRANCH   8  14
ATOM     14  O   UNL     1       2.437   3.210  22.266  0.00  0.00    +0.000 OA
ATOM     15  H   UNL     1       1.537   3.109  22.622  0.00  0.00    +0.000 HD
ENDBRANCH   8  14
BRANCH  13  16
ATOM     16  O   UNL     1       4.757   1.791  21.088  0.00  0.00    +0.000 OA
ATOM     17  H   UNL     1       4.865   2.109  22.000  0.00  0.00    +0.000 HD
ENDBRANCH  13  16
ENDBRANCH   7  11
ENDBRANCH   1   7
BRANCH   5  18
ATOM     18  O   UNL     1       7.745   6.778  16.757  0.00  0.00    +0.000 OA
BRANCH  18  19
ATOM     19  C   UNL     1       7.289   7.943  17.456  0.00  0.00    +0.000 C 
BRANCH  19  20
ATOM     20  C   UNL     1       8.409   8.526  18.302  0.00  0.00    +0.000 C 
BRANCH  20  21
ATOM     21  C   UNL     1       8.411  10.054  18.261  0.00  0.00    +0.000 C 
BRANCH  21  22
ATOM     22  C   UNL     1       9.832  10.628  18.228  0.00  0.00    +0.000 C 
BRANCH  22  23
ATOM     23  N   UNL     1      10.189  11.409  19.422  0.00  0.00    +0.000 NA
ATOM     24  C   UNL     1      11.611  11.820  19.454  0.00  0.00    +0.000 C 
ATOM     25  C   UNL     1      11.958  12.885  18.402  0.00  0.00    +0.000 C 
ATOM     26  O   UNL     1      11.137  14.050  18.554  0.00  0.00    +0.000 OA
ATOM     27  C   UNL     1       9.744  13.714  18.493  0.00  0.00    +0.000 C 
ATOM     28  C   UNL     1       9.369  12.636  19.526  0.00  0.00    +0.000 C 
ENDBRANCH  22  23
ENDBRANCH  21  22
ENDBRANCH  20  21
ENDBRANCH  19  20
ENDBRANCH  18  19
ENDBRANCH   5  18
TORSDOF 10
ENDMDL
MODEL 4
REMARK VINA RESULT:      -7.6      1.330      1.684
REMARK  Name = 
REMARK  10 active torsions:
REMARK  status: ('A' for Active; 'I' for Inactive)
REMARK    1  A    between atoms: O_1  and  C_2
REMARK    2  A    between atoms: N_5  and  C_6
REMARK    3  A    between atoms: C_6  and  C_7
REMARK    4  A    between atoms: C_11  and  O_12
REMARK    5  A    between atoms: O_12  and  C_13
REMARK    6  A    between atoms: C_13  and  C_14
REMARK    7  A    between atoms: C_14  and  C_15
REMARK    8  A    between atoms: C_15  and  C_16
REMARK    9  A    between atoms: C_16  and  N_17
REMARK   10  A    between atoms: C_25  and  O_26
REMARK                            x       y       z     vdW  Elec       q    Type
REMARK                         _______ _______ _______ _____ _____    ______ ____
ROOT
ATOM      1  C   UNL     1       5.172   4.647  17.435  0.00  0.00    +0.000 A 
ATOM      2  C   UNL     1       5.783   3.964  16.379  0.00  0.00    +0.000 A 
ATOM      3  C   UNL     1       6.788   4.588  15.634  0.00  0.00    +0.000 A 
ATOM      4  C   UNL     1       7.157   5.909  15.908  0.00  0.00    +0.000 A 
ATOM      5  C   UNL     1       6.550   6.605  16.953  0.00  0.00    +0.000 A 
ATOM      6  C   UNL     1       5.599   5.949  17.731  0.00  0.00    +0.000 A 
ENDROOT
BRANCH   1   7
ATOM      7  C   UNL     1       4.051   4.043  18.252  0.00  0.00    +0.000 C 
BRANCH   7  11
ATOM      8  C   UNL     1       0.950   3.684  20.273  0.00  0.00    +0.000 C 
ATOM      9  C   UNL     1       2.064   4.671  20.598  0.00  0.00    +0.000 C 
ATOM     10  C   UNL     1       2.409   5.539  19.389  0.00  0.00    +0.000 C 
ATOM     11  N   UNL     1       2.769   4.777  18.182  0.00  0.00    +0.000 NA
ATOM     12  C   UNL     1       1.668   3.856  17.842  0.00  0.00    +0.000 C 
ATOM     13  C   UNL     1       1.246   2.902  18.978  0.00  0.00    +0.000 C 
BRANCH   8  14
ATOM     14  O   UNL     1       0.799   2.769  21.363  0.00  0.00    +0.000 OA
ATOM     15  H   UNL     1       0.830   1.864  21.007  0.00  0.00    +0.000 HD
ENDBRANCH   8  14
BRANCH  13  16
ATOM     16  O   UNL     1       0.104   2.151  18.548  0.00  0.00    +0.000 OA
ATOM     17  H   UNL     1       0.099   2.132  17.577  0.00  0.00    +0.000 HD
ENDBRANCH  13  16
ENDBRANCH   7  11
ENDBRANCH   1   7
BRANCH   5  18
ATOM     18  O   UNL     1       6.925   7.911  17.125  0.00  0.00    +0.000 OA
BRANCH  18  19
ATOM     19  C   UNL     1       8.055   8.110  17.984  0.00  0.00    +0.000 C 
BRANCH  19  20
ATOM     20  C   UNL     1       8.523   9.554  17.919  0.00  0.00    +0.000 C 
BRANCH  20  21
ATOM     21  C   UNL     1       9.177   9.996  19.228  0.00  0.00    +0.000 C 
BRANCH  21  22
ATOM     22  C   UNL     1       9.476  11.499  19.245  0.00  0.00    +0.000 C 
BRANCH  22  23
ATOM     23  N   UNL     1      10.316  11.954  18.127  0.00  0.00    +0.000 NA
ATOM     24  C   UNL     1      10.150  13.390  17.812  0.00  0.00    +0.000 C 
ATOM     25  C   UNL     1      10.727  14.319  18.892  0.00  0.00    +0.000 C 
ATOM     26  O   UNL     1      12.117  14.052  19.115  0.00  0.00    +0.000 OA
ATOM     27  C   UNL     1      12.333  12.677  19.462  0.00  0.00    +0.000 C 
ATOM     28  C   UNL     1      11.751  11.722  18.406  0.00  0.00    +0.000 C 
ENDBRANCH  22  23
ENDBRANCH  21  22
ENDBRANCH  20  21
ENDBRANCH  19  20
ENDBRANCH  18  19
ENDBRANCH   5  18
TORSDOF 10
ENDMDL
MODEL 5
REMARK VINA RESULT:      -7.6      1.338      1.944
REMARK  Name = 
REMARK  10 active torsions:
REMARK  status: ('A' for Active; 'I' for Inactive)
REMARK    1  A    between atoms: O_1  and  C_2
REMARK    2  A    between atoms: N_5  and  C_6
REMARK    3  A    between atoms: C_6  and  C_7
REMARK    4  A    between atoms: C_11  and  O_12
REMARK    5  A    between atoms: O_12  and  C_13
REMARK    6  A    between atoms: C_13  and  C_14
REMARK    7  A    between atoms: C_14  and  C_15
REMARK    8  A    between atoms: C_15  and  C_16
REMARK    9  A    between atoms: C_16  and  N_17
REMARK   10  A    between atoms: C_25  and  O_26
REMARK                            x       y       z     vdW  Elec       q    Type
REMARK                         _______ _______ _______ _____ _____    ______ ____
ROOT
ATOM      1  C   UNL     1       4.740   5.066  17.191  0.00  0.00    +0.000 A 
ATOM      2  C   UNL     1       4.741   4.394  15.965  0.00  0.00    +0.000 A 
ATOM      3  C   UNL     1       5.817   4.550  15.086  0.00  0.00    +0.000 A 
ATOM      4  C   UNL     1       6.874   5.409  15.405  0.00  0.00    +0.000 A 
ATOM      5  C   UNL     1       6.881   6.092  16.620  0.00  0.00    +0.000 A 
ATOM      6  C   UNL     1       5.837   5.875  17.516  0.00  0.00    +0.000 A 
ENDROOT
BRANCH   1   7
ATOM      7  C   UNL     1       3.588   4.972  18.167  0.00  0.00    +0.000 C 
BRANCH   7  11
ATOM      8  C   UNL     1       1.460   2.043  19.019  0.00  0.00    +0.000 C 
ATOM      9  C   UNL     1       2.657   1.977  18.078  0.00  0.00    +0.000 C 
ATOM     10  C   UNL     1       3.909   2.562  18.729  0.00  0.00    +0.000 C 
ATOM     11  N   UNL     1       3.748   3.941  19.216  0.00  0.00    +0.000 NA
ATOM     12  C   UNL     1       2.618   3.993  20.164  0.00  0.00    +0.000 C 
ATOM     13  C   UNL     1       1.283   3.455  19.611  0.00  0.00    +0.000 C 
BRANCH   8  14
ATOM     14  O   UNL     1       0.278   1.670  18.303  0.00  0.00    +0.000 OA
ATOM     15  H   UNL     1      -0.408   1.433  18.951  0.00  0.00    +0.000 HD
ENDBRANCH   8  14
BRANCH  13  16
ATOM     16  O   UNL     1       0.312   3.462  20.665  0.00  0.00    +0.000 OA
ATOM     17  H   UNL     1       0.586   2.815  21.336  0.00  0.00    +0.000 HD
ENDBRANCH  13  16
ENDBRANCH   7  11
ENDBRANCH   1   7
BRANCH   5  18
ATOM     18  O   UNL     1       7.922   6.956  16.837  0.00  0.00    +0.000 OA
BRANCH  18  19
ATOM     19  C   UNL     1       7.818   7.744  18.029  0.00  0.00    +0.000 C 
BRANCH  19  20
ATOM     20  C   UNL     1       8.116   9.204  17.727  0.00  0.00    +0.000 C 
BRANCH  20  21
ATOM     21  C   UNL     1       9.039   9.821  18.778  0.00  0.00    +0.000 C 
BRANCH  21  22
ATOM     22  C   UNL     1       9.166  11.340  18.613  0.00  0.00    +0.000 C 
BRANCH  22  23
ATOM     23  N   UNL     1      10.477  11.877  19.008  0.00  0.00    +0.000 NA
ATOM     24  C   UNL     1      11.430  11.993  17.882  0.00  0.00    +0.000 C 
ATOM     25  C   UNL     1      11.052  13.094  16.879  0.00  0.00    +0.000 C 
ATOM     26  O   UNL     1      10.945  14.368  17.527  0.00  0.00    +0.000 OA
ATOM     27  C   UNL     1      10.002  14.323  18.607  0.00  0.00    +0.000 C 
ATOM     28  C   UNL     1      10.346  13.217  19.620  0.00  0.00    +0.000 C 
ENDBRANCH  22  23
ENDBRANCH  21  22
ENDBRANCH  20  21
ENDBRANCH  19  20
ENDBRANCH  18  19
ENDBRANCH   5  18
TORSDOF 10
ENDMDL
MODEL 6
REMARK VINA RESULT:      -7.5      0.990      1.362
REMARK  Name = 
REMARK  10 active torsions:
REMARK  status: ('A' for Active; 'I' for Inactive)
REMARK    1  A    between atoms: O_1  and  C_2
REMARK    2  A    between atoms: N_5  and  C_6
REMARK    3  A    between atoms: C_6  and  C_7
REMARK    4  A    between atoms: C_11  and  O_12
REMARK    5  A    between atoms: O_12  and  C_13
REMARK    6  A    between atoms: C_13  and  C_14
REMARK    7  A    between atoms: C_14  and  C_15
REMARK    8  A    between atoms: C_15  and  C_16
REMARK    9  A    between atoms: C_16  and  N_17
REMARK   10  A    between atoms: C_25  and  O_26
REMARK                            x       y       z     vdW  Elec       q    Type
REMARK                         _______ _______ _______ _____ _____    ______ ____
ROOT
ATOM      1  C   UNL     1       5.250   4.583  17.341  0.00  0.00    +0.000 A 
ATOM      2  C   UNL     1       5.361   3.863  16.148  0.00  0.00    +0.000 A 
ATOM      3  C   UNL     1       6.310   4.239  15.193  0.00  0.00    +0.000 A 
ATOM      4  C   UNL     1       7.122   5.358  15.403  0.00  0.00    +0.000 A 
ATOM      5  C   UNL     1       7.016   6.090  16.585  0.00  0.00    +0.000 A 
ATOM      6  C   UNL     1       6.113   5.664  17.557  0.00  0.00    +0.000 A 
ENDROOT
BRANCH   1   7
ATOM      7  C   UNL     1       4.216   4.252  18.395  0.00  0.00    +0.000 C 
BRANCH   7  11
ATOM      8  C   UNL     1       1.385   2.430  19.976  0.00  0.00    +0.000 C 
ATOM      9  C   UNL     1       1.512   2.662  18.475  0.00  0.00    +0.000 C 
ATOM     10  C   UNL     1       2.871   2.198  17.954  0.00  0.00    +0.000 C 
ATOM     11  N   UNL     1       4.021   2.806  18.640  0.00  0.00    +0.000 NA
ATOM     12  C   UNL     1       3.921   2.539  20.087  0.00  0.00    +0.000 C 
ATOM     13  C   UNL     1       2.600   2.993  20.741  0.00  0.00    +0.000 C 
BRANCH   8  14
ATOM     14  O   UNL     1       0.188   3.055  20.449  0.00  0.00    +0.000 OA
ATOM     15  H   UNL     1      -0.263   2.434  21.047  0.00  0.00    +0.000 HD
ENDBRANCH   8  14
BRANCH  13  16
ATOM     16  O   UNL     1       2.595   2.572  22.111  0.00  0.00    +0.000 OA
ATOM     17  H   UNL     1       3.408   2.068  22.277  0.00  0.00    +0.000 HD
ENDBRANCH  13  16
ENDBRANCH   7  11
ENDBRANCH   1   7
BRANCH   5  18
ATOM     18  O   UNL     1       7.806   7.204  16.695  0.00  0.00    +0.000 OA
BRANCH  18  19
ATOM     19  C   UNL     1       7.321   8.205  17.599  0.00  0.00    +0.000 C 
BRANCH  19  20
ATOM     20  C   UNL     1       8.482   8.932  18.257  0.00  0.00    +0.000 C 
BRANCH  20  21
ATOM     21  C   UNL     1       8.619  10.364  17.741  0.00  0.00    +0.000 C 
BRANCH  21  22
ATOM     22  C   UNL     1       9.143  11.318  18.819  0.00  0.00    +0.000 C 
BRANCH  22  23
ATOM     23  N   UNL     1       9.829  12.505  18.285  0.00  0.00    +0.000 NA
ATOM     24  C   UNL     1      10.028  13.573  19.290  0.00  0.00    +0.000 C 
ATOM     25  C   UNL     1      11.061  13.207  20.367  0.00  0.00    +0.000 C 
ATOM     26  O   UNL     1      12.328  12.883  19.779  0.00  0.00    +0.000 OA
ATOM     27  C   UNL     1      12.200  11.824  18.821  0.00  0.00    +0.000 C 
ATOM     28  C   UNL     1      11.158  12.155  17.738  0.00  0.00    +0.000 C 
ENDBRANCH  22  23
ENDBRANCH  21  22
ENDBRANCH  20  21
ENDBRANCH  19  20
ENDBRANCH  18  19
ENDBRANCH   5  18
TORSDOF 10
ENDMDL
MODEL 7
REMARK VINA RESULT:      -7.4      1.355      1.716
REMARK  Name = 
REMARK  10 active torsions:
REMARK  status: ('A' for Active; 'I' for Inactive)
REMARK    1  A    between atoms: O_1  and  C_2
REMARK    2  A    between atoms: N_5  and  C_6
REMARK    3  A    between atoms: C_6  and  C_7
REMARK    4  A    between atoms: C_11  and  O_12
REMARK    5  A    between atoms: O_12  and  C_13
REMARK    6  A    between atoms: C_13  and  C_14
REMARK    7  A    between atoms: C_14  and  C_15
REMARK    8  A    between atoms: C_15  and  C_16
REMARK    9  A    between atoms: C_16  and  N_17
REMARK   10  A    between atoms: C_25  and  O_26
REMARK                            x       y       z     vdW  Elec       q    Type
REMARK                         _______ _______ _______ _____ _____    ______ ____
ROOT
ATOM      1  C   UNL     1       4.984   5.128  17.879  0.00  0.00    +0.000 A 
ATOM      2  C   UNL     1       4.592   4.650  16.625  0.00  0.00    +0.000 A 
ATOM      3  C   UNL     1       5.328   4.994  15.487  0.00  0.00    +0.000 A 
ATOM      4  C   UNL     1       6.431   5.849  15.587  0.00  0.00    +0.000 A 
ATOM      5  C   UNL     1       6.827   6.339  16.831  0.00  0.00    +0.000 A 
ATOM      6  C   UNL     1       6.127   5.935  17.964  0.00  0.00    +0.000 A 
ENDROOT
BRANCH   1   7
ATOM      7  C   UNL     1       4.207   4.828  19.141  0.00  0.00    +0.000 C 
BRANCH   7  11
ATOM      8  C   UNL     1       1.402   3.185  20.948  0.00  0.00    +0.000 C 
ATOM      9  C   UNL     1       2.044   4.494  21.390  0.00  0.00    +0.000 C 
ATOM     10  C   UNL     1       2.078   5.510  20.249  0.00  0.00    +0.000 C 
ATOM     11  N   UNL     1       2.745   5.027  19.030  0.00  0.00    +0.000 NA
ATOM     12  C   UNL     1       2.090   3.785  18.578  0.00  0.00    +0.000 C 
ATOM     13  C   UNL     1       2.021   2.665  19.636  0.00  0.00    +0.000 C 
BRANCH   8  14
ATOM     14  O   UNL     1       1.569   2.207  21.979  0.00  0.00    +0.000 OA
ATOM     15  H   UNL     1       0.988   1.452  21.781  0.00  0.00    +0.000 HD
ENDBRANCH   8  14
BRANCH  13  16
ATOM     16  O   UNL     1       1.267   1.571  19.100  0.00  0.00    +0.000 OA
ATOM     17  H   UNL     1       1.889   0.883  18.814  0.00  0.00    +0.000 HD
ENDBRANCH  13  16
ENDBRANCH   7  11
ENDBRANCH   1   7
BRANCH   5  18
ATOM     18  O   UNL     1       7.882   7.214  16.842  0.00  0.00    +0.000 OA
BRANCH  18  19
ATOM     19  C   UNL     1       8.081   7.910  18.078  0.00  0.00    +0.000 C 
BRANCH  19  20
ATOM     20  C   UNL     1       8.157   9.408  17.837  0.00  0.00    +0.000 C 
BRANCH  20  21
ATOM     21  C   UNL     1       9.068  10.098  18.852  0.00  0.00    +0.000 C 
BRANCH  21  22
ATOM     22  C   UNL     1       9.209  11.599  18.573  0.00  0.00    +0.000 C 
BRANCH  22  23
ATOM     23  N   UNL     1      10.461  12.185  19.078  0.00  0.00    +0.000 NA
ATOM     24  C   UNL     1      11.568  12.144  18.097  0.00  0.00    +0.000 C 
ATOM     25  C   UNL     1      11.361  13.096  16.909  0.00  0.00    +0.000 C 
ATOM     26  O   UNL     1      11.187  14.448  17.353  0.00  0.00    +0.000 OA
ATOM     27  C   UNL     1      10.098  14.553  18.281  0.00  0.00    +0.000 C 
ATOM     28  C   UNL     1      10.270  13.598  19.475  0.00  0.00    +0.000 C 
ENDBRANCH  22  23
ENDBRANCH  21  22
ENDBRANCH  20  21
ENDBRANCH  19  20
ENDBRANCH  18  19
ENDBRANCH   5  18
TORSDOF 10
ENDMDL
MODEL 8
REMARK VINA RESULT:      -7.4      1.292      1.601
REMARK  Name = 
REMARK  10 active torsions:
REMARK  status: ('A' for Active; 'I' for Inactive)
REMARK    1  A    between atoms: O_1  and  C_2
REMARK    2  A    between atoms: N_5  and  C_6
REMARK    3  A    between atoms: C_6  and  C_7
REMARK    4  A    between atoms: C_11  and  O_12
REMARK    5  A    between atoms: O_12  and  C_13
REMARK    6  A    between atoms: C_13  and  C_14
REMARK    7  A    between atoms: C_14  and  C_15
REMARK    8  A    between atoms: C_15  and  C_16
REMARK    9  A    between atoms: C_16  and  N_17
REMARK   10  A    between atoms: C_25  and  O_26
REMARK                            x       y       z     vdW  Elec       q    Type
REMARK                         _______ _______ _______ _____ _____    ______ ____
ROOT
ATOM      1  C   UNL     1       5.004   4.108  17.086  0.00  0.00    +0.000 A 
ATOM      2  C   UNL     1       5.153   4.193  15.698  0.00  0.00    +0.000 A 
ATOM      3  C   UNL     1       6.162   4.992  15.153  0.00  0.00    +0.000 A 
ATOM      4  C   UNL     1       6.999   5.743  15.986  0.00  0.00    +0.000 A 
ATOM      5  C   UNL     1       6.855   5.674  17.371  0.00  0.00    +0.000 A 
ATOM      6  C   UNL     1       5.890   4.822  17.903  0.00  0.00    +0.000 A 
ENDROOT
BRANCH   1   7
ATOM      7  C   UNL     1       3.906   3.295  17.736  0.00  0.00    +0.000 C 
BRANCH   7  11
ATOM      8  C   UNL     1       1.838   5.115  20.234  0.00  0.00    +0.000 C 
ATOM      9  C   UNL     1       2.757   5.802  19.232  0.00  0.00    +0.000 C 
ATOM     10  C   UNL     1       2.472   5.336  17.805  0.00  0.00    +0.000 C 
ATOM     11  N   UNL     1       2.551   3.878  17.620  0.00  0.00    +0.000 NA
ATOM     12  C   UNL     1       1.625   3.218  18.559  0.00  0.00    +0.000 C 
ATOM     13  C   UNL     1       1.832   3.586  20.042  0.00  0.00    +0.000 C 
BRANCH   8  14
ATOM     14  O   UNL     1       2.269   5.431  21.562  0.00  0.00    +0.000 OA
ATOM     15  H   UNL     1       2.040   6.359  21.743  0.00  0.00    +0.000 HD
ENDBRANCH   8  14
BRANCH  13  16
ATOM     16  O   UNL     1       0.801   2.965  20.819  0.00  0.00    +0.000 OA
ATOM     17  H   UNL     1       0.619   3.528  21.589  0.00  0.00    +0.000 HD
ENDBRANCH  13  16
ENDBRANCH   7  11
ENDBRANCH   1   7
BRANCH   5  18
ATOM     18  O   UNL     1       7.675   6.479  18.117  0.00  0.00    +0.000 OA
BRANCH  18  19
ATOM     19  C   UNL     1       7.823   7.817  17.626  0.00  0.00    +0.000 C 
BRANCH  19  20
ATOM     20  C   UNL     1       8.651   8.648  18.592  0.00  0.00    +0.000 C 
BRANCH  20  21
ATOM     21  C   UNL     1       8.597  10.136  18.247  0.00  0.00    +0.000 C 
BRANCH  21  22
ATOM     22  C   UNL     1       9.350  10.993  19.271  0.00  0.00    +0.000 C 
BRANCH  22  23
ATOM     23  N   UNL     1      10.769  11.207  18.943  0.00  0.00    +0.000 NA
ATOM     24  C   UNL     1      10.976  11.930  17.669  0.00  0.00    +0.000 C 
ATOM     25  C   UNL     1      10.558  13.407  17.735  0.00  0.00    +0.000 C 
ATOM     26  O   UNL     1      11.258  14.097  18.778  0.00  0.00    +0.000 OA
ATOM     27  C   UNL     1      11.060  13.458  20.047  0.00  0.00    +0.000 C 
ATOM     28  C   UNL     1      11.456  11.972  20.007  0.00  0.00    +0.000 C 
ENDBRANCH  22  23
ENDBRANCH  21  22
ENDBRANCH  20  21
ENDBRANCH  19  20
ENDBRANCH  18  19
ENDBRANCH   5  18
TORSDOF 10
ENDMDL
MODEL 9
REMARK VINA RESULT:      -7.3      1.358      1.882
REMARK  Name = 
REMARK  10 active torsions:
REMARK  status: ('A' for Active; 'I' for Inactive)
REMARK    1  A    between atoms: O_1  and  C_2
REMARK    2  A    between atoms: N_5  and  C_6
REMARK    3  A    between atoms: C_6  and  C_7
REMARK    4  A    between atoms: C_11  and  O_12
REMARK    5  A    between atoms: O_12  and  C_13
REMARK    6  A    between atoms: C_13  and  C_14
REMARK    7  A    between atoms: C_14  and  C_15
REMARK    8  A    between atoms: C_15  and  C_16
REMARK    9  A    between atoms: C_16  and  N_17
REMARK   10  A    between atoms: C_25  and  O_26
REMARK                            x       y       z     vdW  Elec       q    Type
REMARK                         _______ _______ _______ _____ _____    ______ ____
ROOT
ATOM      1  C   UNL     1       5.135   3.957  16.695  0.00  0.00    +0.000 A 
ATOM      2  C   UNL     1       5.250   3.435  15.403  0.00  0.00    +0.000 A 
ATOM      3  C   UNL     1       6.225   3.936  14.534  0.00  0.00    +0.000 A 
ATOM      4  C   UNL     1       7.058   4.987  14.933  0.00  0.00    +0.000 A 
ATOM      5  C   UNL     1       6.947   5.522  16.216  0.00  0.00    +0.000 A 
ATOM      6  C   UNL     1       6.018   4.969  17.094  0.00  0.00    +0.000 A 
ENDROOT
BRANCH   1   7
ATOM      7  C   UNL     1       4.075   3.488  17.668  0.00  0.00    +0.000 C 
BRANCH   7  11
ATOM      8  C   UNL     1       1.933   5.140  20.220  0.00  0.00    +0.000 C 
ATOM      9  C   UNL     1       2.959   5.877  19.368  0.00  0.00    +0.000 C 
ATOM     10  C   UNL     1       2.754   5.594  17.881  0.00  0.00    +0.000 C 
ATOM     11  N   UNL     1       2.766   4.165  17.531  0.00  0.00    +0.000 NA
ATOM     12  C   UNL     1       1.739   3.461  18.323  0.00  0.00    +0.000 C 
ATOM     13  C   UNL     1       1.858   3.645  19.850  0.00  0.00    +0.000 C 
BRANCH   8  14
ATOM     14  O   UNL     1       2.283   5.276  21.601  0.00  0.00    +0.000 OA
ATOM     15  H   UNL     1       1.622   4.798  22.131  0.00  0.00    +0.000 HD
ENDBRANCH   8  14
BRANCH  13  16
ATOM     16  O   UNL     1       0.741   3.006  20.479  0.00  0.00    +0.000 OA
ATOM     17  H   UNL     1      -0.029   3.091  19.892  0.00  0.00    +0.000 HD
ENDBRANCH  13  16
ENDBRANCH   7  11
ENDBRANCH   1   7
BRANCH   5  18
ATOM     18  O   UNL     1       7.759   6.584  16.514  0.00  0.00    +0.000 OA
BRANCH  18  19
ATOM     19  C   UNL     1       7.235   7.495  17.488  0.00  0.00    +0.000 C 
BRANCH  19  20
ATOM     20  C   UNL     1       8.357   8.307  18.112  0.00  0.00    +0.000 C 
BRANCH  20  21
ATOM     21  C   UNL     1       8.153   9.808  17.901  0.00  0.00    +0.000 C 
BRANCH  21  22
ATOM     22  C   UNL     1       9.400  10.617  18.274  0.00  0.00    +0.000 C 
BRANCH  22  23
ATOM     23  N   UNL     1       9.109  11.980  18.747  0.00  0.00    +0.000 NA
ATOM     24  C   UNL     1       9.267  12.142  20.209  0.00  0.00    +0.000 C 
ATOM     25  C   UNL     1      10.731  12.074  20.672  0.00  0.00    +0.000 C 
ATOM     26  O   UNL     1      11.530  13.061  20.008  0.00  0.00    +0.000 OA
ATOM     27  C   UNL     1      11.444  12.925  18.582  0.00  0.00    +0.000 C 
ATOM     28  C   UNL     1       9.987  12.974  18.090  0.00  0.00    +0.000 C 
ENDBRANCH  22  23
ENDBRANCH  21  22
ENDBRANCH  20  21
ENDBRANCH  19  20
ENDBRANCH  18  19
ENDBRANCH   5  18
TORSDOF 10
ENDMDL
