MODEL 1
REMARK VINA RESULT:      -9.3      0.000      0.000
REMARK  Name = 
REMARK  6 active torsions:
REMARK  status: ('A' for Active; 'I' for Inactive)
REMARK    1  A    between atoms: C_1  and  C_2
REMARK    2  A    between atoms: C_5  and  C_6
REMARK    3  A    between atoms: C_9  and  C_10
REMARK    4  A    between atoms: C_10  and  C_11
REMARK    5  A    between atoms: C_11  and  N_12
REMARK    6  A    between atoms: C_14  and  C_15
REMARK                            x       y       z     vdW  Elec       q    Type
REMARK                         _______ _______ _______ _____ _____    ______ ____
ROOT
ATOM      1  N   UNL     1       4.896   5.100  18.111  0.00  0.00    +0.000 N 
ATOM      2  N   UNL     1       4.133   6.232  18.076  0.00  0.00    +0.000 NA
ATOM      3  C   UNL     1       3.120   6.320  18.879  0.00  0.00    +0.000 A 
ATOM      4  C   UNL     1       2.721   5.262  19.827  0.00  0.00    +0.000 A 
ATOM      5  C   UNL     1       3.494   4.174  19.865  0.00  0.00    +0.000 A 
ATOM      6  C   UNL     1       4.685   4.057  18.995  0.00  0.00    +0.000 A 
ATOM      7  O   UNL     1       5.423   3.084  19.126  0.00  0.00    +0.000 OA
ENDROOT
BRANCH   3   8
ATOM      8  C   UNL     1       2.396   7.618  18.929  0.00  0.00    +0.000 A 
ATOM      9  C   UNL     1       2.177   8.433  17.799  0.00  0.00    +0.000 A 
ATOM     10  C   UNL     1       1.354   9.564  17.896  0.00  0.00    +0.000 A 
ATOM     11  C   UNL     1       0.765   9.828  19.115  0.00  0.00    +0.000 A 
ATOM     12  C   UNL     1       1.019   9.059  20.225  0.00  0.00    +0.000 A 
ATOM     13  C   UNL     1       1.846   7.968  20.172  0.00  0.00    +0.000 A 
ATOM     14  O   UNL     1       0.320   9.467  21.316  0.00  0.00    +0.000 OA
ATOM     15  C   UNL     1      -0.569  10.419  20.701  0.00  0.00    +0.000 C 
ATOM     16  O   UNL     1      -0.140  10.810  19.377  0.00  0.00    +0.000 OA
ENDBRANCH   3   8
BRANCH   1  17
ATOM     17  C   UNL     1       6.164   5.199  17.393  0.00  0.00    +0.000 C 
BRANCH  17  18
ATOM     18  C   UNL     1       7.283   5.599  18.348  0.00  0.00    +0.000 C 
BRANCH  18  22
ATOM     19  C   UNL     1       8.410   8.969  18.239  0.00  0.00    +0.000 A 
ATOM     20  N   UNL     1       7.567   8.992  17.191  0.00  0.00    +0.000 NA
ATOM     21  O   UNL     1       7.068   7.690  17.140  0.00  0.00    +0.000 OA
ATOM     22  C   UNL     1       7.662   7.011  18.159  0.00  0.00    +0.000 A 
ATOM     23  N   UNL     1       8.496   7.740  18.856  0.00  0.00    +0.000 NA
BRANCH  19  28
ATOM     24  C   UNL     1      11.253  13.580  20.238  0.00  0.00    +0.000 C 
ATOM     25  C   UNL     1      10.540  12.374  19.703  0.00  0.00    +0.000 A 
ATOM     26  C   UNL     1      10.516  12.097  18.332  0.00  0.00    +0.000 A 
ATOM     27  C   UNL     1       9.831  10.979  17.846  0.00  0.00    +0.000 A 
ATOM     28  C   UNL     1       9.158  10.122  18.725  0.00  0.00    +0.000 A 
ATOM     29  C   UNL     1       9.196  10.397  20.098  0.00  0.00    +0.000 A 
ATOM     30  C   UNL     1       9.879  11.513  20.584  0.00  0.00    +0.000 A 
ENDBRANCH  19  28
ENDBRANCH  18  22
ENDBRANCH  17  18
ENDBRANCH   1  17
TORSDOF 5
ENDMDL
MODEL 2
REMARK VINA RESULT:      -9.1      3.411      4.407
REMARK  Name = 
REMARK  6 active torsions:
REMARK  status: ('A' for Active; 'I' for Inactive)
REMARK    1  A    between atoms: C_1  and  C_2
REMARK    2  A    between atoms: C_5  and  C_6
REMARK    3  A    between atoms: C_9  and  C_10
REMARK    4  A    between atoms: C_10  and  C_11
REMARK    5  A    between atoms: C_11  and  N_12
REMARK    6  A    between atoms: C_14  and  C_15
REMARK                            x       y       z     vdW  Elec       q    Type
REMARK                         _______ _______ _______ _____ _____    ______ ____
ROOT
ATOM      1  N   UNL     1       6.461   5.808  16.594  0.00  0.00    +0.000 N 
ATOM      2  N   UNL     1       5.376   5.425  17.329  0.00  0.00    +0.000 NA
ATOM      3  C   UNL     1       4.627   4.470  16.874  0.00  0.00    +0.000 A 
ATOM      4  C   UNL     1       4.861   3.774  15.593  0.00  0.00    +0.000 A 
ATOM      5  C   UNL     1       5.942   4.145  14.902  0.00  0.00    +0.000 A 
ATOM      6  C   UNL     1       6.844   5.200  15.412  0.00  0.00    +0.000 A 
ATOM      7  O   UNL     1       7.877   5.448  14.794  0.00  0.00    +0.000 OA
ENDROOT
BRANCH   3   8
ATOM      8  C   UNL     1       3.542   3.968  17.758  0.00  0.00    +0.000 A 
ATOM      9  C   UNL     1       2.638   2.952  17.385  0.00  0.00    +0.000 A 
ATOM     10  C   UNL     1       1.743   2.426  18.326  0.00  0.00    +0.000 A 
ATOM     11  C   UNL     1       1.797   2.923  19.612  0.00  0.00    +0.000 A 
ATOM     12  C   UNL     1       2.645   3.947  19.959  0.00  0.00    +0.000 A 
ATOM     13  C   UNL     1       3.508   4.506  19.055  0.00  0.00    +0.000 A 
ATOM     14  O   UNL     1       2.565   4.269  21.277  0.00  0.00    +0.000 OA
ATOM     15  C   UNL     1       1.753   3.179  21.752  0.00  0.00    +0.000 C 
ATOM     16  O   UNL     1       1.087   2.470  20.682  0.00  0.00    +0.000 OA
ENDBRANCH   3   8
BRANCH   1  17
ATOM     17  C   UNL     1       7.398   6.676  17.303  0.00  0.00    +0.000 C 
BRANCH  17  18
ATOM     18  C   UNL     1       6.818   8.080  17.440  0.00  0.00    +0.000 C 
BRANCH  18  22
ATOM     19  C   UNL     1       9.189  10.617  18.200  0.00  0.00    +0.000 A 
ATOM     20  N   UNL     1       9.540   9.712  19.130  0.00  0.00    +0.000 NA
ATOM     21  O   UNL     1       8.648   8.660  18.921  0.00  0.00    +0.000 OA
ATOM     22  C   UNL     1       7.845   9.037  17.887  0.00  0.00    +0.000 A 
ATOM     23  N   UNL     1       8.126  10.225  17.415  0.00  0.00    +0.000 NA
BRANCH  19  28
ATOM     24  C   UNL     1      11.957  15.632  17.474  0.00  0.00    +0.000 C 
ATOM     25  C   UNL     1      11.218  14.339  17.641  0.00  0.00    +0.000 A 
ATOM     26  C   UNL     1       9.838  14.319  17.871  0.00  0.00    +0.000 A 
ATOM     27  C   UNL     1       9.164  13.105  18.045  0.00  0.00    +0.000 A 
ATOM     28  C   UNL     1       9.863  11.893  17.990  0.00  0.00    +0.000 A 
ATOM     29  C   UNL     1      11.243  11.918  17.746  0.00  0.00    +0.000 A 
ATOM     30  C   UNL     1      11.915  13.129  17.574  0.00  0.00    +0.000 A 
ENDBRANCH  19  28
ENDBRANCH  18  22
ENDBRANCH  17  18
ENDBRANCH   1  17
TORSDOF 5
ENDMDL
MODEL 3
REMARK VINA RESULT:      -9.0      0.895      1.346
REMARK  Name = 
REMARK  6 active torsions:
REMARK  status: ('A' for Active; 'I' for Inactive)
REMARK    1  A    between atoms: C_1  and  C_2
REMARK    2  A    between atoms: C_5  and  C_6
REMARK    3  A    between atoms: C_9  and  C_10
REMARK    4  A    between atoms: C_10  and  C_11
REMARK    5  A    between atoms: C_11  and  N_12
REMARK    6  A    between atoms: C_14  and  C_15
REMARK                            x       y       z     vdW  Elec       q    Type
REMARK                         _______ _______ _______ _____ _____    ______ ____
ROOT
ATOM      1  N   UNL     1       4.412   4.955  18.107  0.00  0.00    +0.000 N 
ATOM      2  N   UNL     1       3.768   6.156  18.013  0.00  0.00    +0.000 NA
ATOM      3  C   UNL     1       2.867   6.446  18.898  0.00  0.00    +0.000 A 
ATOM      4  C   UNL     1       2.473   5.548  20.001  0.00  0.00    +0.000 A 
ATOM      5  C   UNL     1       3.131   4.390  20.092  0.00  0.00    +0.000 A 
ATOM      6  C   UNL     1       4.197   4.045  19.126  0.00  0.00    +0.000 A 
ATOM      7  O   UNL     1       4.843   3.014  19.297  0.00  0.00    +0.000 OA
ENDROOT
BRANCH   3   8
ATOM      8  C   UNL     1       2.289   7.815  18.865  0.00  0.00    +0.000 A 
ATOM      9  C   UNL     1       2.320   8.648  17.727  0.00  0.00    +0.000 A 
ATOM     10  C   UNL     1       1.620   9.863  17.725  0.00  0.00    +0.000 A 
ATOM     11  C   UNL     1       0.899  10.191  18.854  0.00  0.00    +0.000 A 
ATOM     12  C   UNL     1       0.911   9.401  19.978  0.00  0.00    +0.000 A 
ATOM     13  C   UNL     1       1.612   8.225  20.025  0.00  0.00    +0.000 A 
ATOM     14  O   UNL     1       0.114   9.885  20.967  0.00  0.00    +0.000 OA
ATOM     15  C   UNL     1      -0.571  10.927  20.248  0.00  0.00    +0.000 C 
ATOM     16  O   UNL     1       0.079  11.267  19.001  0.00  0.00    +0.000 OA
ENDBRANCH   3   8
BRANCH   1  17
ATOM     17  C   UNL     1       5.593   4.831  17.257  0.00  0.00    +0.000 C 
BRANCH  17  18
ATOM     18  C   UNL     1       5.856   6.142  16.523  0.00  0.00    +0.000 C 
BRANCH  18  22
ATOM     19  C   UNL     1       8.007   8.491  18.105  0.00  0.00    +0.000 A 
ATOM     20  N   UNL     1       8.463   7.363  18.678  0.00  0.00    +0.000 NA
ATOM     21  O   UNL     1       7.665   6.363  18.123  0.00  0.00    +0.000 OA
ATOM     22  C   UNL     1       6.805   6.986  17.272  0.00  0.00    +0.000 A 
ATOM     23  N   UNL     1       6.963   8.285  17.229  0.00  0.00    +0.000 NA
BRANCH  19  28
ATOM     24  C   UNL     1      10.217  13.767  18.889  0.00  0.00    +0.000 C 
ATOM     25  C   UNL     1       9.636  12.396  18.717  0.00  0.00    +0.000 A 
ATOM     26  C   UNL     1      10.052  11.327  19.519  0.00  0.00    +0.000 A 
ATOM     27  C   UNL     1       9.516  10.048  19.332  0.00  0.00    +0.000 A 
ATOM     28  C   UNL     1       8.556   9.820  18.340  0.00  0.00    +0.000 A 
ATOM     29  C   UNL     1       8.133  10.896  17.547  0.00  0.00    +0.000 A 
ATOM     30  C   UNL     1       8.669  12.172  17.732  0.00  0.00    +0.000 A 
ENDBRANCH  19  28
ENDBRANCH  18  22
ENDBRANCH  17  18
ENDBRANCH   1  17
TORSDOF 5
ENDMDL
MODEL 4
REMARK VINA RESULT:      -9.0      3.420      3.941
REMARK  Name = 
REMARK  6 active torsions:
REMARK  status: ('A' for Active; 'I' for Inactive)
REMARK    1  A    between atoms: C_1  and  C_2
REMARK    2  A    between atoms: C_5  and  C_6
REMARK    3  A    between atoms: C_9  and  C_10
REMARK    4  A    between atoms: C_10  and  C_11
REMARK    5  A    between atoms: C_11  and  N_12
REMARK    6  A    between atoms: C_14  and  C_15
REMARK                            x       y       z     vdW  Elec       q    Type
REMARK                         _______ _______ _______ _____ _____    ______ ____
ROOT
ATOM      1  N   UNL     1       6.704   4.933  17.062  0.00  0.00    +0.000 N 
ATOM      2  N   UNL     1       5.582   4.732  17.813  0.00  0.00    +0.000 NA
ATOM      3  C   UNL     1       4.478   4.428  17.206  0.00  0.00    +0.000 A 
ATOM      4  C   UNL     1       4.347   4.300  15.741  0.00  0.00    +0.000 A 
ATOM      5  C   UNL     1       5.461   4.475  15.026  0.00  0.00    +0.000 A 
ATOM      6  C   UNL     1       6.749   4.780  15.688  0.00  0.00    +0.000 A 
ATOM      7  O   UNL     1       7.768   4.841  15.005  0.00  0.00    +0.000 OA
ENDROOT
BRANCH   3   8
ATOM      8  C   UNL     1       3.308   4.067  18.049  0.00  0.00    +0.000 A 
ATOM      9  C   UNL     1       2.116   3.514  17.536  0.00  0.00    +0.000 A 
ATOM     10  C   UNL     1       1.119   3.057  18.409  0.00  0.00    +0.000 A 
ATOM     11  C   UNL     1       1.358   3.153  19.764  0.00  0.00    +0.000 A 
ATOM     12  C   UNL     1       2.499   3.736  20.260  0.00  0.00    +0.000 A 
ATOM     13  C   UNL     1       3.477   4.224  19.435  0.00  0.00    +0.000 A 
ATOM     14  O   UNL     1       2.556   3.705  21.618  0.00  0.00    +0.000 OA
ATOM     15  C   UNL     1       1.445   2.831  21.894  0.00  0.00    +0.000 C 
ATOM     16  O   UNL     1       0.563   2.672  20.759  0.00  0.00    +0.000 OA
ENDBRANCH   3   8
BRANCH   1  17
ATOM     17  C   UNL     1       7.946   4.987  17.829  0.00  0.00    +0.000 C 
BRANCH  17  18
ATOM     18  C   UNL     1       7.810   5.971  18.986  0.00  0.00    +0.000 C 
BRANCH  18  22
ATOM     19  C   UNL     1       8.597   9.360  18.252  0.00  0.00    +0.000 A 
ATOM     20  N   UNL     1       7.790   9.097  17.209  0.00  0.00    +0.000 NA
ATOM     21  O   UNL     1       7.426   7.764  17.399  0.00  0.00    +0.000 OA
ATOM     22  C   UNL     1       8.051   7.354  18.537  0.00  0.00    +0.000 A 
ATOM     23  N   UNL     1       8.785   8.285  19.094  0.00  0.00    +0.000 NA
BRANCH  19  28
ATOM     24  C   UNL     1      11.002  14.469  19.458  0.00  0.00    +0.000 C 
ATOM     25  C   UNL     1      10.382  13.148  19.115  0.00  0.00    +0.000 A 
ATOM     26  C   UNL     1       9.355  13.054  18.169  0.00  0.00    +0.000 A 
ATOM     27  C   UNL     1       8.773  11.817  17.873  0.00  0.00    +0.000 A 
ATOM     28  C   UNL     1       9.210  10.655  18.520  0.00  0.00    +0.000 A 
ATOM     29  C   UNL     1      10.247  10.752  19.457  0.00  0.00    +0.000 A 
ATOM     30  C   UNL     1      10.827  11.986  19.754  0.00  0.00    +0.000 A 
ENDBRANCH  19  28
ENDBRANCH  18  22
ENDBRANCH  17  18
ENDBRANCH   1  17
TORSDOF 5
ENDMDL
MODEL 5
REMARK VINA RESULT:      -8.9      0.929      1.695
REMARK  Name = 
REMARK  6 active torsions:
REMARK  status: ('A' for Active; 'I' for Inactive)
REMARK    1  A    between atoms: C_1  and  C_2
REMARK    2  A    between atoms: C_5  and  C_6
REMARK    3  A    between atoms: C_9  and  C_10
REMARK    4  A    between atoms: C_10  and  C_11
REMARK    5  A    between atoms: C_11  and  N_12
REMARK    6  A    between atoms: C_14  and  C_15
REMARK                            x       y       z     vdW  Elec       q    Type
REMARK                         _______ _______ _______ _____ _____    ______ ____
ROOT
ATOM      1  N   UNL     1       5.042   5.375  18.601  0.00  0.00    +0.000 N 
ATOM      2  N   UNL     1       4.264   6.406  19.043  0.00  0.00    +0.000 NA
ATOM      3  C   UNL     1       3.003   6.401  18.743  0.00  0.00    +0.000 A 
ATOM      4  C   UNL     1       2.349   5.354  17.934  0.00  0.00    +0.000 A 
ATOM      5  C   UNL     1       3.122   4.341  17.533  0.00  0.00    +0.000 A 
ATOM      6  C   UNL     1       4.556   4.291  17.894  0.00  0.00    +0.000 A 
ATOM      7  O   UNL     1       5.211   3.298  17.587  0.00  0.00    +0.000 OA
ENDROOT
BRANCH   3   8
ATOM      8  C   UNL     1       2.147   7.450  19.358  0.00  0.00    +0.000 A 
ATOM      9  C   UNL     1       1.703   7.409  20.696  0.00  0.00    +0.000 A 
ATOM     10  C   UNL     1       1.030   8.508  21.248  0.00  0.00    +0.000 A 
ATOM     11  C   UNL     1       0.843   9.616  20.448  0.00  0.00    +0.000 A 
ATOM     12  C   UNL     1       1.234   9.634  19.131  0.00  0.00    +0.000 A 
ATOM     13  C   UNL     1       1.863   8.563  18.551  0.00  0.00    +0.000 A 
ATOM     14  O   UNL     1       0.987  10.826  18.527  0.00  0.00    +0.000 OA
ATOM     15  C   UNL     1       0.621  11.615  19.674  0.00  0.00    +0.000 C 
ATOM     16  O   UNL     1       0.310  10.808  20.833  0.00  0.00    +0.000 OA
ENDBRANCH   3   8
BRANCH   1  17
ATOM     17  C   UNL     1       6.366   5.309  19.214  0.00  0.00    +0.000 C 
BRANCH  17  18
ATOM     18  C   UNL     1       7.446   5.581  18.172  0.00  0.00    +0.000 C 
BRANCH  18  22
ATOM     19  C   UNL     1       8.349   9.020  18.224  0.00  0.00    +0.000 A 
ATOM     20  N   UNL     1       7.430   9.055  17.244  0.00  0.00    +0.000 NA
ATOM     21  O   UNL     1       7.011   7.729  17.135  0.00  0.00    +0.000 OA
ATOM     22  C   UNL     1       7.721   7.025  18.059  0.00  0.00    +0.000 A 
ATOM     23  N   UNL     1       8.559   7.761  18.745  0.00  0.00    +0.000 NA
BRANCH  19  28
ATOM     24  C   UNL     1      11.276  13.605  20.161  0.00  0.00    +0.000 C 
ATOM     25  C   UNL     1      10.493  12.421  19.678  0.00  0.00    +0.000 A 
ATOM     26  C   UNL     1       9.979  11.478  20.575  0.00  0.00    +0.000 A 
ATOM     27  C   UNL     1       9.267  10.368  20.109  0.00  0.00    +0.000 A 
ATOM     28  C   UNL     1       9.059  10.185  18.736  0.00  0.00    +0.000 A 
ATOM     29  C   UNL     1       9.565  11.139  17.843  0.00  0.00    +0.000 A 
ATOM     30  C   UNL     1      10.277  12.246  18.308  0.00  0.00    +0.000 A 
ENDBRANCH  19  28
ENDBRANCH  18  22
ENDBRANCH  17  18
ENDBRANCH   1  17
TORSDOF 5
ENDMDL
MODEL 6
REMARK VINA RESULT:      -8.9      1.223      1.543
REMARK  Name = 
REMARK  6 active torsions:
REMARK  status: ('A' for Active; 'I' for Inactive)
REMARK    1  A    between atoms: C_1  and  C_2
REMARK    2  A    between atoms: C_5  and  C_6
REMARK    3  A    between atoms: C_9  and  C_10
REMARK    4  A    between atoms: C_10  and  C_11
REMARK    5  A    between atoms: C_11  and  N_12
REMARK    6  A    between atoms: C_14  and  C_15
REMARK                            x       y       z     vdW  Elec       q    Type
REMARK                         _______ _______ _______ _____ _____    ______ ____
ROOT
ATOM      1  N   UNL     1       4.665   5.374  17.671  0.00  0.00    +0.000 N 
ATOM      2  N   UNL     1       4.064   6.549  18.021  0.00  0.00    +0.000 NA
ATOM      3  C   UNL     1       2.782   6.557  18.208  0.00  0.00    +0.000 A 
ATOM      4  C   UNL     1       1.916   5.372  18.048  0.00  0.00    +0.000 A 
ATOM      5  C   UNL     1       2.525   4.227  17.731  0.00  0.00    +0.000 A 
ATOM      6  C   UNL     1       3.993   4.170  17.554  0.00  0.00    +0.000 A 
ATOM      7  O   UNL     1       4.526   3.082  17.355  0.00  0.00    +0.000 OA
ENDROOT
BRANCH   3   8
ATOM      8  C   UNL     1       2.173   7.807  18.733  0.00  0.00    +0.000 A 
ATOM      9  C   UNL     1       1.831   8.909  17.921  0.00  0.00    +0.000 A 
ATOM     10  C   UNL     1       1.120   9.989  18.463  0.00  0.00    +0.000 A 
ATOM     11  C   UNL     1       0.760   9.919  19.793  0.00  0.00    +0.000 A 
ATOM     12  C   UNL     1       1.137   8.866  20.592  0.00  0.00    +0.000 A 
ATOM     13  C   UNL     1       1.861   7.812  20.102  0.00  0.00    +0.000 A 
ATOM     14  O   UNL     1       0.658   8.973  21.860  0.00  0.00    +0.000 OA
ATOM     15  C   UNL     1      -0.248  10.080  21.691  0.00  0.00    +0.000 C 
ATOM     16  O   UNL     1      -0.015  10.812  20.466  0.00  0.00    +0.000 OA
ENDBRANCH   3   8
BRANCH   1  17
ATOM     17  C   UNL     1       6.123   5.387  17.761  0.00  0.00    +0.000 C 
BRANCH  17  18
ATOM     18  C   UNL     1       6.703   6.413  16.793  0.00  0.00    +0.000 C 
BRANCH  18  22
ATOM     19  C   UNL     1       8.467   9.153  18.214  0.00  0.00    +0.000 A 
ATOM     20  N   UNL     1       8.781   8.206  19.115  0.00  0.00    +0.000 NA
ATOM     21  O   UNL     1       8.118   7.071  18.648  0.00  0.00    +0.000 OA
ATOM     22  C   UNL     1       7.468   7.446  17.512  0.00  0.00    +0.000 A 
ATOM     23  N   UNL     1       7.639   8.708  17.206  0.00  0.00    +0.000 NA
BRANCH  19  28
ATOM     24  C   UNL     1      10.400  14.594  18.200  0.00  0.00    +0.000 C 
ATOM     25  C   UNL     1       9.902  13.180  18.235  0.00  0.00    +0.000 A 
ATOM     26  C   UNL     1      10.627  12.172  18.880  0.00  0.00    +0.000 A 
ATOM     27  C   UNL     1      10.159  10.854  18.887  0.00  0.00    +0.000 A 
ATOM     28  C   UNL     1       8.958  10.525  18.248  0.00  0.00    +0.000 A 
ATOM     29  C   UNL     1       8.229  11.540  17.614  0.00  0.00    +0.000 A 
ATOM     30  C   UNL     1       8.696  12.855  17.606  0.00  0.00    +0.000 A 
ENDBRANCH  19  28
ENDBRANCH  18  22
ENDBRANCH  17  18
ENDBRANCH   1  17
TORSDOF 5
ENDMDL
MODEL 7
REMARK VINA RESULT:      -8.9      4.205      8.459
REMARK  Name = 
REMARK  6 active torsions:
REMARK  status: ('A' for Active; 'I' for Inactive)
REMARK    1  A    between atoms: C_1  and  C_2
REMARK    2  A    between atoms: C_5  and  C_6
REMARK    3  A    between atoms: C_9  and  C_10
REMARK    4  A    between atoms: C_10  and  C_11
REMARK    5  A    between atoms: C_11  and  N_12
REMARK    6  A    between atoms: C_14  and  C_15
REMARK                            x       y       z     vdW  Elec       q    Type
REMARK                         _______ _______ _______ _____ _____    ______ ____
ROOT
ATOM      1  N   UNL     1       2.504   5.005  20.592  0.00  0.00    +0.000 N 
ATOM      2  N   UNL     1       3.458   5.388  19.693  0.00  0.00    +0.000 NA
ATOM      3  C   UNL     1       4.272   4.489  19.235  0.00  0.00    +0.000 A 
ATOM      4  C   UNL     1       4.248   3.070  19.638  0.00  0.00    +0.000 A 
ATOM      5  C   UNL     1       3.292   2.709  20.498  0.00  0.00    +0.000 A 
ATOM      6  C   UNL     1       2.317   3.699  21.007  0.00  0.00    +0.000 A 
ATOM      7  O   UNL     1       1.397   3.311  21.722  0.00  0.00    +0.000 OA
ENDROOT
BRANCH   3   8
ATOM      8  C   UNL     1       5.202   4.896  18.149  0.00  0.00    +0.000 A 
ATOM      9  C   UNL     1       6.489   5.426  18.381  0.00  0.00    +0.000 A 
ATOM     10  C   UNL     1       7.365   5.642  17.308  0.00  0.00    +0.000 A 
ATOM     11  C   UNL     1       6.929   5.302  16.044  0.00  0.00    +0.000 A 
ATOM     12  C   UNL     1       5.658   4.832  15.817  0.00  0.00    +0.000 A 
ATOM     13  C   UNL     1       4.766   4.643  16.839  0.00  0.00    +0.000 A 
ATOM     14  O   UNL     1       5.438   4.530  14.510  0.00  0.00    +0.000 OA
ATOM     15  C   UNL     1       6.779   4.638  13.999  0.00  0.00    +0.000 C 
ATOM     16  O   UNL     1       7.667   5.339  14.901  0.00  0.00    +0.000 OA
ENDBRANCH   3   8
BRANCH   1  17
ATOM     17  C   UNL     1       1.463   6.001  20.833  0.00  0.00    +0.000 C 
BRANCH  17  18
ATOM     18  C   UNL     1       1.878   7.350  20.254  0.00  0.00    +0.000 C 
BRANCH  18  22
ATOM     19  C   UNL     1       0.142  10.118  21.656  0.00  0.00    +0.000 A 
ATOM     20  N   UNL     1       0.909   9.790  22.711  0.00  0.00    +0.000 NA
ATOM     21  O   UNL     1       1.637   8.688  22.261  0.00  0.00    +0.000 OA
ATOM     22  C   UNL     1       1.235   8.459  20.981  0.00  0.00    +0.000 A 
ATOM     23  N   UNL     1       0.318   9.295  20.564  0.00  0.00    +0.000 NA
BRANCH  19  28
ATOM     24  C   UNL     1      -3.428  14.649  21.408  0.00  0.00    +0.000 C 
ATOM     25  C   UNL     1      -2.518  13.461  21.496  0.00  0.00    +0.000 A 
ATOM     26  C   UNL     1      -1.967  13.059  22.718  0.00  0.00    +0.000 A 
ATOM     27  C   UNL     1      -1.104  11.960  22.781  0.00  0.00    +0.000 A 
ATOM     28  C   UNL     1      -0.780  11.246  21.621  0.00  0.00    +0.000 A 
ATOM     29  C   UNL     1      -1.344  11.645  20.402  0.00  0.00    +0.000 A 
ATOM     30  C   UNL     1      -2.204  12.742  20.338  0.00  0.00    +0.000 A 
ENDBRANCH  19  28
ENDBRANCH  18  22
ENDBRANCH  17  18
ENDBRANCH   1  17
TORSDOF 5
ENDMDL
MODEL 8
REMARK VINA RESULT:      -8.8      1.056      1.589
REMARK  Name = 
REMARK  6 active torsions:
REMARK  status: ('A' for Active; 'I' for Inactive)
REMARK    1  A    between atoms: C_1  and  C_2
REMARK    2  A    between atoms: C_5  and  C_6
REMARK    3  A    between atoms: C_9  and  C_10
REMARK    4  A    between atoms: C_10  and  C_11
REMARK    5  A    between atoms: C_11  and  N_12
REMARK    6  A    between atoms: C_14  and  C_15
REMARK                            x       y       z     vdW  Elec       q    Type
REMARK                         _______ _______ _______ _____ _____    ______ ____
ROOT
ATOM      1  N   UNL     1       4.714   4.395  18.487  0.00  0.00    +0.000 N 
ATOM      2  N   UNL     1       3.958   5.532  18.498  0.00  0.00    +0.000 NA
ATOM      3  C   UNL     1       3.017   5.640  19.383  0.00  0.00    +0.000 A 
ATOM      4  C   UNL     1       2.694   4.599  20.378  0.00  0.00    +0.000 A 
ATOM      5  C   UNL     1       3.461   3.506  20.368  0.00  0.00    +0.000 A 
ATOM      6  C   UNL     1       4.573   3.367  19.402  0.00  0.00    +0.000 A 
ATOM      7  O   UNL     1       5.314   2.391  19.486  0.00  0.00    +0.000 OA
ENDROOT
BRANCH   3   8
ATOM      8  C   UNL     1       2.307   6.944  19.473  0.00  0.00    +0.000 A 
ATOM      9  C   UNL     1       1.631   7.386  20.629  0.00  0.00    +0.000 A 
ATOM     10  C   UNL     1       1.119   8.689  20.690  0.00  0.00    +0.000 A 
ATOM     11  C   UNL     1       1.318   9.509  19.599  0.00  0.00    +0.000 A 
ATOM     12  C   UNL     1       1.934   9.060  18.456  0.00  0.00    +0.000 A 
ATOM     13  C   UNL     1       2.415   7.782  18.352  0.00  0.00    +0.000 A 
ATOM     14  O   UNL     1       2.058  10.029  17.512  0.00  0.00    +0.000 OA
ATOM     15  C   UNL     1       1.667  11.181  18.284  0.00  0.00    +0.000 C 
ATOM     16  O   UNL     1       0.990  10.827  19.511  0.00  0.00    +0.000 OA
ENDBRANCH   3   8
BRANCH   1  17
ATOM     17  C   UNL     1       5.917   4.474  17.662  0.00  0.00    +0.000 C 
BRANCH  17  18
ATOM     18  C   UNL     1       7.078   5.041  18.472  0.00  0.00    +0.000 C 
BRANCH  18  22
ATOM     19  C   UNL     1       7.919   8.456  17.956  0.00  0.00    +0.000 A 
ATOM     20  N   UNL     1       7.077   8.285  16.922  0.00  0.00    +0.000 NA
ATOM     21  O   UNL     1       6.689   6.949  17.028  0.00  0.00    +0.000 OA
ATOM     22  C   UNL     1       7.337   6.447  18.115  0.00  0.00    +0.000 A 
ATOM     23  N   UNL     1       8.108   7.320  18.713  0.00  0.00    +0.000 NA
BRANCH  19  28
ATOM     24  C   UNL     1      10.433  13.439  19.437  0.00  0.00    +0.000 C 
ATOM     25  C   UNL     1       9.793  12.148  19.024  0.00  0.00    +0.000 A 
ATOM     26  C   UNL     1       9.012  12.066  17.866  0.00  0.00    +0.000 A 
ATOM     27  C   UNL     1       8.404  10.859  17.503  0.00  0.00    +0.000 A 
ATOM     28  C   UNL     1       8.569   9.716  18.295  0.00  0.00    +0.000 A 
ATOM     29  C   UNL     1       9.362   9.801  19.447  0.00  0.00    +0.000 A 
ATOM     30  C   UNL     1       9.967  11.005  19.810  0.00  0.00    +0.000 A 
ENDBRANCH  19  28
ENDBRANCH  18  22
ENDBRANCH  17  18
ENDBRANCH   1  17
TORSDOF 5
ENDMDL
MODEL 9
REMARK VINA RESULT:      -8.7      3.067      4.274
REMARK  Name = 
REMARK  6 active torsions:
REMARK  status: ('A' for Active; 'I' for Inactive)
REMARK    1  A    between atoms: C_1  and  C_2
REMARK    2  A    between atoms: C_5  and  C_6
REMARK    3  A    between atoms: C_9  and  C_10
REMARK    4  A    between atoms: C_10  and  C_11
REMARK    5  A    between atoms: C_11  and  N_12
REMARK    6  A    between atoms: C_14  and  C_15
REMARK                            x       y       z     vdW  Elec       q    Type
REMARK                         _______ _______ _______ _____ _____    ______ ____
ROOT
ATOM      1  N   UNL     1       6.586   6.063  16.459  0.00  0.00    +0.000 N 
ATOM      2  N   UNL     1       5.558   5.947  17.351  0.00  0.00    +0.000 NA
ATOM      3  C   UNL     1       4.763   4.929  17.247  0.00  0.00    +0.000 A 
ATOM      4  C   UNL     1       4.884   3.887  16.210  0.00  0.00    +0.000 A 
ATOM      5  C   UNL     1       5.910   4.004  15.364  0.00  0.00    +0.000 A 
ATOM      6  C   UNL     1       6.865   5.128  15.479  0.00  0.00    +0.000 A 
ATOM      7  O   UNL     1       7.848   5.150  14.743  0.00  0.00    +0.000 OA
ENDROOT
BRANCH   3   8
ATOM      8  C   UNL     1       3.745   4.743  18.316  0.00  0.00    +0.000 A 
ATOM      9  C   UNL     1       2.481   5.369  18.307  0.00  0.00    +0.000 A 
ATOM     10  C   UNL     1       1.519   5.026  19.266  0.00  0.00    +0.000 A 
ATOM     11  C   UNL     1       1.850   4.054  20.189  0.00  0.00    +0.000 A 
ATOM     12  C   UNL     1       3.098   3.482  20.224  0.00  0.00    +0.000 A 
ATOM     13  C   UNL     1       4.072   3.821  19.323  0.00  0.00    +0.000 A 
ATOM     14  O   UNL     1       3.211   2.529  21.186  0.00  0.00    +0.000 OA
ATOM     15  C   UNL     1       1.831   2.409  21.581  0.00  0.00    +0.000 C 
ATOM     16  O   UNL     1       1.020   3.516  21.124  0.00  0.00    +0.000 OA
ENDBRANCH   3   8
BRANCH   1  17
ATOM     17  C   UNL     1       7.588   7.065  16.816  0.00  0.00    +0.000 C 
BRANCH  17  18
ATOM     18  C   UNL     1       6.965   8.150  17.687  0.00  0.00    +0.000 C 
BRANCH  18  22
ATOM     19  C   UNL     1       9.227  10.838  18.234  0.00  0.00    +0.000 A 
ATOM     20  N   UNL     1       9.673   9.989  19.175  0.00  0.00    +0.000 NA
ATOM     21  O   UNL     1       8.831   8.884  19.050  0.00  0.00    +0.000 OA
ATOM     22  C   UNL     1       7.959   9.177  18.046  0.00  0.00    +0.000 A 
ATOM     23  N   UNL     1       8.149  10.361  17.519  0.00  0.00    +0.000 NA
BRANCH  19  28
ATOM     24  C   UNL     1      11.439  16.032  17.021  0.00  0.00    +0.000 C 
ATOM     25  C   UNL     1      10.891  14.676  17.350  0.00  0.00    +0.000 A 
ATOM     26  C   UNL     1      11.585  13.511  17.000  0.00  0.00    +0.000 A 
ATOM     27  C   UNL     1      11.052  12.252  17.296  0.00  0.00    +0.000 A 
ATOM     28  C   UNL     1       9.817  12.139  17.945  0.00  0.00    +0.000 A 
ATOM     29  C   UNL     1       9.132  13.308  18.303  0.00  0.00    +0.000 A 
ATOM     30  C   UNL     1       9.663  14.565  18.008  0.00  0.00    +0.000 A 
ENDBRANCH  19  28
ENDBRANCH  18  22
ENDBRANCH  17  18
ENDBRANCH   1  17
TORSDOF 5
ENDMDL
