MODEL 1
REMARK VINA RESULT:      -8.0      0.000      0.000
REMARK  Name = 
REMARK  5 active torsions:
REMARK  status: ('A' for Active; 'I' for Inactive)
REMARK    1  A    between atoms: C_1  and  O_2
REMARK    2  A    between atoms: O_2  and  C_3
REMARK    3  A    between atoms: C_7  and  C_8
REMARK    4  A    between atoms: N_17  and  C_18
REMARK    5  A    between atoms: C_18  and  C_19
REMARK                            x       y       z     vdW  Elec       q    Type
REMARK                         _______ _______ _______ _____ _____    ______ ____
ROOT
ATOM      1  C   UNL     1       4.066   3.174  17.530  0.00  0.00    +0.000 A 
ATOM      2  C   UNL     1       2.935   3.291  16.697  0.00  0.00    +0.000 A 
ATOM      3  C   UNL     1       1.736   3.650  17.294  0.00  0.00    +0.000 A 
ATOM      4  C   UNL     1       1.718   3.596  18.663  0.00  0.00    +0.000 A 
ATOM      5  C   UNL     1       2.519   2.645  19.267  0.00  0.00    +0.000 A 
ATOM      6  C   UNL     1       3.823   2.618  18.806  0.00  0.00    +0.000 A 
ATOM      7  C   UNL     1       1.771   2.194  20.509  0.00  0.00    +0.000 C 
ATOM      8  C   UNL     1       2.373   2.679  21.800  0.00  0.00    +0.000 C 
ATOM      9  C   UNL     1       2.595   4.181  21.714  0.00  0.00    +0.000 C 
ATOM     10  N   UNL     1       1.750   4.941  20.776  0.00  0.00    +0.000 NA
ATOM     11  C   UNL     1       0.910   4.273  19.744  0.00  0.00    +0.000 C 
ATOM     12  C   UNL     1       0.418   2.970  20.359  0.00  0.00    +0.000 C 
ENDROOT
BRANCH   1  17
ATOM     13  C   UNL     1       7.037   5.595  17.797  0.00  0.00    +0.000 A 
ATOM     14  C   UNL     1       7.134   6.044  16.475  0.00  0.00    +0.000 A 
ATOM     15  C   UNL     1       6.320   5.498  15.499  0.00  0.00    +0.000 A 
ATOM     16  C   UNL     1       5.403   4.512  15.862  0.00  0.00    +0.000 A 
ATOM     17  C   UNL     1       5.263   4.017  17.192  0.00  0.00    +0.000 A 
ATOM     18  C   UNL     1       6.132   4.570  18.151  0.00  0.00    +0.000 A 
BRANCH  13  20
ATOM     19  C   UNL     1       8.160   7.632  18.317  0.00  0.00    +0.000 C 
ATOM     20  O   UNL     1       7.835   6.294  18.663  0.00  0.00    +0.000 OA
ENDBRANCH  13  20
ENDBRANCH   1  17
BRANCH  10  21
ATOM     21  C   UNL     1       1.876   6.395  20.877  0.00  0.00    +0.000 C 
BRANCH  21  22
ATOM     22  C   UNL     1       2.117   7.055  19.515  0.00  0.00    +0.000 A 
ATOM     23  C   UNL     1       3.169   6.590  18.708  0.00  0.00    +0.000 A 
ATOM     24  C   UNL     1       3.670   7.377  17.664  0.00  0.00    +0.000 A 
ATOM     25  C   UNL     1       3.104   8.621  17.396  0.00  0.00    +0.000 A 
ATOM     26  C   UNL     1       1.997   9.052  18.121  0.00  0.00    +0.000 A 
ATOM     27  C   UNL     1       1.500   8.274  19.176  0.00  0.00    +0.000 A 
ENDBRANCH  21  22
ENDBRANCH  10  21
TORSDOF 4
ENDMDL
MODEL 2
REMARK VINA RESULT:      -7.6      1.108      1.819
REMARK  Name = 
REMARK  5 active torsions:
REMARK  status: ('A' for Active; 'I' for Inactive)
REMARK    1  A    between atoms: C_1  and  O_2
REMARK    2  A    between atoms: O_2  and  C_3
REMARK    3  A    between atoms: C_7  and  C_8
REMARK    4  A    between atoms: N_17  and  C_18
REMARK    5  A    between atoms: C_18  and  C_19
REMARK                            x       y       z     vdW  Elec       q    Type
REMARK                         _______ _______ _______ _____ _____    ______ ____
ROOT
ATOM      1  C   UNL     1       3.868   3.250  17.402  0.00  0.00    +0.000 A 
ATOM      2  C   UNL     1       2.683   3.367  16.647  0.00  0.00    +0.000 A 
ATOM      3  C   UNL     1       1.523   3.705  17.328  0.00  0.00    +0.000 A 
ATOM      4  C   UNL     1       1.597   3.632  18.694  0.00  0.00    +0.000 A 
ATOM      5  C   UNL     1       2.445   2.682  19.230  0.00  0.00    +0.000 A 
ATOM      6  C   UNL     1       3.716   2.674  18.683  0.00  0.00    +0.000 A 
ATOM      7  C   UNL     1       1.786   2.205  20.512  0.00  0.00    +0.000 C 
ATOM      8  C   UNL     1       2.467   2.680  21.768  0.00  0.00    +0.000 C 
ATOM      9  C   UNL     1       2.668   4.185  21.689  0.00  0.00    +0.000 C 
ATOM     10  N   UNL     1       1.756   4.949  20.820  0.00  0.00    +0.000 NA
ATOM     11  C   UNL     1       0.855   4.286  19.836  0.00  0.00    +0.000 C 
ATOM     12  C   UNL     1       0.418   2.969  20.463  0.00  0.00    +0.000 C 
ENDROOT
BRANCH   1  17
ATOM     13  C   UNL     1       6.634   4.942  15.341  0.00  0.00    +0.000 A 
ATOM     14  C   UNL     1       7.559   5.256  16.344  0.00  0.00    +0.000 A 
ATOM     15  C   UNL     1       7.248   5.014  17.669  0.00  0.00    +0.000 A 
ATOM     16  C   UNL     1       6.012   4.447  17.978  0.00  0.00    +0.000 A 
ATOM     17  C   UNL     1       5.032   4.110  16.998  0.00  0.00    +0.000 A 
ATOM     18  C   UNL     1       5.370   4.402  15.663  0.00  0.00    +0.000 A 
BRANCH  13  20
ATOM     19  C   UNL     1       6.757   4.204  13.078  0.00  0.00    +0.000 C 
ATOM     20  O   UNL     1       7.119   5.146  14.077  0.00  0.00    +0.000 OA
ENDBRANCH  13  20
ENDBRANCH   1  17
BRANCH  10  21
ATOM     21  C   UNL     1       1.874   6.403  20.933  0.00  0.00    +0.000 C 
BRANCH  21  22
ATOM     22  C   UNL     1       2.080   7.078  19.572  0.00  0.00    +0.000 A 
ATOM     23  C   UNL     1       3.118   6.631  18.739  0.00  0.00    +0.000 A 
ATOM     24  C   UNL     1       3.589   7.433  17.692  0.00  0.00    +0.000 A 
ATOM     25  C   UNL     1       3.005   8.674  17.448  0.00  0.00    +0.000 A 
ATOM     26  C   UNL     1       1.910   9.088  18.201  0.00  0.00    +0.000 A 
ATOM     27  C   UNL     1       1.444   8.294  19.259  0.00  0.00    +0.000 A 
ENDBRANCH  21  22
ENDBRANCH  10  21
TORSDOF 4
ENDMDL
MODEL 3
REMARK VINA RESULT:      -7.0      3.364      6.084
REMARK  Name = 
REMARK  5 active torsions:
REMARK  status: ('A' for Active; 'I' for Inactive)
REMARK    1  A    between atoms: C_1  and  O_2
REMARK    2  A    between atoms: O_2  and  C_3
REMARK    3  A    between atoms: C_7  and  C_8
REMARK    4  A    between atoms: N_17  and  C_18
REMARK    5  A    between atoms: C_18  and  C_19
REMARK                            x       y       z     vdW  Elec       q    Type
REMARK                         _______ _______ _______ _____ _____    ______ ____
ROOT
ATOM      1  C   UNL     1       6.018   4.732  13.995  0.00  0.00    +0.000 A 
ATOM      2  C   UNL     1       7.310   4.513  14.516  0.00  0.00    +0.000 A 
ATOM      3  C   UNL     1       7.434   4.410  15.894  0.00  0.00    +0.000 A 
ATOM      4  C   UNL     1       6.335   4.793  16.616  0.00  0.00    +0.000 A 
ATOM      5  C   UNL     1       5.543   5.791  16.079  0.00  0.00    +0.000 A 
ATOM      6  C   UNL     1       5.198   5.597  14.753  0.00  0.00    +0.000 A 
ATOM      7  C   UNL     1       5.016   6.589  17.258  0.00  0.00    +0.000 C 
ATOM      8  C   UNL     1       3.552   6.380  17.537  0.00  0.00    +0.000 C 
ATOM      9  C   UNL     1       3.266   4.888  17.613  0.00  0.00    +0.000 C 
ATOM     10  N   UNL     1       4.384   3.998  17.972  0.00  0.00    +0.000 NA
ATOM     11  C   UNL     1       5.798   4.466  17.989  0.00  0.00    +0.000 C 
ATOM     12  C   UNL     1       5.771   5.916  18.454  0.00  0.00    +0.000 C 
ENDROOT
BRANCH   1  17
ATOM     13  C   UNL     1       5.810   1.882  11.427  0.00  0.00    +0.000 A 
ATOM     14  C   UNL     1       4.666   2.252  10.710  0.00  0.00    +0.000 A 
ATOM     15  C   UNL     1       3.924   3.347  11.114  0.00  0.00    +0.000 A 
ATOM     16  C   UNL     1       4.343   4.070  12.230  0.00  0.00    +0.000 A 
ATOM     17  C   UNL     1       5.497   3.735  12.998  0.00  0.00    +0.000 A 
ATOM     18  C   UNL     1       6.208   2.596  12.578  0.00  0.00    +0.000 A 
BRANCH  13  20
ATOM     19  C   UNL     1       6.179  -0.469  11.296  0.00  0.00    +0.000 C 
ATOM     20  O   UNL     1       6.493   0.843  10.853  0.00  0.00    +0.000 OA
ENDBRANCH  13  20
ENDBRANCH   1  17
BRANCH  10  21
ATOM     21  C   UNL     1       4.006   2.606  18.215  0.00  0.00    +0.000 C 
BRANCH  21  22
ATOM     22  C   UNL     1       2.994   2.468  19.358  0.00  0.00    +0.000 A 
ATOM     23  C   UNL     1       1.623   2.429  19.055  0.00  0.00    +0.000 A 
ATOM     24  C   UNL     1       0.666   2.689  20.042  0.00  0.00    +0.000 A 
ATOM     25  C   UNL     1       1.067   2.958  21.348  0.00  0.00    +0.000 A 
ATOM     26  C   UNL     1       2.415   2.902  21.687  0.00  0.00    +0.000 A 
ATOM     27  C   UNL     1       3.379   2.656  20.699  0.00  0.00    +0.000 A 
ENDBRANCH  21  22
ENDBRANCH  10  21
TORSDOF 4
ENDMDL
MODEL 4
REMARK VINA RESULT:      -6.8      5.099      8.415
REMARK  Name = 
REMARK  5 active torsions:
REMARK  status: ('A' for Active; 'I' for Inactive)
REMARK    1  A    between atoms: C_1  and  O_2
REMARK    2  A    between atoms: O_2  and  C_3
REMARK    3  A    between atoms: C_7  and  C_8
REMARK    4  A    between atoms: N_17  and  C_18
REMARK    5  A    between atoms: C_18  and  C_19
REMARK                            x       y       z     vdW  Elec       q    Type
REMARK                         _______ _______ _______ _____ _____    ______ ____
ROOT
ATOM      1  C   UNL     1       0.795  10.533  21.348  0.00  0.00    +0.000 A 
ATOM      2  C   UNL     1       0.216   9.995  22.515  0.00  0.00    +0.000 A 
ATOM      3  C   UNL     1      -0.999  10.522  22.928  0.00  0.00    +0.000 A 
ATOM      4  C   UNL     1      -1.378  11.685  22.311  0.00  0.00    +0.000 A 
ATOM      5  C   UNL     1      -0.372  12.539  21.902  0.00  0.00    +0.000 A 
ATOM      6  C   UNL     1       0.642  11.928  21.185  0.00  0.00    +0.000 A 
ATOM      7  C   UNL     1      -0.919  13.945  22.072  0.00  0.00    +0.000 C 
ATOM      8  C   UNL     1      -1.242  14.641  20.777  0.00  0.00    +0.000 C 
ATOM      9  C   UNL     1      -2.111  13.730  19.924  0.00  0.00    +0.000 C 
ATOM     10  N   UNL     1      -2.914  12.709  20.618  0.00  0.00    +0.000 NA
ATOM     11  C   UNL     1      -2.700  12.369  22.052  0.00  0.00    +0.000 C 
ATOM     12  C   UNL     1      -2.303  13.661  22.752  0.00  0.00    +0.000 C 
ENDROOT
BRANCH   1  17
ATOM     13  C   UNL     1       2.011   7.480  19.359  0.00  0.00    +0.000 A 
ATOM     14  C   UNL     1       2.204   8.046  18.093  0.00  0.00    +0.000 A 
ATOM     15  C   UNL     1       1.852   9.364  17.867  0.00  0.00    +0.000 A 
ATOM     16  C   UNL     1       1.319  10.109  18.918  0.00  0.00    +0.000 A 
ATOM     17  C   UNL     1       1.099   9.582  20.225  0.00  0.00    +0.000 A 
ATOM     18  C   UNL     1       1.437   8.229  20.410  0.00  0.00    +0.000 A 
BRANCH  13  20
ATOM     19  C   UNL     1       3.686   5.899  18.747  0.00  0.00    +0.000 C 
ATOM     20  O   UNL     1       2.495   6.202  19.457  0.00  0.00    +0.000 OA
ENDBRANCH  13  20
ENDBRANCH   1  17
BRANCH  10  21
ATOM     21  C   UNL     1      -3.868  11.996  19.768  0.00  0.00    +0.000 C 
BRANCH  21  22
ATOM     22  C   UNL     1      -3.229  11.499  18.467  0.00  0.00    +0.000 A 
ATOM     23  C   UNL     1      -3.925  11.665  17.258  0.00  0.00    +0.000 A 
ATOM     24  C   UNL     1      -3.584  10.910  16.129  0.00  0.00    +0.000 A 
ATOM     25  C   UNL     1      -2.527  10.007  16.188  0.00  0.00    +0.000 A 
ATOM     26  C   UNL     1      -1.764   9.903  17.347  0.00  0.00    +0.000 A 
ATOM     27  C   UNL     1      -2.109  10.646  18.484  0.00  0.00    +0.000 A 
ENDBRANCH  21  22
ENDBRANCH  10  21
TORSDOF 4
ENDMDL
MODEL 5
REMARK VINA RESULT:      -6.7      9.500     12.439
REMARK  Name = 
REMARK  5 active torsions:
REMARK  status: ('A' for Active; 'I' for Inactive)
REMARK    1  A    between atoms: C_1  and  O_2
REMARK    2  A    between atoms: O_2  and  C_3
REMARK    3  A    between atoms: C_7  and  C_8
REMARK    4  A    between atoms: N_17  and  C_18
REMARK    5  A    between atoms: C_18  and  C_19
REMARK                            x       y       z     vdW  Elec       q    Type
REMARK                         _______ _______ _______ _____ _____    ______ ____
ROOT
ATOM      1  C   UNL     1       8.401  14.566  21.217  0.00  0.00    +0.000 A 
ATOM      2  C   UNL     1       9.493  15.269  21.765  0.00  0.00    +0.000 A 
ATOM      3  C   UNL     1      10.749  15.011  21.238  0.00  0.00    +0.000 A 
ATOM      4  C   UNL     1      10.834  13.912  20.424  0.00  0.00    +0.000 A 
ATOM      5  C   UNL     1       9.984  12.858  20.697  0.00  0.00    +0.000 A 
ATOM      6  C   UNL     1       8.660  13.220  20.872  0.00  0.00    +0.000 A 
ATOM      7  C   UNL     1      10.752  11.596  20.345  0.00  0.00    +0.000 C 
ATOM      8  C   UNL     1      10.266  10.907  19.099  0.00  0.00    +0.000 C 
ATOM      9  C   UNL     1      10.177  11.922  17.969  0.00  0.00    +0.000 C 
ATOM     10  N   UNL     1      11.036  13.115  18.057  0.00  0.00    +0.000 NA
ATOM     11  C   UNL     1      11.757  13.485  19.307  0.00  0.00    +0.000 C 
ATOM     12  C   UNL     1      12.160  12.180  19.980  0.00  0.00    +0.000 C 
ENDROOT
BRANCH   1  17
ATOM     13  C   UNL     1       5.628  15.878  18.904  0.00  0.00    +0.000 A 
ATOM     14  C   UNL     1       5.553  17.215  19.311  0.00  0.00    +0.000 A 
ATOM     15  C   UNL     1       6.312  17.655  20.380  0.00  0.00    +0.000 A 
ATOM     16  C   UNL     1       7.155  16.749  21.025  0.00  0.00    +0.000 A 
ATOM     17  C   UNL     1       7.269  15.377  20.653  0.00  0.00    +0.000 A 
ATOM     18  C   UNL     1       6.456  14.957  19.585  0.00  0.00    +0.000 A 
BRANCH  13  20
ATOM     19  C   UNL     1       3.588  15.092  17.955  0.00  0.00    +0.000 C 
ATOM     20  O   UNL     1       4.896  15.615  17.777  0.00  0.00    +0.000 OA
ENDBRANCH  13  20
ENDBRANCH   1  17
BRANCH  10  21
ATOM     21  C   UNL     1      11.047  13.953  16.858  0.00  0.00    +0.000 C 
BRANCH  21  22
ATOM     22  C   UNL     1      10.785  15.429  17.176  0.00  0.00    +0.000 A 
ATOM     23  C   UNL     1      11.873  16.312  17.263  0.00  0.00    +0.000 A 
ATOM     24  C   UNL     1      11.741  17.546  17.912  0.00  0.00    +0.000 A 
ATOM     25  C   UNL     1      10.513  17.922  18.450  0.00  0.00    +0.000 A 
ATOM     26  C   UNL     1       9.400  17.104  18.284  0.00  0.00    +0.000 A 
ATOM     27  C   UNL     1       9.530  15.861  17.647  0.00  0.00    +0.000 A 
ENDBRANCH  21  22
ENDBRANCH  10  21
TORSDOF 4
ENDMDL
MODEL 6
REMARK VINA RESULT:      -6.7      1.127      1.962
REMARK  Name = 
REMARK  5 active torsions:
REMARK  status: ('A' for Active; 'I' for Inactive)
REMARK    1  A    between atoms: C_1  and  O_2
REMARK    2  A    between atoms: O_2  and  C_3
REMARK    3  A    between atoms: C_7  and  C_8
REMARK    4  A    between atoms: N_17  and  C_18
REMARK    5  A    between atoms: C_18  and  C_19
REMARK                            x       y       z     vdW  Elec       q    Type
REMARK                         _______ _______ _______ _____ _____    ______ ____
ROOT
ATOM      1  C   UNL     1       5.045   4.221  18.179  0.00  0.00    +0.000 A 
ATOM      2  C   UNL     1       4.238   4.374  17.033  0.00  0.00    +0.000 A 
ATOM      3  C   UNL     1       2.864   4.384  17.216  0.00  0.00    +0.000 A 
ATOM      4  C   UNL     1       2.429   3.982  18.451  0.00  0.00    +0.000 A 
ATOM      5  C   UNL     1       3.194   3.042  19.114  0.00  0.00    +0.000 A 
ATOM      6  C   UNL     1       4.547   3.329  19.155  0.00  0.00    +0.000 A 
ATOM      7  C   UNL     1       2.219   2.182  19.897  0.00  0.00    +0.000 C 
ATOM      8  C   UNL     1       2.255   2.409  21.385  0.00  0.00    +0.000 C 
ATOM      9  C   UNL     1       2.142   3.899  21.665  0.00  0.00    +0.000 C 
ATOM     10  N   UNL     1       1.485   4.736  20.646  0.00  0.00    +0.000 NA
ATOM     11  C   UNL     1       1.189   4.233  19.276  0.00  0.00    +0.000 C 
ATOM     12  C   UNL     1       0.842   2.757  19.419  0.00  0.00    +0.000 C 
ENDROOT
BRANCH   1  17
ATOM     13  C   UNL     1       7.395   7.235  17.785  0.00  0.00    +0.000 A 
ATOM     14  C   UNL     1       8.369   6.941  18.746  0.00  0.00    +0.000 A 
ATOM     15  C   UNL     1       8.213   5.843  19.572  0.00  0.00    +0.000 A 
ATOM     16  C   UNL     1       7.084   5.039  19.417  0.00  0.00    +0.000 A 
ATOM     17  C   UNL     1       6.061   5.293  18.457  0.00  0.00    +0.000 A 
ATOM     18  C   UNL     1       6.236   6.438  17.657  0.00  0.00    +0.000 A 
BRANCH  13  20
ATOM     19  C   UNL     1       8.222   9.464  17.613  0.00  0.00    +0.000 C 
ATOM     20  O   UNL     1       7.733   8.291  16.980  0.00  0.00    +0.000 OA
ENDBRANCH  13  20
ENDBRANCH   1  17
BRANCH  10  21
ATOM     21  C   UNL     1       1.236   6.119  21.055  0.00  0.00    +0.000 C 
BRANCH  21  22
ATOM     22  C   UNL     1       1.835   7.132  20.074  0.00  0.00    +0.000 A 
ATOM     23  C   UNL     1       1.187   8.364  19.885  0.00  0.00    +0.000 A 
ATOM     24  C   UNL     1       1.456   9.146  18.755  0.00  0.00    +0.000 A 
ATOM     25  C   UNL     1       2.396   8.721  17.821  0.00  0.00    +0.000 A 
ATOM     26  C   UNL     1       3.119   7.553  18.043  0.00  0.00    +0.000 A 
ATOM     27  C   UNL     1       2.845   6.759  19.166  0.00  0.00    +0.000 A 
ENDBRANCH  21  22
ENDBRANCH  10  21
TORSDOF 4
ENDMDL
MODEL 7
REMARK VINA RESULT:      -6.6      9.676     12.568
REMARK  Name = 
REMARK  5 active torsions:
REMARK  status: ('A' for Active; 'I' for Inactive)
REMARK    1  A    between atoms: C_1  and  O_2
REMARK    2  A    between atoms: O_2  and  C_3
REMARK    3  A    between atoms: C_7  and  C_8
REMARK    4  A    between atoms: N_17  and  C_18
REMARK    5  A    between atoms: C_18  and  C_19
REMARK                            x       y       z     vdW  Elec       q    Type
REMARK                         _______ _______ _______ _____ _____    ______ ____
ROOT
ATOM      1  C   UNL     1       8.351  14.681  20.803  0.00  0.00    +0.000 A 
ATOM      2  C   UNL     1       9.422  15.336  21.444  0.00  0.00    +0.000 A 
ATOM      3  C   UNL     1      10.708  14.982  21.062  0.00  0.00    +0.000 A 
ATOM      4  C   UNL     1      10.806  13.851  20.296  0.00  0.00    +0.000 A 
ATOM      5  C   UNL     1       9.865  12.861  20.508  0.00  0.00    +0.000 A 
ATOM      6  C   UNL     1       8.557  13.310  20.529  0.00  0.00    +0.000 A 
ATOM      7  C   UNL     1      10.583  11.543  20.279  0.00  0.00    +0.000 C 
ATOM      8  C   UNL     1      10.186  10.839  19.009  0.00  0.00    +0.000 C 
ATOM      9  C   UNL     1      10.283  11.814  17.847  0.00  0.00    +0.000 C 
ATOM     10  N   UNL     1      11.203  12.956  17.990  0.00  0.00    +0.000 NA
ATOM     11  C   UNL     1      11.811  13.327  19.298  0.00  0.00    +0.000 C 
ATOM     12  C   UNL     1      12.056  12.025  20.050  0.00  0.00    +0.000 C 
ENDROOT
BRANCH   1  17
ATOM     13  C   UNL     1       5.656  17.319  20.068  0.00  0.00    +0.000 A 
ATOM     14  C   UNL     1       5.034  16.759  18.947  0.00  0.00    +0.000 A 
ATOM     15  C   UNL     1       5.541  15.603  18.382  0.00  0.00    +0.000 A 
ATOM     16  C   UNL     1       6.665  15.010  18.957  0.00  0.00    +0.000 A 
ATOM     17  C   UNL     1       7.339  15.539  20.097  0.00  0.00    +0.000 A 
ATOM     18  C   UNL     1       6.815  16.734  20.624  0.00  0.00    +0.000 A 
BRANCH  13  20
ATOM     19  C   UNL     1       3.605  18.240  20.859  0.00  0.00    +0.000 C 
ATOM     20  O   UNL     1       4.986  18.402  20.572  0.00  0.00    +0.000 OA
ENDBRANCH  13  20
ENDBRANCH   1  17
BRANCH  10  21
ATOM     21  C   UNL     1      11.395  13.746  16.773  0.00  0.00    +0.000 C 
BRANCH  21  22
ATOM     22  C   UNL     1      11.203  15.246  17.018  0.00  0.00    +0.000 A 
ATOM     23  C   UNL     1      12.333  16.056  17.215  0.00  0.00    +0.000 A 
ATOM     24  C   UNL     1      12.212  17.318  17.810  0.00  0.00    +0.000 A 
ATOM     25  C   UNL     1      10.958  17.795  18.182  0.00  0.00    +0.000 A 
ATOM     26  C   UNL     1       9.818  17.049  17.902  0.00  0.00    +0.000 A 
ATOM     27  C   UNL     1       9.935  15.779  17.319  0.00  0.00    +0.000 A 
ENDBRANCH  21  22
ENDBRANCH  10  21
TORSDOF 4
ENDMDL
MODEL 8
REMARK VINA RESULT:      -6.6      2.767      6.699
REMARK  Name = 
REMARK  5 active torsions:
REMARK  status: ('A' for Active; 'I' for Inactive)
REMARK    1  A    between atoms: C_1  and  O_2
REMARK    2  A    between atoms: O_2  and  C_3
REMARK    3  A    between atoms: C_7  and  C_8
REMARK    4  A    between atoms: N_17  and  C_18
REMARK    5  A    between atoms: C_18  and  C_19
REMARK                            x       y       z     vdW  Elec       q    Type
REMARK                         _______ _______ _______ _____ _____    ______ ____
ROOT
ATOM      1  C   UNL     1       3.340   6.241  18.871  0.00  0.00    +0.000 A 
ATOM      2  C   UNL     1       3.106   7.220  17.885  0.00  0.00    +0.000 A 
ATOM      3  C   UNL     1       4.062   7.367  16.891  0.00  0.00    +0.000 A 
ATOM      4  C   UNL     1       5.254   6.731  17.119  0.00  0.00    +0.000 A 
ATOM      5  C   UNL     1       5.657   6.600  18.434  0.00  0.00    +0.000 A 
ATOM      6  C   UNL     1       4.684   6.108  19.285  0.00  0.00    +0.000 A 
ATOM      7  C   UNL     1       7.172   6.702  18.421  0.00  0.00    +0.000 C 
ATOM      8  C   UNL     1       7.879   5.399  18.682  0.00  0.00    +0.000 C 
ATOM      9  C   UNL     1       7.315   4.331  17.759  0.00  0.00    +0.000 C 
ATOM     10  N   UNL     1       6.695   4.777  16.499  0.00  0.00    +0.000 NA
ATOM     11  C   UNL     1       6.364   6.206  16.240  0.00  0.00    +0.000 C 
ATOM     12  C   UNL     1       7.450   7.034  16.915  0.00  0.00    +0.000 C 
ENDROOT
BRANCH   1  17
ATOM     13  C   UNL     1       1.185   3.436  20.370  0.00  0.00    +0.000 A 
ATOM     14  C   UNL     1       0.738   2.795  19.210  0.00  0.00    +0.000 A 
ATOM     15  C   UNL     1       1.046   3.321  17.969  0.00  0.00    +0.000 A 
ATOM     16  C   UNL     1       1.814   4.483  17.902  0.00  0.00    +0.000 A 
ATOM     17  C   UNL     1       2.294   5.177  19.051  0.00  0.00    +0.000 A 
ATOM     18  C   UNL     1       1.932   4.632  20.297  0.00  0.00    +0.000 A 
BRANCH  13  20
ATOM     19  C   UNL     1       1.961   2.124  22.203  0.00  0.00    +0.000 C 
ATOM     20  O   UNL     1       0.886   2.747  21.516  0.00  0.00    +0.000 OA
ENDBRANCH  13  20
ENDBRANCH   1  17
BRANCH  10  21
ATOM     21  C   UNL     1       6.347   3.702  15.571  0.00  0.00    +0.000 C 
BRANCH  21  22
ATOM     22  C   UNL     1       6.467   4.135  14.106  0.00  0.00    +0.000 A 
ATOM     23  C   UNL     1       5.762   3.422  13.123  0.00  0.00    +0.000 A 
ATOM     24  C   UNL     1       6.123   3.518  11.774  0.00  0.00    +0.000 A 
ATOM     25  C   UNL     1       7.170   4.353  11.391  0.00  0.00    +0.000 A 
ATOM     26  C   UNL     1       7.813   5.143  12.339  0.00  0.00    +0.000 A 
ATOM     27  C   UNL     1       7.464   5.039  13.693  0.00  0.00    +0.000 A 
ENDBRANCH  21  22
ENDBRANCH  10  21
TORSDOF 4
ENDMDL
MODEL 9
REMARK VINA RESULT:      -6.5      2.319      5.925
REMARK  Name = 
REMARK  5 active torsions:
REMARK  status: ('A' for Active; 'I' for Inactive)
REMARK    1  A    between atoms: C_1  and  O_2
REMARK    2  A    between atoms: O_2  and  C_3
REMARK    3  A    between atoms: C_7  and  C_8
REMARK    4  A    between atoms: N_17  and  C_18
REMARK    5  A    between atoms: C_18  and  C_19
REMARK                            x       y       z     vdW  Elec       q    Type
REMARK                         _______ _______ _______ _____ _____    ______ ____
ROOT
ATOM      1  C   UNL     1       4.142   7.696  17.278  0.00  0.00    +0.000 A 
ATOM      2  C   UNL     1       4.008   7.048  16.033  0.00  0.00    +0.000 A 
ATOM      3  C   UNL     1       4.642   5.824  15.878  0.00  0.00    +0.000 A 
ATOM      4  C   UNL     1       5.547   5.500  16.855  0.00  0.00    +0.000 A 
ATOM      5  C   UNL     1       6.222   6.543  17.460  0.00  0.00    +0.000 A 
ATOM      6  C   UNL     1       5.412   7.579  17.887  0.00  0.00    +0.000 A 
ATOM      7  C   UNL     1       7.610   6.016  17.779  0.00  0.00    +0.000 C 
ATOM      8  C   UNL     1       7.855   5.773  19.244  0.00  0.00    +0.000 C 
ATOM      9  C   UNL     1       6.721   4.932  19.807  0.00  0.00    +0.000 C 
ATOM     10  N   UNL     1       5.978   4.073  18.868  0.00  0.00    +0.000 NA
ATOM     11  C   UNL     1       6.115   4.207  17.391  0.00  0.00    +0.000 C 
ATOM     12  C   UNL     1       7.563   4.594  17.121  0.00  0.00    +0.000 C 
ENDROOT
BRANCH   1  17
ATOM     13  C   UNL     1       1.089   9.591  18.637  0.00  0.00    +0.000 A 
ATOM     14  C   UNL     1       0.858   8.902  19.832  0.00  0.00    +0.000 A 
ATOM     15  C   UNL     1       1.612   7.785  20.141  0.00  0.00    +0.000 A 
ATOM     16  C   UNL     1       2.604   7.375  19.250  0.00  0.00    +0.000 A 
ATOM     17  C   UNL     1       2.880   8.038  18.019  0.00  0.00    +0.000 A 
ATOM     18  C   UNL     1       2.070   9.150  17.722  0.00  0.00    +0.000 A 
BRANCH  13  20
ATOM     19  C   UNL     1      -1.064  10.609  18.726  0.00  0.00    +0.000 C 
ATOM     20  O   UNL     1       0.335  10.728  18.516  0.00  0.00    +0.000 OA
ENDBRANCH  13  20
ENDBRANCH   1  17
BRANCH  10  21
ATOM     21  C   UNL     1       5.033   3.150  19.496  0.00  0.00    +0.000 C 
BRANCH  21  22
ATOM     22  C   UNL     1       3.607   3.712  19.532  0.00  0.00    +0.000 A 
ATOM     23  C   UNL     1       3.004   3.964  20.775  0.00  0.00    +0.000 A 
ATOM     24  C   UNL     1       1.615   4.103  20.879  0.00  0.00    +0.000 A 
ATOM     25  C   UNL     1       0.819   4.024  19.739  0.00  0.00    +0.000 A 
ATOM     26  C   UNL     1       1.409   3.874  18.488  0.00  0.00    +0.000 A 
ATOM     27  C   UNL     1       2.798   3.721  18.379  0.00  0.00    +0.000 A 
ENDBRANCH  21  22
ENDBRANCH  10  21
TORSDOF 4
ENDMDL
