MODEL 1
REMARK VINA RESULT:      -7.4      0.000      0.000
REMARK  Name = 
REMARK  4 active torsions:
REMARK  status: ('A' for Active; 'I' for Inactive)
REMARK    1  A    between atoms: C_2  and  C_12
REMARK    2  A    between atoms: N_3  and  C_4
REMARK    3  A    between atoms: C_4  and  C_5
REMARK    4  A    between atoms: C_5  and  O_6
REMARK                            x       y       z     vdW  Elec       q    Type
REMARK                         _______ _______ _______ _____ _____    ______ ____
ROOT
ATOM      1  O   UNL     1       3.725   5.062  17.104  0.00  0.00    +0.000 OA
ATOM      2  C   UNL     1       4.818   4.495  17.085  0.00  0.00    +0.000 C 
ATOM      3  N   UNL     1       5.286   3.813  18.182  0.00  0.00    +0.000 N 
ATOM      4  H   UNL     1       6.217   3.408  18.170  0.00  0.00    +0.000 HD
ENDROOT
BRANCH   2   5
ATOM      5  C   UNL     1       5.673   4.579  15.848  0.00  0.00    +0.000 A 
ATOM      6  C   UNL     1       5.262   3.767  14.766  0.00  0.00    +0.000 A 
ATOM      7  C   UNL     1       5.925   3.801  13.534  0.00  0.00    +0.000 A 
ATOM      8  C   UNL     1       7.007   4.649  13.372  0.00  0.00    +0.000 A 
ATOM      9  F   UNL     1       7.629   4.708  12.187  0.00  0.00    +0.000 F 
ATOM     10  C   UNL     1       7.454   5.438  14.421  0.00  0.00    +0.000 A 
ATOM     11  C   UNL     1       6.801   5.397  15.663  0.00  0.00    +0.000 A 
ATOM     12 CL   UNL     1       7.497   6.402  16.891  0.00  0.00    +0.000 Cl
ENDBRANCH   2   5
BRANCH   3  13
ATOM     13  C   UNL     1       4.583   3.799  19.464  0.00  0.00    +0.000 C 
BRANCH  13  14
ATOM     14  C   UNL     1       4.018   2.397  19.817  0.00  0.00    +0.000 C 
ATOM     15  C   UNL     1       2.909   2.471  20.882  0.00  0.00    +0.000 C 
ATOM     16  C   UNL     1       1.605   3.049  20.331  0.00  0.00    +0.000 C 
ATOM     17  C   UNL     1       1.170   2.364  19.033  0.00  0.00    +0.000 C 
ATOM     18  N   UNL     1       2.233   2.315  18.029  0.00  0.00    +0.000 NA
ATOM     19  C   UNL     1       3.440   1.678  18.574  0.00  0.00    +0.000 C 
ATOM     20  H   UNL     1       2.460   3.261  17.718  0.00  0.00    +0.000 HD
BRANCH  14  21
ATOM     21  O   UNL     1       5.096   1.604  20.346  0.00  0.00    +0.000 OA
ATOM     22  H   UNL     1       4.711   0.801  20.737  0.00  0.00    +0.000 HD
ENDBRANCH  14  21
ENDBRANCH  13  14
ENDBRANCH   3  13
TORSDOF 4
ENDMDL
MODEL 2
REMARK VINA RESULT:      -7.3      1.832      2.225
REMARK  Name = 
REMARK  4 active torsions:
REMARK  status: ('A' for Active; 'I' for Inactive)
REMARK    1  A    between atoms: C_2  and  C_12
REMARK    2  A    between atoms: N_3  and  C_4
REMARK    3  A    between atoms: C_4  and  C_5
REMARK    4  A    between atoms: C_5  and  O_6
REMARK                            x       y       z     vdW  Elec       q    Type
REMARK                         _______ _______ _______ _____ _____    ______ ____
ROOT
ATOM      1  O   UNL     1       5.310   3.938  19.231  0.00  0.00    +0.000 OA
ATOM      2  C   UNL     1       4.985   3.582  18.098  0.00  0.00    +0.000 C 
ATOM      3  N   UNL     1       3.922   2.735  17.896  0.00  0.00    +0.000 N 
ATOM      4  H   UNL     1       3.708   2.400  16.961  0.00  0.00    +0.000 HD
ENDROOT
BRANCH   2   5
ATOM      5  C   UNL     1       5.787   4.055  16.915  0.00  0.00    +0.000 A 
ATOM      6  C   UNL     1       5.304   3.649  15.649  0.00  0.00    +0.000 A 
ATOM      7  C   UNL     1       5.913   4.076  14.464  0.00  0.00    +0.000 A 
ATOM      8  C   UNL     1       7.013   4.914  14.532  0.00  0.00    +0.000 A 
ATOM      9  F   UNL     1       7.583   5.350  13.401  0.00  0.00    +0.000 F 
ATOM     10  C   UNL     1       7.529   5.308  15.756  0.00  0.00    +0.000 A 
ATOM     11  C   UNL     1       6.930   4.871  16.949  0.00  0.00    +0.000 A 
ATOM     12 CL   UNL     1       7.710   5.407  18.401  0.00  0.00    +0.000 Cl
ENDBRANCH   2   5
BRANCH   3  13
ATOM     13  C   UNL     1       3.179   2.122  18.995  0.00  0.00    +0.000 C 
BRANCH  13  14
ATOM     14  C   UNL     1       1.736   2.681  19.124  0.00  0.00    +0.000 C 
ATOM     15  C   UNL     1       1.264   2.737  20.588  0.00  0.00    +0.000 C 
ATOM     16  C   UNL     1       1.951   3.849  21.382  0.00  0.00    +0.000 C 
ATOM     17  C   UNL     1       1.892   5.198  20.661  0.00  0.00    +0.000 C 
ATOM     18  N   UNL     1       2.355   5.127  19.276  0.00  0.00    +0.000 NA
ATOM     19  C   UNL     1       1.613   4.103  18.526  0.00  0.00    +0.000 C 
ATOM     20  H   UNL     1       3.352   4.905  19.255  0.00  0.00    +0.000 HD
BRANCH  14  21
ATOM     21  O   UNL     1       0.854   1.802  18.401  0.00  0.00    +0.000 OA
ATOM     22  H   UNL     1       0.506   2.292  17.637  0.00  0.00    +0.000 HD
ENDBRANCH  14  21
ENDBRANCH  13  14
ENDBRANCH   3  13
TORSDOF 4
ENDMDL
MODEL 3
REMARK VINA RESULT:      -7.2      3.976      6.699
REMARK  Name = 
REMARK  4 active torsions:
REMARK  status: ('A' for Active; 'I' for Inactive)
REMARK    1  A    between atoms: C_2  and  C_12
REMARK    2  A    between atoms: N_3  and  C_4
REMARK    3  A    between atoms: C_4  and  C_5
REMARK    4  A    between atoms: C_5  and  O_6
REMARK                            x       y       z     vdW  Elec       q    Type
REMARK                         _______ _______ _______ _____ _____    ______ ____
ROOT
ATOM      1  O   UNL     1       2.604   6.356  17.812  0.00  0.00    +0.000 OA
ATOM      2  C   UNL     1       3.287   5.389  18.149  0.00  0.00    +0.000 C 
ATOM      3  N   UNL     1       4.521   5.160  17.588  0.00  0.00    +0.000 N 
ATOM      4  H   UNL     1       5.042   4.321  17.830  0.00  0.00    +0.000 HD
ENDROOT
BRANCH   2   5
ATOM      5  C   UNL     1       2.748   4.421  19.168  0.00  0.00    +0.000 A 
ATOM      6  C   UNL     1       2.617   4.928  20.482  0.00  0.00    +0.000 A 
ATOM      7  C   UNL     1       2.064   4.157  21.511  0.00  0.00    +0.000 A 
ATOM      8  C   UNL     1       1.636   2.870  21.236  0.00  0.00    +0.000 A 
ATOM      9  F   UNL     1       1.078   2.137  22.209  0.00  0.00    +0.000 F 
ATOM     10  C   UNL     1       1.775   2.332  19.966  0.00  0.00    +0.000 A 
ATOM     11  C   UNL     1       2.342   3.096  18.933  0.00  0.00    +0.000 A 
ATOM     12 CL   UNL     1       2.493   2.278  17.413  0.00  0.00    +0.000 Cl
ENDBRANCH   2   5
BRANCH   3  13
ATOM     13  C   UNL     1       5.057   5.970  16.496  0.00  0.00    +0.000 C 
BRANCH  13  14
ATOM     14  C   UNL     1       6.566   5.704  16.243  0.00  0.00    +0.000 C 
ATOM     15  C   UNL     1       7.453   6.837  16.790  0.00  0.00    +0.000 C 
ATOM     16  C   UNL     1       7.531   6.834  18.317  0.00  0.00    +0.000 C 
ATOM     17  C   UNL     1       7.877   5.452  18.878  0.00  0.00    +0.000 C 
ATOM     18  N   UNL     1       7.016   4.392  18.356  0.00  0.00    +0.000 NA
ATOM     19  C   UNL     1       7.033   4.377  16.887  0.00  0.00    +0.000 C 
ATOM     20  H   UNL     1       6.058   4.532  18.682  0.00  0.00    +0.000 HD
BRANCH  14  21
ATOM     21  O   UNL     1       6.769   5.621  14.821  0.00  0.00    +0.000 OA
ATOM     22  H   UNL     1       6.669   6.515  14.453  0.00  0.00    +0.000 HD
ENDBRANCH  14  21
ENDBRANCH  13  14
ENDBRANCH   3  13
TORSDOF 4
ENDMDL
MODEL 4
REMARK VINA RESULT:      -7.2      2.966      3.649
REMARK  Name = 
REMARK  4 active torsions:
REMARK  status: ('A' for Active; 'I' for Inactive)
REMARK    1  A    between atoms: C_2  and  C_12
REMARK    2  A    between atoms: N_3  and  C_4
REMARK    3  A    between atoms: C_4  and  C_5
REMARK    4  A    between atoms: C_5  and  O_6
REMARK                            x       y       z     vdW  Elec       q    Type
REMARK                         _______ _______ _______ _____ _____    ______ ____
ROOT
ATOM      1  O   UNL     1       5.243   3.664  16.568  0.00  0.00    +0.000 OA
ATOM      2  C   UNL     1       5.366   4.167  17.686  0.00  0.00    +0.000 C 
ATOM      3  N   UNL     1       4.717   3.642  18.777  0.00  0.00    +0.000 N 
ATOM      4  H   UNL     1       4.777   4.108  19.678  0.00  0.00    +0.000 HD
ENDROOT
BRANCH   2   5
ATOM      5  C   UNL     1       6.216   5.399  17.854  0.00  0.00    +0.000 A 
ATOM      6  C   UNL     1       7.191   5.332  18.876  0.00  0.00    +0.000 A 
ATOM      7  C   UNL     1       8.093   6.379  19.094  0.00  0.00    +0.000 A 
ATOM      8  C   UNL     1       8.030   7.504  18.290  0.00  0.00    +0.000 A 
ATOM      9  F   UNL     1       8.909   8.498  18.474  0.00  0.00    +0.000 F 
ATOM     10  C   UNL     1       7.069   7.615  17.298  0.00  0.00    +0.000 A 
ATOM     11  C   UNL     1       6.151   6.572  17.085  0.00  0.00    +0.000 A 
ATOM     12 CL   UNL     1       4.981   6.869  15.842  0.00  0.00    +0.000 Cl
ENDBRANCH   2   5
BRANCH   3  13
ATOM     13  C   UNL     1       3.767   2.536  18.676  0.00  0.00    +0.000 C 
BRANCH  13  14
ATOM     14  C   UNL     1       2.346   3.007  18.260  0.00  0.00    +0.000 C 
ATOM     15  C   UNL     1       1.241   2.283  19.049  0.00  0.00    +0.000 C 
ATOM     16  C   UNL     1       1.158   2.750  20.503  0.00  0.00    +0.000 C 
ATOM     17  C   UNL     1       1.104   4.275  20.620  0.00  0.00    +0.000 C 
ATOM     18  N   UNL     1       2.169   4.944  19.874  0.00  0.00    +0.000 NA
ATOM     19  C   UNL     1       2.161   4.530  18.464  0.00  0.00    +0.000 C 
ATOM     20  H   UNL     1       3.075   4.720  20.287  0.00  0.00    +0.000 HD
BRANCH  14  21
ATOM     21  O   UNL     1       2.171   2.706  16.863  0.00  0.00    +0.000 OA
ATOM     22  H   UNL     1       1.328   2.232  16.764  0.00  0.00    +0.000 HD
ENDBRANCH  14  21
ENDBRANCH  13  14
ENDBRANCH   3  13
TORSDOF 4
ENDMDL
MODEL 5
REMARK VINA RESULT:      -7.2      1.271      1.366
REMARK  Name = 
REMARK  4 active torsions:
REMARK  status: ('A' for Active; 'I' for Inactive)
REMARK    1  A    between atoms: C_2  and  C_12
REMARK    2  A    between atoms: N_3  and  C_4
REMARK    3  A    between atoms: C_4  and  C_5
REMARK    4  A    between atoms: C_5  and  O_6
REMARK                            x       y       z     vdW  Elec       q    Type
REMARK                         _______ _______ _______ _____ _____    ______ ____
ROOT
ATOM      1  O   UNL     1       6.290   4.783  19.463  0.00  0.00    +0.000 OA
ATOM      2  C   UNL     1       5.506   4.707  18.516  0.00  0.00    +0.000 C 
ATOM      3  N   UNL     1       4.158   4.540  18.720  0.00  0.00    +0.000 N 
ATOM      4  H   UNL     1       3.535   4.414  17.927  0.00  0.00    +0.000 HD
ENDROOT
BRANCH   2   5
ATOM      5  C   UNL     1       6.038   4.764  17.108  0.00  0.00    +0.000 A 
ATOM      6  C   UNL     1       5.583   3.743  16.243  0.00  0.00    +0.000 A 
ATOM      7  C   UNL     1       5.944   3.717  14.891  0.00  0.00    +0.000 A 
ATOM      8  C   UNL     1       6.764   4.713  14.391  0.00  0.00    +0.000 A 
ATOM      9  F   UNL     1       7.090   4.711  13.091  0.00  0.00    +0.000 F 
ATOM     10  C   UNL     1       7.251   5.714  15.217  0.00  0.00    +0.000 A 
ATOM     11  C   UNL     1       6.903   5.736  16.578  0.00  0.00    +0.000 A 
ATOM     12 CL   UNL     1       7.621   7.018  17.497  0.00  0.00    +0.000 Cl
ENDBRANCH   2   5
BRANCH   3  13
ATOM     13  C   UNL     1       3.578   4.337  20.046  0.00  0.00    +0.000 C 
BRANCH  13  14
ATOM     14  C   UNL     1       3.162   2.862  20.295  0.00  0.00    +0.000 C 
ATOM     15  C   UNL     1       1.786   2.754  20.976  0.00  0.00    +0.000 C 
ATOM     16  C   UNL     1       0.635   3.100  20.030  0.00  0.00    +0.000 C 
ATOM     17  C   UNL     1       0.730   2.344  18.702  0.00  0.00    +0.000 C 
ATOM     18  N   UNL     1       2.039   2.468  18.065  0.00  0.00    +0.000 NA
ATOM     19  C   UNL     1       3.110   2.048  18.980  0.00  0.00    +0.000 C 
ATOM     20  H   UNL     1       2.196   3.437  17.782  0.00  0.00    +0.000 HD
BRANCH  14  21
ATOM     21  O   UNL     1       4.142   2.266  21.165  0.00  0.00    +0.000 OA
ATOM     22  H   UNL     1       4.199   2.812  21.967  0.00  0.00    +0.000 HD
ENDBRANCH  14  21
ENDBRANCH  13  14
ENDBRANCH   3  13
TORSDOF 4
ENDMDL
MODEL 6
REMARK VINA RESULT:      -6.9      3.906      6.476
REMARK  Name = 
REMARK  4 active torsions:
REMARK  status: ('A' for Active; 'I' for Inactive)
REMARK    1  A    between atoms: C_2  and  C_12
REMARK    2  A    between atoms: N_3  and  C_4
REMARK    3  A    between atoms: C_4  and  C_5
REMARK    4  A    between atoms: C_5  and  O_6
REMARK                            x       y       z     vdW  Elec       q    Type
REMARK                         _______ _______ _______ _____ _____    ______ ____
ROOT
ATOM      1  O   UNL     1       3.342   6.961  17.624  0.00  0.00    +0.000 OA
ATOM      2  C   UNL     1       3.616   5.783  17.853  0.00  0.00    +0.000 C 
ATOM      3  N   UNL     1       4.598   5.131  17.146  0.00  0.00    +0.000 N 
ATOM      4  H   UNL     1       4.766   4.141  17.303  0.00  0.00    +0.000 HD
ENDROOT
BRANCH   2   5
ATOM      5  C   UNL     1       2.839   5.032  18.902  0.00  0.00    +0.000 A 
ATOM      6  C   UNL     1       2.839   3.624  18.769  0.00  0.00    +0.000 A 
ATOM      7  C   UNL     1       2.215   2.802  19.714  0.00  0.00    +0.000 A 
ATOM      8  C   UNL     1       1.585   3.380  20.803  0.00  0.00    +0.000 A 
ATOM      9  F   UNL     1       1.011   2.599  21.727  0.00  0.00    +0.000 F 
ATOM     10  C   UNL     1       1.542   4.758  20.948  0.00  0.00    +0.000 A 
ATOM     11  C   UNL     1       2.154   5.588  19.995  0.00  0.00    +0.000 A 
ATOM     12 CL   UNL     1       1.982   7.288  20.284  0.00  0.00    +0.000 Cl
ENDBRANCH   2   5
BRANCH   3  13
ATOM     13  C   UNL     1       5.302   5.743  16.021  0.00  0.00    +0.000 C 
BRANCH  13  14
ATOM     14  C   UNL     1       6.844   5.595  16.132  0.00  0.00    +0.000 C 
ATOM     15  C   UNL     1       7.497   6.817  16.802  0.00  0.00    +0.000 C 
ATOM     16  C   UNL     1       7.220   6.879  18.305  0.00  0.00    +0.000 C 
ATOM     17  C   UNL     1       7.527   5.553  19.005  0.00  0.00    +0.000 C 
ATOM     18  N   UNL     1       6.888   4.405  18.362  0.00  0.00    +0.000 NA
ATOM     19  C   UNL     1       7.245   4.336  16.938  0.00  0.00    +0.000 C 
ATOM     20  H   UNL     1       5.874   4.477  18.453  0.00  0.00    +0.000 HD
BRANCH  14  21
ATOM     21  O   UNL     1       7.375   5.475  14.800  0.00  0.00    +0.000 OA
ATOM     22  H   UNL     1       8.157   6.050  14.738  0.00  0.00    +0.000 HD
ENDBRANCH  14  21
ENDBRANCH  13  14
ENDBRANCH   3  13
TORSDOF 4
ENDMDL
MODEL 7
REMARK VINA RESULT:      -6.8      2.883      3.477
REMARK  Name = 
REMARK  4 active torsions:
REMARK  status: ('A' for Active; 'I' for Inactive)
REMARK    1  A    between atoms: C_2  and  C_12
REMARK    2  A    between atoms: N_3  and  C_4
REMARK    3  A    between atoms: C_4  and  C_5
REMARK    4  A    between atoms: C_5  and  O_6
REMARK                            x       y       z     vdW  Elec       q    Type
REMARK                         _______ _______ _______ _____ _____    ______ ____
ROOT
ATOM      1  O   UNL     1       4.975   3.459  16.824  0.00  0.00    +0.000 OA
ATOM      2  C   UNL     1       4.706   4.442  17.513  0.00  0.00    +0.000 C 
ATOM      3  N   UNL     1       3.453   4.612  18.052  0.00  0.00    +0.000 N 
ATOM      4  H   UNL     1       3.230   5.461  18.563  0.00  0.00    +0.000 HD
ENDROOT
BRANCH   2   5
ATOM      5  C   UNL     1       5.757   5.495  17.744  0.00  0.00    +0.000 A 
ATOM      6  C   UNL     1       6.611   5.272  18.848  0.00  0.00    +0.000 A 
ATOM      7  C   UNL     1       7.675   6.136  19.134  0.00  0.00    +0.000 A 
ATOM      8  C   UNL     1       7.895   7.231  18.318  0.00  0.00    +0.000 A 
ATOM      9  F   UNL     1       8.929   8.046  18.568  0.00  0.00    +0.000 F 
ATOM     10  C   UNL     1       7.060   7.495  17.243  0.00  0.00    +0.000 A 
ATOM     11  C   UNL     1       5.982   6.639  16.960  0.00  0.00    +0.000 A 
ATOM     12 CL   UNL     1       5.000   7.118  15.616  0.00  0.00    +0.000 Cl
ENDBRANCH   2   5
BRANCH   3  13
ATOM     13  C   UNL     1       2.339   3.711  17.764  0.00  0.00    +0.000 C 
BRANCH  13  14
ATOM     14  C   UNL     1       2.368   2.428  18.639  0.00  0.00    +0.000 C 
ATOM     15  C   UNL     1       3.257   2.598  19.885  0.00  0.00    +0.000 C 
ATOM     16  C   UNL     1       2.624   3.510  20.936  0.00  0.00    +0.000 C 
ATOM     17  C   UNL     1       1.181   3.113  21.256  0.00  0.00    +0.000 C 
ATOM     18  N   UNL     1       0.350   2.969  20.061  0.00  0.00    +0.000 NA
ATOM     19  C   UNL     1       0.952   2.022  19.113  0.00  0.00    +0.000 C 
ATOM     20  H   UNL     1       0.237   3.877  19.607  0.00  0.00    +0.000 HD
BRANCH  14  21
ATOM     21  O   UNL     1       2.910   1.359  17.842  0.00  0.00    +0.000 OA
ATOM     22  H   UNL     1       2.813   1.607  16.907  0.00  0.00    +0.000 HD
ENDBRANCH  14  21
ENDBRANCH  13  14
ENDBRANCH   3  13
TORSDOF 4
ENDMDL
MODEL 8
REMARK VINA RESULT:      -6.8      1.831      2.356
REMARK  Name = 
REMARK  4 active torsions:
REMARK  status: ('A' for Active; 'I' for Inactive)
REMARK    1  A    between atoms: C_2  and  C_12
REMARK    2  A    between atoms: N_3  and  C_4
REMARK    3  A    between atoms: C_4  and  C_5
REMARK    4  A    between atoms: C_5  and  O_6
REMARK                            x       y       z     vdW  Elec       q    Type
REMARK                         _______ _______ _______ _____ _____    ______ ____
ROOT
ATOM      1  O   UNL     1       4.956   5.494  19.501  0.00  0.00    +0.000 OA
ATOM      2  C   UNL     1       4.461   5.185  18.417  0.00  0.00    +0.000 C 
ATOM      3  N   UNL     1       3.116   4.932  18.296  0.00  0.00    +0.000 N 
ATOM      4  H   UNL     1       2.735   4.615  17.408  0.00  0.00    +0.000 HD
ENDROOT
BRANCH   2   5
ATOM      5  C   UNL     1       5.349   5.049  17.209  0.00  0.00    +0.000 A 
ATOM      6  C   UNL     1       4.737   4.495  16.061  0.00  0.00    +0.000 A 
ATOM      7  C   UNL     1       5.429   4.376  14.850  0.00  0.00    +0.000 A 
ATOM      8  C   UNL     1       6.740   4.811  14.775  0.00  0.00    +0.000 A 
ATOM      9  F   UNL     1       7.399   4.728  13.612  0.00  0.00    +0.000 F 
ATOM     10  C   UNL     1       7.380   5.334  15.889  0.00  0.00    +0.000 A 
ATOM     11  C   UNL     1       6.695   5.441  17.110  0.00  0.00    +0.000 A 
ATOM     12 CL   UNL     1       7.633   6.070  18.424  0.00  0.00    +0.000 Cl
ENDBRANCH   2   5
BRANCH   3  13
ATOM     13  C   UNL     1       2.209   4.907  19.442  0.00  0.00    +0.000 C 
BRANCH  13  14
ATOM     14  C   UNL     1       1.722   3.473  19.785  0.00  0.00    +0.000 C 
ATOM     15  C   UNL     1       1.289   2.692  18.531  0.00  0.00    +0.000 C 
ATOM     16  C   UNL     1       2.476   2.269  17.664  0.00  0.00    +0.000 C 
ATOM     17  C   UNL     1       3.569   1.573  18.479  0.00  0.00    +0.000 C 
ATOM     18  N   UNL     1       3.976   2.335  19.658  0.00  0.00    +0.000 NA
ATOM     19  C   UNL     1       2.817   2.650  20.505  0.00  0.00    +0.000 C 
ATOM     20  H   UNL     1       4.430   3.203  19.370  0.00  0.00    +0.000 HD
BRANCH  14  21
ATOM     21  O   UNL     1       0.585   3.587  20.659  0.00  0.00    +0.000 OA
ATOM     22  H   UNL     1       0.362   4.531  20.735  0.00  0.00    +0.000 HD
ENDBRANCH  14  21
ENDBRANCH  13  14
ENDBRANCH   3  13
TORSDOF 4
ENDMDL
MODEL 9
REMARK VINA RESULT:      -6.8      1.481      1.919
REMARK  Name = 
REMARK  4 active torsions:
REMARK  status: ('A' for Active; 'I' for Inactive)
REMARK    1  A    between atoms: C_2  and  C_12
REMARK    2  A    between atoms: N_3  and  C_4
REMARK    3  A    between atoms: C_4  and  C_5
REMARK    4  A    between atoms: C_5  and  O_6
REMARK                            x       y       z     vdW  Elec       q    Type
REMARK                         _______ _______ _______ _____ _____    ______ ____
ROOT
ATOM      1  O   UNL     1       5.425   4.478  18.606  0.00  0.00    +0.000 OA
ATOM      2  C   UNL     1       4.878   4.641  17.516  0.00  0.00    +0.000 C 
ATOM      3  N   UNL     1       3.510   4.721  17.411  0.00  0.00    +0.000 N 
ATOM      4  H   UNL     1       3.072   4.790  16.497  0.00  0.00    +0.000 HD
ENDROOT
BRANCH   2   5
ATOM      5  C   UNL     1       5.719   4.720  16.269  0.00  0.00    +0.000 A 
ATOM      6  C   UNL     1       5.326   3.865  15.214  0.00  0.00    +0.000 A 
ATOM      7  C   UNL     1       5.978   3.888  13.975  0.00  0.00    +0.000 A 
ATOM      8  C   UNL     1       7.029   4.767  13.780  0.00  0.00    +0.000 A 
ATOM      9  F   UNL     1       7.638   4.814  12.588  0.00  0.00    +0.000 F 
ATOM     10  C   UNL     1       7.457   5.599  14.802  0.00  0.00    +0.000 A 
ATOM     11  C   UNL     1       6.816   5.570  16.052  0.00  0.00    +0.000 A 
ATOM     12 CL   UNL     1       7.487   6.632  17.245  0.00  0.00    +0.000 Cl
ENDBRANCH   2   5
BRANCH   3  13
ATOM     13  C   UNL     1       2.616   4.516  18.550  0.00  0.00    +0.000 C 
BRANCH  13  14
ATOM     14  C   UNL     1       2.182   3.033  18.707  0.00  0.00    +0.000 C 
ATOM     15  C   UNL     1       3.118   2.253  19.648  0.00  0.00    +0.000 C 
ATOM     16  C   UNL     1       2.933   2.643  21.114  0.00  0.00    +0.000 C 
ATOM     17  C   UNL     1       1.463   2.615  21.541  0.00  0.00    +0.000 C 
ATOM     18  N   UNL     1       0.592   3.372  20.643  0.00  0.00    +0.000 NA
ATOM     19  C   UNL     1       0.741   2.910  19.255  0.00  0.00    +0.000 C 
ATOM     20  H   UNL     1       0.821   4.366  20.695  0.00  0.00    +0.000 HD
BRANCH  14  21
ATOM     21  O   UNL     1       2.234   2.416  17.408  0.00  0.00    +0.000 OA
ATOM     22  H   UNL     1       2.968   2.821  16.915  0.00  0.00    +0.000 HD
ENDBRANCH  14  21
ENDBRANCH  13  14
ENDBRANCH   3  13
TORSDOF 4
ENDMDL
