MODEL 1
REMARK VINA RESULT:     -10.4      0.000      0.000
REMARK  Name = 
REMARK  7 active torsions:
REMARK  status: ('A' for Active; 'I' for Inactive)
REMARK    1  A    between atoms: C_2  and  C_13
REMARK    2  A    between atoms: N_3  and  C_4
REMARK    3  A    between atoms: C_8  and  N_9
REMARK    4  A    between atoms: C_13  and  C_15
REMARK    5  A    between atoms: C_15  and  C_16
REMARK    6  A    between atoms: C_15  and  C_25
REMARK    7  A    between atoms: C_16  and  C_18
REMARK                            x       y       z     vdW  Elec       q    Type
REMARK                         _______ _______ _______ _____ _____    ______ ____
ROOT
ATOM      1  C   UNL     1       4.512   4.909  18.744  0.00  0.00    +0.000 C 
ENDROOT
BRANCH   1   2
ATOM      2  C   UNL     1       4.250   3.381  18.522  0.00  0.00    +0.000 C 
ATOM      3  O   UNL     1       5.210   2.756  19.446  0.00  0.00    +0.000 OA
ATOM      4  C   UNL     1       4.584   2.183  20.524  0.00  0.00    +0.000 C 
ATOM      5  O   UNL     1       5.169   1.676  21.467  0.00  0.00    +0.000 OA
ATOM      6  C   UNL     1       3.095   2.180  20.329  0.00  0.00    +0.000 C 
ATOM      7  C   UNL     1       2.209   3.091  21.138  0.00  0.00    +0.000 C 
ATOM      8  C   UNL     1       0.981   3.356  20.656  0.00  0.00    +0.000 C 
ATOM      9  C   UNL     1       0.601   2.848  19.352  0.00  0.00    +0.000 C 
ATOM     10  C   UNL     1       1.549   2.588  18.431  0.00  0.00    +0.000 C 
ATOM     11  C   UNL     1       3.005   2.483  18.832  0.00  0.00    +0.000 C 
ENDBRANCH   1   2
BRANCH   1  12
ATOM     12  C   UNL     1       5.961   5.322  18.338  0.00  0.00    +0.000 C 
ATOM     13  O   UNL     1       6.568   6.224  18.915  0.00  0.00    +0.000 OA
BRANCH  12  15
ATOM     14  O   UNL     1       7.801   4.351  17.174  0.00  0.00    +0.000 OA
ATOM     15  C   UNL     1       6.643   4.727  17.077  0.00  0.00    +0.000 C 
ATOM     16  N   UNL     1       5.862   4.723  15.908  0.00  0.00    +0.000 N 
ATOM     17  H   UNL     1       4.876   4.941  16.006  0.00  0.00    +0.000 HD
BRANCH  16  18
ATOM     18  C   UNL     1       6.338   4.521  14.572  0.00  0.00    +0.000 A 
ATOM     19  C   UNL     1       7.398   5.265  14.031  0.00  0.00    +0.000 A 
ATOM     20  C   UNL     1       7.813   5.103  12.703  0.00  0.00    +0.000 A 
ATOM     21  C   UNL     1       7.183   4.172  11.878  0.00  0.00    +0.000 A 
ATOM     22  C   UNL     1       6.127   3.417  12.393  0.00  0.00    +0.000 A 
ATOM     23  C   UNL     1       5.695   3.596  13.728  0.00  0.00    +0.000 A 
BRANCH  22  24
ATOM     24  N   UNL     1       5.475   2.436  11.509  0.00  0.00    +0.000 N 
ATOM     25  O   UNL     1       4.329   2.673  11.112  0.00  0.00    +0.000 OA
ATOM     26  O   UNL     1       6.124   1.422  11.202  0.00  0.00    +0.000 OA
ENDBRANCH  22  24
ENDBRANCH  16  18
ENDBRANCH  12  15
ENDBRANCH   1  12
BRANCH   1  27
ATOM     27  C   UNL     1       3.587   5.909  18.075  0.00  0.00    +0.000 C 
ATOM     28  O   UNL     1       3.611   6.053  16.857  0.00  0.00    +0.000 OA
BRANCH  27  29
ATOM     29  C   UNL     1       2.743   6.868  18.889  0.00  0.00    +0.000 A 
ATOM     30  C   UNL     1       2.304   6.477  20.169  0.00  0.00    +0.000 A 
ATOM     31  C   UNL     1       1.512   7.331  20.953  0.00  0.00    +0.000 A 
ATOM     32  C   UNL     1       1.151   8.589  20.472  0.00  0.00    +0.000 A 
ATOM     33  C   UNL     1       1.583   8.994  19.213  0.00  0.00    +0.000 A 
ATOM     34  C   UNL     1       2.376   8.142  18.433  0.00  0.00    +0.000 A 
ATOM     35  F   UNL     1       2.783   8.600  17.243  0.00  0.00    +0.000 F 
ENDBRANCH  27  29
ENDBRANCH   1  27
TORSDOF 7
ENDMDL
MODEL 2
REMARK VINA RESULT:     -10.2      0.946      1.365
REMARK  Name = 
REMARK  7 active torsions:
REMARK  status: ('A' for Active; 'I' for Inactive)
REMARK    1  A    between atoms: C_2  and  C_13
REMARK    2  A    between atoms: N_3  and  C_4
REMARK    3  A    between atoms: C_8  and  N_9
REMARK    4  A    between atoms: C_13  and  C_15
REMARK    5  A    between atoms: C_15  and  C_16
REMARK    6  A    between atoms: C_15  and  C_25
REMARK    7  A    between atoms: C_16  and  C_18
REMARK                            x       y       z     vdW  Elec       q    Type
REMARK                         _______ _______ _______ _____ _____    ______ ____
ROOT
ATOM      1  C   UNL     1       4.521   4.892  18.750  0.00  0.00    +0.000 C 
ENDROOT
BRANCH   1   2
ATOM      2  C   UNL     1       4.157   3.388  18.512  0.00  0.00    +0.000 C 
ATOM      3  O   UNL     1       5.157   2.685  19.332  0.00  0.00    +0.000 OA
ATOM      4  C   UNL     1       4.596   2.113  20.445  0.00  0.00    +0.000 C 
ATOM      5  O   UNL     1       5.231   1.547  21.320  0.00  0.00    +0.000 OA
ATOM      6  C   UNL     1       3.098   2.194  20.382  0.00  0.00    +0.000 C 
ATOM      7  C   UNL     1       2.336   3.125  21.289  0.00  0.00    +0.000 C 
ATOM      8  C   UNL     1       1.088   3.468  20.923  0.00  0.00    +0.000 C 
ATOM      9  C   UNL     1       0.569   3.022  19.646  0.00  0.00    +0.000 C 
ATOM     10  C   UNL     1       1.418   2.741  18.638  0.00  0.00    +0.000 C 
ATOM     11  C   UNL     1       2.896   2.547  18.907  0.00  0.00    +0.000 C 
ENDBRANCH   1   2
BRANCH   1  12
ATOM     12  C   UNL     1       6.056   5.150  18.642  0.00  0.00    +0.000 C 
ATOM     13  O   UNL     1       6.746   5.407  19.630  0.00  0.00    +0.000 OA
BRANCH  12  15
ATOM     14  O   UNL     1       7.489   6.217  17.064  0.00  0.00    +0.000 OA
ATOM     15  C   UNL     1       6.758   5.259  17.262  0.00  0.00    +0.000 C 
ATOM     16  N   UNL     1       6.439   4.250  16.337  0.00  0.00    +0.000 N 
ATOM     17  H   UNL     1       5.925   3.447  16.683  0.00  0.00    +0.000 HD
BRANCH  16  18
ATOM     18  C   UNL     1       6.698   4.280  14.928  0.00  0.00    +0.000 A 
ATOM     19  C   UNL     1       7.699   5.087  14.365  0.00  0.00    +0.000 A 
ATOM     20  C   UNL     1       7.901   5.157  12.981  0.00  0.00    +0.000 A 
ATOM     21  C   UNL     1       7.110   4.401  12.115  0.00  0.00    +0.000 A 
ATOM     22  C   UNL     1       6.109   3.588  12.651  0.00  0.00    +0.000 A 
ATOM     23  C   UNL     1       5.892   3.534  14.048  0.00  0.00    +0.000 A 
BRANCH  22  24
ATOM     24  N   UNL     1       5.286   2.794  11.724  0.00  0.00    +0.000 N 
ATOM     25  O   UNL     1       5.700   1.682  11.375  0.00  0.00    +0.000 OA
ATOM     26  O   UNL     1       4.207   3.285  11.350  0.00  0.00    +0.000 OA
ENDBRANCH  22  24
ENDBRANCH  16  18
ENDBRANCH  12  15
ENDBRANCH   1  12
BRANCH   1  27
ATOM     27  C   UNL     1       3.857   5.946  17.883  0.00  0.00    +0.000 C 
ATOM     28  O   UNL     1       4.149   6.043  16.697  0.00  0.00    +0.000 OA
BRANCH  27  29
ATOM     29  C   UNL     1       2.956   7.006  18.484  0.00  0.00    +0.000 A 
ATOM     30  C   UNL     1       2.597   8.122  17.703  0.00  0.00    +0.000 A 
ATOM     31  C   UNL     1       1.773   9.132  18.224  0.00  0.00    +0.000 A 
ATOM     32  C   UNL     1       1.290   9.040  19.529  0.00  0.00    +0.000 A 
ATOM     33  C   UNL     1       1.628   7.940  20.310  0.00  0.00    +0.000 A 
ATOM     34  C   UNL     1       2.449   6.930  19.789  0.00  0.00    +0.000 A 
ATOM     35  F   UNL     1       2.715   5.884  20.581  0.00  0.00    +0.000 F 
ENDBRANCH  27  29
ENDBRANCH   1  27
TORSDOF 7
ENDMDL
MODEL 3
REMARK VINA RESULT:      -9.2      1.694      1.942
REMARK  Name = 
REMARK  7 active torsions:
REMARK  status: ('A' for Active; 'I' for Inactive)
REMARK    1  A    between atoms: C_2  and  C_13
REMARK    2  A    between atoms: N_3  and  C_4
REMARK    3  A    between atoms: C_8  and  N_9
REMARK    4  A    between atoms: C_13  and  C_15
REMARK    5  A    between atoms: C_15  and  C_16
REMARK    6  A    between atoms: C_15  and  C_25
REMARK    7  A    between atoms: C_16  and  C_18
REMARK                            x       y       z     vdW  Elec       q    Type
REMARK                         _______ _______ _______ _____ _____    ______ ____
ROOT
ATOM      1  C   UNL     1       4.393   5.026  19.002  0.00  0.00    +0.000 C 
ENDROOT
BRANCH   1   2
ATOM      2  C   UNL     1       3.937   3.580  18.614  0.00  0.00    +0.000 C 
ATOM      3  O   UNL     1       5.007   2.745  19.186  0.00  0.00    +0.000 OA
ATOM      4  C   UNL     1       4.574   2.035  20.276  0.00  0.00    +0.000 C 
ATOM      5  O   UNL     1       5.296   1.337  20.971  0.00  0.00    +0.000 OA
ATOM      6  C   UNL     1       3.086   2.159  20.431  0.00  0.00    +0.000 C 
ATOM      7  C   UNL     1       2.491   2.971  21.552  0.00  0.00    +0.000 C 
ATOM      8  C   UNL     1       1.221   3.392  21.411  0.00  0.00    +0.000 C 
ATOM      9  C   UNL     1       0.519   3.142  20.168  0.00  0.00    +0.000 C 
ATOM     10  C   UNL     1       1.215   2.986  19.024  0.00  0.00    +0.000 C 
ATOM     11  C   UNL     1       2.706   2.722  19.059  0.00  0.00    +0.000 C 
ENDBRANCH   1   2
BRANCH   1  12
ATOM     12  C   UNL     1       5.936   5.215  18.861  0.00  0.00    +0.000 C 
ATOM     13  O   UNL     1       6.646   5.526  19.818  0.00  0.00    +0.000 OA
BRANCH  12  15
ATOM     14  O   UNL     1       7.553   5.953  17.272  0.00  0.00    +0.000 OA
ATOM     15  C   UNL     1       6.626   5.183  17.471  0.00  0.00    +0.000 C 
ATOM     16  N   UNL     1       6.073   4.287  16.539  0.00  0.00    +0.000 N 
ATOM     17  H   UNL     1       5.394   3.617  16.884  0.00  0.00    +0.000 HD
BRANCH  16  18
ATOM     18  C   UNL     1       6.314   4.279  15.127  0.00  0.00    +0.000 A 
ATOM     19  C   UNL     1       5.665   3.389  14.258  0.00  0.00    +0.000 A 
ATOM     20  C   UNL     1       5.955   3.347  12.889  0.00  0.00    +0.000 A 
ATOM     21  C   UNL     1       6.901   4.215  12.344  0.00  0.00    +0.000 A 
ATOM     22  C   UNL     1       7.559   5.114  13.187  0.00  0.00    +0.000 A 
ATOM     23  C   UNL     1       7.280   5.141  14.573  0.00  0.00    +0.000 A 
BRANCH  22  24
ATOM     24  N   UNL     1       8.552   6.026  12.594  0.00  0.00    +0.000 N 
ATOM     25  O   UNL     1       8.260   6.611  11.545  0.00  0.00    +0.000 OA
ATOM     26  O   UNL     1       9.631   6.165  13.193  0.00  0.00    +0.000 OA
ENDBRANCH  22  24
ENDBRANCH  16  18
ENDBRANCH  12  15
ENDBRANCH   1  12
BRANCH   1  27
ATOM     27  C   UNL     1       3.759   6.204  18.286  0.00  0.00    +0.000 C 
ATOM     28  O   UNL     1       4.148   6.529  17.169  0.00  0.00    +0.000 OA
BRANCH  27  29
ATOM     29  C   UNL     1       2.763   7.107  18.984  0.00  0.00    +0.000 A 
ATOM     30  C   UNL     1       2.326   6.771  20.281  0.00  0.00    +0.000 A 
ATOM     31  C   UNL     1       1.396   7.575  20.960  0.00  0.00    +0.000 A 
ATOM     32  C   UNL     1       0.894   8.728  20.357  0.00  0.00    +0.000 A 
ATOM     33  C   UNL     1       1.322   9.078  19.080  0.00  0.00    +0.000 A 
ATOM     34  C   UNL     1       2.252   8.277  18.404  0.00  0.00    +0.000 A 
ATOM     35  F   UNL     1       2.645   8.682  17.190  0.00  0.00    +0.000 F 
ENDBRANCH  27  29
ENDBRANCH   1  27
TORSDOF 7
ENDMDL
MODEL 4
REMARK VINA RESULT:      -8.9      1.857      2.277
REMARK  Name = 
REMARK  7 active torsions:
REMARK  status: ('A' for Active; 'I' for Inactive)
REMARK    1  A    between atoms: C_2  and  C_13
REMARK    2  A    between atoms: N_3  and  C_4
REMARK    3  A    between atoms: C_8  and  N_9
REMARK    4  A    between atoms: C_13  and  C_15
REMARK    5  A    between atoms: C_15  and  C_16
REMARK    6  A    between atoms: C_15  and  C_25
REMARK    7  A    between atoms: C_16  and  C_18
REMARK                            x       y       z     vdW  Elec       q    Type
REMARK                         _______ _______ _______ _____ _____    ______ ____
ROOT
ATOM      1  C   UNL     1       4.299   4.981  18.840  0.00  0.00    +0.000 C 
ENDROOT
BRANCH   1   2
ATOM      2  C   UNL     1       3.865   3.521  18.480  0.00  0.00    +0.000 C 
ATOM      3  O   UNL     1       4.960   2.715  19.046  0.00  0.00    +0.000 OA
ATOM      4  C   UNL     1       4.559   2.013  20.153  0.00  0.00    +0.000 C 
ATOM      5  O   UNL     1       5.305   1.339  20.846  0.00  0.00    +0.000 OA
ATOM      6  C   UNL     1       3.072   2.112  20.332  0.00  0.00    +0.000 C 
ATOM      7  C   UNL     1       2.480   2.929  21.451  0.00  0.00    +0.000 C 
ATOM      8  C   UNL     1       1.200   3.324  21.326  0.00  0.00    +0.000 C 
ATOM      9  C   UNL     1       0.482   3.042  20.099  0.00  0.00    +0.000 C 
ATOM     10  C   UNL     1       1.161   2.883  18.946  0.00  0.00    +0.000 C 
ATOM     11  C   UNL     1       2.658   2.647  18.959  0.00  0.00    +0.000 C 
ENDBRANCH   1   2
BRANCH   1  12
ATOM     12  C   UNL     1       5.845   5.175  18.745  0.00  0.00    +0.000 C 
ATOM     13  O   UNL     1       6.506   5.619  19.685  0.00  0.00    +0.000 OA
BRANCH  12  15
ATOM     14  O   UNL     1       7.737   5.411  17.314  0.00  0.00    +0.000 OA
ATOM     15  C   UNL     1       6.599   4.976  17.403  0.00  0.00    +0.000 C 
ATOM     16  N   UNL     1       5.867   4.345  16.383  0.00  0.00    +0.000 N 
ATOM     17  H   UNL     1       4.984   3.917  16.639  0.00  0.00    +0.000 HD
BRANCH  16  18
ATOM     18  C   UNL     1       6.207   4.314  14.991  0.00  0.00    +0.000 A 
ATOM     19  C   UNL     1       5.634   3.398  14.097  0.00  0.00    +0.000 A 
ATOM     20  C   UNL     1       6.020   3.335  12.752  0.00  0.00    +0.000 A 
ATOM     21  C   UNL     1       6.990   4.207  12.258  0.00  0.00    +0.000 A 
ATOM     22  C   UNL     1       7.574   5.131  13.127  0.00  0.00    +0.000 A 
ATOM     23  C   UNL     1       7.198   5.180  14.490  0.00  0.00    +0.000 A 
BRANCH  22  24
ATOM     24  N   UNL     1       8.593   6.048  12.588  0.00  0.00    +0.000 N 
ATOM     25  O   UNL     1       9.656   6.174  13.206  0.00  0.00    +0.000 OA
ATOM     26  O   UNL     1       8.328   6.639  11.528  0.00  0.00    +0.000 OA
ENDBRANCH  22  24
ENDBRANCH  16  18
ENDBRANCH  12  15
ENDBRANCH   1  12
BRANCH   1  27
ATOM     27  C   UNL     1       3.683   6.133  18.067  0.00  0.00    +0.000 C 
ATOM     28  O   UNL     1       4.027   6.355  16.912  0.00  0.00    +0.000 OA
BRANCH  27  29
ATOM     29  C   UNL     1       2.768   7.134  18.742  0.00  0.00    +0.000 A 
ATOM     30  C   UNL     1       2.368   8.284  18.033  0.00  0.00    +0.000 A 
ATOM     31  C   UNL     1       1.529   9.241  18.624  0.00  0.00    +0.000 A 
ATOM     32  C   UNL     1       1.073   9.063  19.930  0.00  0.00    +0.000 A 
ATOM     33  C   UNL     1       1.452   7.929  20.641  0.00  0.00    +0.000 A 
ATOM     34  C   UNL     1       2.288   6.972  20.049  0.00  0.00    +0.000 A 
ATOM     35  F   UNL     1       2.594   5.890  20.775  0.00  0.00    +0.000 F 
ENDBRANCH  27  29
ENDBRANCH   1  27
TORSDOF 7
ENDMDL
MODEL 5
REMARK VINA RESULT:      -8.9      0.682      1.078
REMARK  Name = 
REMARK  7 active torsions:
REMARK  status: ('A' for Active; 'I' for Inactive)
REMARK    1  A    between atoms: C_2  and  C_13
REMARK    2  A    between atoms: N_3  and  C_4
REMARK    3  A    between atoms: C_8  and  N_9
REMARK    4  A    between atoms: C_13  and  C_15
REMARK    5  A    between atoms: C_15  and  C_16
REMARK    6  A    between atoms: C_15  and  C_25
REMARK    7  A    between atoms: C_16  and  C_18
REMARK                            x       y       z     vdW  Elec       q    Type
REMARK                         _______ _______ _______ _____ _____    ______ ____
ROOT
ATOM      1  C   UNL     1       4.755   4.898  19.041  0.00  0.00    +0.000 C 
ENDROOT
BRANCH   1   2
ATOM      2  C   UNL     1       4.725   3.334  19.107  0.00  0.00    +0.000 C 
ATOM      3  O   UNL     1       4.703   3.077  20.556  0.00  0.00    +0.000 OA
ATOM      4  C   UNL     1       3.485   2.606  20.974  0.00  0.00    +0.000 C 
ATOM      5  O   UNL     1       3.194   2.398  22.141  0.00  0.00    +0.000 OA
ATOM      6  C   UNL     1       2.608   2.293  19.797  0.00  0.00    +0.000 C 
ATOM      7  C   UNL     1       1.418   3.158  19.468  0.00  0.00    +0.000 C 
ATOM      8  C   UNL     1       0.932   3.099  18.215  0.00  0.00    +0.000 C 
ATOM      9  C   UNL     1       1.618   2.299  17.220  0.00  0.00    +0.000 C 
ATOM     10  C   UNL     1       2.936   2.054  17.348  0.00  0.00    +0.000 C 
ATOM     11  C   UNL     1       3.640   2.294  18.668  0.00  0.00    +0.000 C 
ENDBRANCH   1   2
BRANCH   1  12
ATOM     12  C   UNL     1       6.079   5.435  18.413  0.00  0.00    +0.000 C 
ATOM     13  O   UNL     1       6.615   6.471  18.808  0.00  0.00    +0.000 OA
BRANCH  12  15
ATOM     14  O   UNL     1       7.819   4.309  17.235  0.00  0.00    +0.000 OA
ATOM     15  C   UNL     1       6.694   4.777  17.149  0.00  0.00    +0.000 C 
ATOM     16  N   UNL     1       5.900   4.829  15.990  0.00  0.00    +0.000 N 
ATOM     17  H   UNL     1       4.937   5.126  16.099  0.00  0.00    +0.000 HD
BRANCH  16  18
ATOM     18  C   UNL     1       6.341   4.579  14.650  0.00  0.00    +0.000 A 
ATOM     19  C   UNL     1       7.450   5.231  14.089  0.00  0.00    +0.000 A 
ATOM     20  C   UNL     1       7.833   5.026  12.758  0.00  0.00    +0.000 A 
ATOM     21  C   UNL     1       7.120   4.142  11.949  0.00  0.00    +0.000 A 
ATOM     22  C   UNL     1       6.014   3.478  12.484  0.00  0.00    +0.000 A 
ATOM     23  C   UNL     1       5.615   3.701  13.823  0.00  0.00    +0.000 A 
BRANCH  22  24
ATOM     24  N   UNL     1       5.274   2.545  11.617  0.00  0.00    +0.000 N 
ATOM     25  O   UNL     1       5.794   1.456  11.348  0.00  0.00    +0.000 OA
ATOM     26  O   UNL     1       4.156   2.904  11.211  0.00  0.00    +0.000 OA
ENDBRANCH  22  24
ENDBRANCH  16  18
ENDBRANCH  12  15
ENDBRANCH   1  12
BRANCH   1  27
ATOM     27  C   UNL     1       3.628   5.616  18.322  0.00  0.00    +0.000 C 
ATOM     28  O   UNL     1       3.465   5.458  17.117  0.00  0.00    +0.000 OA
BRANCH  27  29
ATOM     29  C   UNL     1       2.791   6.667  19.022  0.00  0.00    +0.000 A 
ATOM     30  C   UNL     1       2.297   6.400  20.315  0.00  0.00    +0.000 A 
ATOM     31  C   UNL     1       1.509   7.342  20.995  0.00  0.00    +0.000 A 
ATOM     32  C   UNL     1       1.207   8.566  20.397  0.00  0.00    +0.000 A 
ATOM     33  C   UNL     1       1.694   8.848  19.125  0.00  0.00    +0.000 A 
ATOM     34  C   UNL     1       2.483   7.908  18.447  0.00  0.00    +0.000 A 
ATOM     35  F   UNL     1       2.944   8.250  17.238  0.00  0.00    +0.000 F 
ENDBRANCH  27  29
ENDBRANCH   1  27
TORSDOF 7
ENDMDL
MODEL 6
REMARK VINA RESULT:      -8.9      1.099      1.615
REMARK  Name = 
REMARK  7 active torsions:
REMARK  status: ('A' for Active; 'I' for Inactive)
REMARK    1  A    between atoms: C_2  and  C_13
REMARK    2  A    between atoms: N_3  and  C_4
REMARK    3  A    between atoms: C_8  and  N_9
REMARK    4  A    between atoms: C_13  and  C_15
REMARK    5  A    between atoms: C_15  and  C_16
REMARK    6  A    between atoms: C_15  and  C_25
REMARK    7  A    between atoms: C_16  and  C_18
REMARK                            x       y       z     vdW  Elec       q    Type
REMARK                         _______ _______ _______ _____ _____    ______ ____
ROOT
ATOM      1  C   UNL     1       4.720   4.927  19.049  0.00  0.00    +0.000 C 
ENDROOT
BRANCH   1   2
ATOM      2  C   UNL     1       4.722   3.367  19.177  0.00  0.00    +0.000 C 
ATOM      3  O   UNL     1       4.645   3.168  20.634  0.00  0.00    +0.000 OA
ATOM      4  C   UNL     1       3.421   2.685  21.020  0.00  0.00    +0.000 C 
ATOM      5  O   UNL     1       3.085   2.517  22.182  0.00  0.00    +0.000 OA
ATOM      6  C   UNL     1       2.601   2.305  19.822  0.00  0.00    +0.000 C 
ATOM      7  C   UNL     1       1.408   3.128  19.409  0.00  0.00    +0.000 C 
ATOM      8  C   UNL     1       0.976   3.007  18.141  0.00  0.00    +0.000 C 
ATOM      9  C   UNL     1       1.720   2.185  17.208  0.00  0.00    +0.000 C 
ATOM     10  C   UNL     1       3.037   1.976  17.400  0.00  0.00    +0.000 C 
ATOM     11  C   UNL     1       3.679   2.285  18.737  0.00  0.00    +0.000 C 
ENDBRANCH   1   2
BRANCH   1  12
ATOM     12  C   UNL     1       6.047   5.468  18.429  0.00  0.00    +0.000 C 
ATOM     13  O   UNL     1       6.576   6.507  18.826  0.00  0.00    +0.000 OA
BRANCH  12  15
ATOM     14  O   UNL     1       7.801   4.351  17.265  0.00  0.00    +0.000 OA
ATOM     15  C   UNL     1       6.673   4.810  17.171  0.00  0.00    +0.000 C 
ATOM     16  N   UNL     1       5.885   4.851  16.008  0.00  0.00    +0.000 N 
ATOM     17  H   UNL     1       4.919   5.141  16.110  0.00  0.00    +0.000 HD
BRANCH  16  18
ATOM     18  C   UNL     1       6.335   4.599  14.671  0.00  0.00    +0.000 A 
ATOM     19  C   UNL     1       7.452   5.243  14.120  0.00  0.00    +0.000 A 
ATOM     20  C   UNL     1       7.845   5.037  12.792  0.00  0.00    +0.000 A 
ATOM     21  C   UNL     1       7.131   4.159  11.975  0.00  0.00    +0.000 A 
ATOM     22  C   UNL     1       6.016   3.502  12.501  0.00  0.00    +0.000 A 
ATOM     23  C   UNL     1       5.608   3.727  13.837  0.00  0.00    +0.000 A 
BRANCH  22  24
ATOM     24  N   UNL     1       5.277   2.575  11.628  0.00  0.00    +0.000 N 
ATOM     25  O   UNL     1       5.810   1.502  11.326  0.00  0.00    +0.000 OA
ATOM     26  O   UNL     1       4.146   2.924  11.250  0.00  0.00    +0.000 OA
ENDBRANCH  22  24
ENDBRANCH  16  18
ENDBRANCH  12  15
ENDBRANCH   1  12
BRANCH   1  27
ATOM     27  C   UNL     1       3.595   5.591  18.276  0.00  0.00    +0.000 C 
ATOM     28  O   UNL     1       3.401   5.304  17.100  0.00  0.00    +0.000 OA
BRANCH  27  29
ATOM     29  C   UNL     1       2.800   6.735  18.871  0.00  0.00    +0.000 A 
ATOM     30  C   UNL     1       2.596   7.899  18.104  0.00  0.00    +0.000 A 
ATOM     31  C   UNL     1       1.874   8.987  18.620  0.00  0.00    +0.000 A 
ATOM     32  C   UNL     1       1.340   8.926  19.907  0.00  0.00    +0.000 A 
ATOM     33  C   UNL     1       1.524   7.780  20.674  0.00  0.00    +0.000 A 
ATOM     34  C   UNL     1       2.243   6.694  20.157  0.00  0.00    +0.000 A 
ATOM     35  F   UNL     1       2.362   5.611  20.934  0.00  0.00    +0.000 F 
ENDBRANCH  27  29
ENDBRANCH   1  27
TORSDOF 7
ENDMDL
MODEL 7
REMARK VINA RESULT:      -8.6      3.528      7.827
REMARK  Name = 
REMARK  7 active torsions:
REMARK  status: ('A' for Active; 'I' for Inactive)
REMARK    1  A    between atoms: C_2  and  C_13
REMARK    2  A    between atoms: N_3  and  C_4
REMARK    3  A    between atoms: C_8  and  N_9
REMARK    4  A    between atoms: C_13  and  C_15
REMARK    5  A    between atoms: C_15  and  C_16
REMARK    6  A    between atoms: C_15  and  C_25
REMARK    7  A    between atoms: C_16  and  C_18
REMARK                            x       y       z     vdW  Elec       q    Type
REMARK                         _______ _______ _______ _____ _____    ______ ____
ROOT
ATOM      1  C   UNL     1       3.587   4.762  17.420  0.00  0.00    +0.000 C 
ENDROOT
BRANCH   1   2
ATOM      2  C   UNL     1       2.487   3.651  17.504  0.00  0.00    +0.000 C 
ATOM      3  O   UNL     1       3.245   2.430  17.184  0.00  0.00    +0.000 OA
ATOM      4  C   UNL     1       3.410   1.628  18.284  0.00  0.00    +0.000 C 
ATOM      5  O   UNL     1       4.072   0.602  18.293  0.00  0.00    +0.000 OA
ATOM      6  C   UNL     1       2.588   2.133  19.434  0.00  0.00    +0.000 C 
ATOM      7  C   UNL     1       3.244   2.778  20.628  0.00  0.00    +0.000 C 
ATOM      8  C   UNL     1       2.483   3.568  21.406  0.00  0.00    +0.000 C 
ATOM      9  C   UNL     1       1.114   3.846  21.020  0.00  0.00    +0.000 C 
ATOM     10  C   UNL     1       0.757   3.785  19.722  0.00  0.00    +0.000 C 
ATOM     11  C   UNL     1       1.652   3.102  18.708  0.00  0.00    +0.000 C 
ENDBRANCH   1   2
BRANCH   1  12
ATOM     12  C   UNL     1       3.513   5.755  18.622  0.00  0.00    +0.000 C 
ATOM     13  O   UNL     1       4.195   5.605  19.636  0.00  0.00    +0.000 OA
BRANCH  12  15
ATOM     14  O   UNL     1       2.054   7.342  17.603  0.00  0.00    +0.000 OA
ATOM     15  C   UNL     1       2.451   6.887  18.664  0.00  0.00    +0.000 C 
ATOM     16  N   UNL     1       2.079   7.323  19.948  0.00  0.00    +0.000 N 
ATOM     17  H   UNL     1       2.388   6.765  20.737  0.00  0.00    +0.000 HD
BRANCH  16  18
ATOM     18  C   UNL     1       1.370   8.528  20.260  0.00  0.00    +0.000 A 
ATOM     19  C   UNL     1       1.161   9.544  19.316  0.00  0.00    +0.000 A 
ATOM     20  C   UNL     1       0.523  10.745  19.649  0.00  0.00    +0.000 A 
ATOM     21  C   UNL     1       0.057  10.957  20.947  0.00  0.00    +0.000 A 
ATOM     22  C   UNL     1       0.250   9.960  21.906  0.00  0.00    +0.000 A 
ATOM     23  C   UNL     1       0.913   8.756  21.573  0.00  0.00    +0.000 A 
BRANCH  22  24
ATOM     24  N   UNL     1      -0.251  10.198  23.269  0.00  0.00    +0.000 N 
ATOM     25  O   UNL     1       0.288   9.599  24.207  0.00  0.00    +0.000 OA
ATOM     26  O   UNL     1      -1.189  11.002  23.403  0.00  0.00    +0.000 OA
ENDBRANCH  22  24
ENDBRANCH  16  18
ENDBRANCH  12  15
ENDBRANCH   1  12
BRANCH   1  27
ATOM     27  C   UNL     1       5.041   4.338  17.316  0.00  0.00    +0.000 C 
ATOM     28  O   UNL     1       5.660   4.006  18.320  0.00  0.00    +0.000 OA
BRANCH  27  29
ATOM     29  C   UNL     1       5.809   4.476  16.017  0.00  0.00    +0.000 A 
ATOM     30  C   UNL     1       5.340   3.807  14.869  0.00  0.00    +0.000 A 
ATOM     31  C   UNL     1       6.028   3.899  13.649  0.00  0.00    +0.000 A 
ATOM     32  C   UNL     1       7.190   4.665  13.555  0.00  0.00    +0.000 A 
ATOM     33  C   UNL     1       7.662   5.338  14.677  0.00  0.00    +0.000 A 
ATOM     34  C   UNL     1       6.973   5.247  15.895  0.00  0.00    +0.000 A 
ATOM     35  F   UNL     1       7.462   5.941  16.930  0.00  0.00    +0.000 F 
ENDBRANCH  27  29
ENDBRANCH   1  27
TORSDOF 7
ENDMDL
MODEL 8
REMARK VINA RESULT:      -8.4      4.734      8.325
REMARK  Name = 
REMARK  7 active torsions:
REMARK  status: ('A' for Active; 'I' for Inactive)
REMARK    1  A    between atoms: C_2  and  C_13
REMARK    2  A    between atoms: N_3  and  C_4
REMARK    3  A    between atoms: C_8  and  N_9
REMARK    4  A    between atoms: C_13  and  C_15
REMARK    5  A    between atoms: C_15  and  C_16
REMARK    6  A    between atoms: C_15  and  C_25
REMARK    7  A    between atoms: C_16  and  C_18
REMARK                            x       y       z     vdW  Elec       q    Type
REMARK                         _______ _______ _______ _____ _____    ______ ____
ROOT
ATOM      1  C   UNL     1       0.605  10.994  19.325  0.00  0.00    +0.000 C 
ENDROOT
BRANCH   1   2
ATOM      2  C   UNL     1       1.523  12.023  20.066  0.00  0.00    +0.000 C 
ATOM      3  O   UNL     1       2.414  12.486  18.989  0.00  0.00    +0.000 OA
ATOM      4  C   UNL     1       2.140  13.777  18.618  0.00  0.00    +0.000 C 
ATOM      5  O   UNL     1       2.686  14.356  17.692  0.00  0.00    +0.000 OA
ATOM      6  C   UNL     1       1.155  14.401  19.563  0.00  0.00    +0.000 C 
ATOM      7  C   UNL     1      -0.263  14.675  19.132  0.00  0.00    +0.000 C 
ATOM      8  C   UNL     1      -1.189  14.831  20.096  0.00  0.00    +0.000 C 
ATOM      9  C   UNL     1      -0.816  14.632  21.483  0.00  0.00    +0.000 C 
ATOM     10  C   UNL     1       0.220  13.828  21.791  0.00  0.00    +0.000 C 
ATOM     11  C   UNL     1       1.212  13.408  20.726  0.00  0.00    +0.000 C 
ENDBRANCH   1   2
BRANCH   1  12
ATOM     12  C   UNL     1       1.042   9.519  19.589  0.00  0.00    +0.000 C 
ATOM     13  O   UNL     1       0.850   8.965  20.672  0.00  0.00    +0.000 OA
BRANCH  12  15
ATOM     14  O   UNL     1       1.929   9.155  17.406  0.00  0.00    +0.000 OA
ATOM     15  C   UNL     1       1.890   8.735  18.552  0.00  0.00    +0.000 C 
ATOM     16  N   UNL     1       2.505   7.565  19.031  0.00  0.00    +0.000 N 
ATOM     17  H   UNL     1       2.498   7.412  20.034  0.00  0.00    +0.000 HD
BRANCH  16  18
ATOM     18  C   UNL     1       3.075   6.520  18.233  0.00  0.00    +0.000 A 
ATOM     19  C   UNL     1       2.521   5.232  18.173  0.00  0.00    +0.000 A 
ATOM     20  C   UNL     1       3.121   4.201  17.441  0.00  0.00    +0.000 A 
ATOM     21  C   UNL     1       4.296   4.438  16.727  0.00  0.00    +0.000 A 
ATOM     22  C   UNL     1       4.867   5.712  16.767  0.00  0.00    +0.000 A 
ATOM     23  C   UNL     1       4.270   6.748  17.524  0.00  0.00    +0.000 A 
BRANCH  22  24
ATOM     24  N   UNL     1       6.104   5.947  16.005  0.00  0.00    +0.000 N 
ATOM     25  O   UNL     1       7.099   6.361  16.611  0.00  0.00    +0.000 OA
ATOM     26  O   UNL     1       6.081   5.703  14.787  0.00  0.00    +0.000 OA
ENDBRANCH  22  24
ENDBRANCH  16  18
ENDBRANCH  12  15
ENDBRANCH   1  12
BRANCH   1  27
ATOM     27  C   UNL     1      -0.890  11.040  19.580  0.00  0.00    +0.000 C 
ATOM     28  O   UNL     1      -1.321  11.037  20.727  0.00  0.00    +0.000 OA
BRANCH  27  29
ATOM     29  C   UNL     1      -1.887  10.918  18.444  0.00  0.00    +0.000 A 
ATOM     30  C   UNL     1      -1.603  10.045  17.375  0.00  0.00    +0.000 A 
ATOM     31  C   UNL     1      -2.494   9.910  16.299  0.00  0.00    +0.000 A 
ATOM     32  C   UNL     1      -3.683  10.639  16.277  0.00  0.00    +0.000 A 
ATOM     33  C   UNL     1      -3.981  11.499  17.329  0.00  0.00    +0.000 A 
ATOM     34  C   UNL     1      -3.093  11.632  18.404  0.00  0.00    +0.000 A 
ATOM     35  F   UNL     1      -3.450  12.454  19.398  0.00  0.00    +0.000 F 
ENDBRANCH  27  29
ENDBRANCH   1  27
TORSDOF 7
ENDMDL
MODEL 9
REMARK VINA RESULT:      -8.3      3.890      7.775
REMARK  Name = 
REMARK  7 active torsions:
REMARK  status: ('A' for Active; 'I' for Inactive)
REMARK    1  A    between atoms: C_2  and  C_13
REMARK    2  A    between atoms: N_3  and  C_4
REMARK    3  A    between atoms: C_8  and  N_9
REMARK    4  A    between atoms: C_13  and  C_15
REMARK    5  A    between atoms: C_15  and  C_16
REMARK    6  A    between atoms: C_15  and  C_25
REMARK    7  A    between atoms: C_16  and  C_18
REMARK                            x       y       z     vdW  Elec       q    Type
REMARK                         _______ _______ _______ _____ _____    ______ ____
ROOT
ATOM      1  C   UNL     1       2.607   5.977  18.246  0.00  0.00    +0.000 C 
ENDROOT
BRANCH   1   2
ATOM      2  C   UNL     1       1.501   4.873  18.341  0.00  0.00    +0.000 C 
ATOM      3  O   UNL     1       1.752   4.067  17.136  0.00  0.00    +0.000 OA
ATOM      4  C   UNL     1       2.280   2.839  17.443  0.00  0.00    +0.000 C 
ATOM      5  O   UNL     1       2.650   2.024  16.612  0.00  0.00    +0.000 OA
ATOM      6  C   UNL     1       2.245   2.604  18.925  0.00  0.00    +0.000 C 
ATOM      7  C   UNL     1       3.513   2.617  19.739  0.00  0.00    +0.000 C 
ATOM      8  C   UNL     1       3.401   2.821  21.064  0.00  0.00    +0.000 C 
ATOM      9  C   UNL     1       2.102   3.117  21.634  0.00  0.00    +0.000 C 
ATOM     10  C   UNL     1       1.149   3.687  20.872  0.00  0.00    +0.000 C 
ATOM     11  C   UNL     1       1.279   3.708  19.362  0.00  0.00    +0.000 C 
ENDBRANCH   1   2
BRANCH   1  12
ATOM     12  C   UNL     1       2.262   7.232  19.107  0.00  0.00    +0.000 C 
ATOM     13  O   UNL     1       2.183   7.179  20.335  0.00  0.00    +0.000 OA
BRANCH  12  15
ATOM     14  O   UNL     1       2.332   8.858  17.366  0.00  0.00    +0.000 OA
ATOM     15  C   UNL     1       1.837   8.570  18.445  0.00  0.00    +0.000 C 
ATOM     16  N   UNL     1       0.943   9.359  19.188  0.00  0.00    +0.000 N 
ATOM     17  H   UNL     1       0.513   8.934  20.002  0.00  0.00    +0.000 HD
BRANCH  16  18
ATOM     18  C   UNL     1       0.639  10.740  18.957  0.00  0.00    +0.000 A 
ATOM     19  C   UNL     1      -0.632  11.173  18.551  0.00  0.00    +0.000 A 
ATOM     20  C   UNL     1      -0.901  12.517  18.266  0.00  0.00    +0.000 A 
ATOM     21  C   UNL     1       0.102  13.478  18.397  0.00  0.00    +0.000 A 
ATOM     22  C   UNL     1       1.376  13.074  18.802  0.00  0.00    +0.000 A 
ATOM     23  C   UNL     1       1.652  11.712  19.070  0.00  0.00    +0.000 A 
BRANCH  22  24
ATOM     24  N   UNL     1       2.422  14.101  18.940  0.00  0.00    +0.000 N 
ATOM     25  O   UNL     1       2.438  15.035  18.130  0.00  0.00    +0.000 OA
ATOM     26  O   UNL     1       3.230  13.974  19.875  0.00  0.00    +0.000 OA
ENDBRANCH  22  24
ENDBRANCH  16  18
ENDBRANCH  12  15
ENDBRANCH   1  12
BRANCH   1  27
ATOM     27  C   UNL     1       4.035   5.606  18.599  0.00  0.00    +0.000 C 
ATOM     28  O   UNL     1       4.419   5.665  19.762  0.00  0.00    +0.000 OA
BRANCH  27  29
ATOM     29  C   UNL     1       5.064   5.322  17.524  0.00  0.00    +0.000 A 
ATOM     30  C   UNL     1       4.758   5.633  16.184  0.00  0.00    +0.000 A 
ATOM     31  C   UNL     1       5.679   5.377  15.155  0.00  0.00    +0.000 A 
ATOM     32  C   UNL     1       6.919   4.812  15.449  0.00  0.00    +0.000 A 
ATOM     33  C   UNL     1       7.240   4.506  16.768  0.00  0.00    +0.000 A 
ATOM     34  C   UNL     1       6.322   4.764  17.795  0.00  0.00    +0.000 A 
ATOM     35  F   UNL     1       6.700   4.474  19.045  0.00  0.00    +0.000 F 
ENDBRANCH  27  29
ENDBRANCH   1  27
TORSDOF 7
ENDMDL
