MODEL 1
REMARK VINA RESULT:      -5.6      0.000      0.000
REMARK  Name = 
REMARK  7 active torsions:
REMARK  status: ('A' for Active; 'I' for Inactive)
REMARK    1  A    between atoms: C_1  and  C_2
REMARK    2  A    between atoms: C_2  and  C_3
REMARK    3  A    between atoms: C_3  and  C_4
REMARK    4  A    between atoms: C_4  and  O_5
REMARK    5  A    between atoms: O_5  and  C_6
REMARK    6  A    between atoms: C_7  and  O_8
REMARK    7  A    between atoms: O_8  and  C_9
REMARK                            x       y       z     vdW  Elec       q    Type
REMARK                         _______ _______ _______ _____ _____    ______ ____
ROOT
ATOM      1  C   UNL     1      -4.567  13.412  20.952  0.00  0.00    +0.000 A 
ATOM      2  C   UNL     1      -5.618  13.060  21.805  0.00  0.00    +0.000 A 
ATOM      3  C   UNL     1      -5.313  12.771  23.145  0.00  0.00    +0.000 A 
ATOM      4  C   UNL     1      -3.980  12.712  23.581  0.00  0.00    +0.000 A 
ATOM      5  C   UNL     1      -2.959  13.107  22.724  0.00  0.00    +0.000 A 
ATOM      6  C   UNL     1      -3.318  13.694  21.515  0.00  0.00    +0.000 A 
ATOM      7  C   UNL     1      -2.338  14.723  21.029  0.00  0.00    +0.000 C 
ATOM      8  N   UNL     1      -1.047  14.137  20.666  0.00  0.00    +0.000 NA
ATOM      9  C   UNL     1      -1.203  13.697  19.281  0.00  0.00    +0.000 C 
ATOM     10  C   UNL     1      -0.173  12.748  18.741  0.00  0.00    +0.000 C 
ATOM     11  C   UNL     1       0.053  11.609  19.683  0.00  0.00    +0.000 A 
ATOM     12  C   UNL     1       0.493  10.402  19.128  0.00  0.00    +0.000 A 
ATOM     13  C   UNL     1       0.894   9.411  19.987  0.00  0.00    +0.000 A 
ATOM     14  C   UNL     1       0.901   9.602  21.344  0.00  0.00    +0.000 A 
ATOM     15  C   UNL     1       0.441  10.783  21.924  0.00  0.00    +0.000 A 
ATOM     16  C   UNL     1      -0.049  11.805  21.092  0.00  0.00    +0.000 A 
ATOM     17  C   UNL     1      -0.560  13.139  21.678  0.00  0.00    +0.000 C 
ATOM     18  C   UNL     1      -1.479  13.014  22.994  0.00  0.00    +0.000 C 
ATOM     19  O   UNL     1       1.417   8.530  22.005  0.00  0.00    +0.000 OA
ATOM     20  C   UNL     1       1.640   7.619  20.903  0.00  0.00    +0.000 C 
ATOM     21  O   UNL     1       1.368   8.195  19.618  0.00  0.00    +0.000 OA
ENDROOT
BRANCH   2  22
ATOM     22  O   UNL     1      -6.927  12.875  21.451  0.00  0.00    +0.000 OA
ATOM     23  C   UNL     1      -7.366  11.531  21.256  0.00  0.00    +0.000 C 
ENDBRANCH   2  22
BRANCH   1  24
ATOM     24  O   UNL     1      -4.642  13.221  19.580  0.00  0.00    +0.000 OA
BRANCH  24  25
ATOM     25  C   UNL     1      -4.329  11.824  19.294  0.00  0.00    +0.000 C 
BRANCH  25  26
ATOM     26  C   UNL     1      -3.835  11.620  17.852  0.00  0.00    +0.000 C 
BRANCH  26  28
ATOM     27  C   UNL     1      -2.203  10.007  16.689  0.00  0.00    +0.000 C 
ATOM     28  C   UNL     1      -3.387  10.163  17.639  0.00  0.00    +0.000 C 
ENDBRANCH  26  28
ENDBRANCH  25  26
ENDBRANCH  24  25
ENDBRANCH   1  24
TORSDOF 5
ENDMDL
MODEL 2
REMARK VINA RESULT:      -5.5      3.268      5.395
REMARK  Name = 
REMARK  7 active torsions:
REMARK  status: ('A' for Active; 'I' for Inactive)
REMARK    1  A    between atoms: C_1  and  C_2
REMARK    2  A    between atoms: C_2  and  C_3
REMARK    3  A    between atoms: C_3  and  C_4
REMARK    4  A    between atoms: C_4  and  O_5
REMARK    5  A    between atoms: O_5  and  C_6
REMARK    6  A    between atoms: C_7  and  O_8
REMARK    7  A    between atoms: O_8  and  C_9
REMARK                            x       y       z     vdW  Elec       q    Type
REMARK                         _______ _______ _______ _____ _____    ______ ____
ROOT
ATOM      1  C   UNL     1      -2.659  12.119  19.659  0.00  0.00    +0.000 A 
ATOM      2  C   UNL     1      -3.230  11.566  18.508  0.00  0.00    +0.000 A 
ATOM      3  C   UNL     1      -2.420  10.761  17.690  0.00  0.00    +0.000 A 
ATOM      4  C   UNL     1      -1.048  10.624  17.952  0.00  0.00    +0.000 A 
ATOM      5  C   UNL     1      -0.516  11.149  19.124  0.00  0.00    +0.000 A 
ATOM      6  C   UNL     1      -1.403  11.658  20.067  0.00  0.00    +0.000 A 
ATOM      7  C   UNL     1      -0.936  11.494  21.485  0.00  0.00    +0.000 C 
ATOM      8  N   UNL     1       0.252  12.295  21.779  0.00  0.00    +0.000 NA
ATOM      9  C   UNL     1      -0.260  13.613  22.148  0.00  0.00    +0.000 C 
ATOM     10  C   UNL     1       0.721  14.751  22.166  0.00  0.00    +0.000 C 
ATOM     11  C   UNL     1       1.531  14.780  20.910  0.00  0.00    +0.000 A 
ATOM     12  C   UNL     1       2.035  16.022  20.507  0.00  0.00    +0.000 A 
ATOM     13  C   UNL     1       2.939  16.042  19.475  0.00  0.00    +0.000 A 
ATOM     14  C   UNL     1       3.367  14.885  18.879  0.00  0.00    +0.000 A 
ATOM     15  C   UNL     1       2.859  13.638  19.241  0.00  0.00    +0.000 A 
ATOM     16  C   UNL     1       1.877  13.567  20.244  0.00  0.00    +0.000 A 
ATOM     17  C   UNL     1       1.288  12.213  20.695  0.00  0.00    +0.000 C 
ATOM     18  C   UNL     1       0.941  11.178  19.511  0.00  0.00    +0.000 C 
ATOM     19  O   UNL     1       4.326  15.120  17.942  0.00  0.00    +0.000 OA
ATOM     20  C   UNL     1       4.372  16.567  17.966  0.00  0.00    +0.000 C 
ATOM     21  O   UNL     1       3.540  17.151  18.978  0.00  0.00    +0.000 OA
ENDROOT
BRANCH   2  22
ATOM     22  O   UNL     1      -4.491  11.797  18.032  0.00  0.00    +0.000 OA
ATOM     23  C   UNL     1      -5.494  10.832  18.344  0.00  0.00    +0.000 C 
ENDBRANCH   2  22
BRANCH   1  24
ATOM     24  O   UNL     1      -3.154  13.279  20.236  0.00  0.00    +0.000 OA
BRANCH  24  25
ATOM     25  C   UNL     1      -4.247  12.914  21.132  0.00  0.00    +0.000 C 
BRANCH  25  26
ATOM     26  C   UNL     1      -4.096  13.546  22.526  0.00  0.00    +0.000 C 
BRANCH  26  28
ATOM     27  C   UNL     1      -4.451  12.459  24.830  0.00  0.00    +0.000 C 
ATOM     28  C   UNL     1      -3.627  12.494  23.546  0.00  0.00    +0.000 C 
ENDBRANCH  26  28
ENDBRANCH  25  26
ENDBRANCH  24  25
ENDBRANCH   1  24
TORSDOF 5
ENDMDL
MODEL 3
REMARK VINA RESULT:      -5.4      7.759     11.401
REMARK  Name = 
REMARK  7 active torsions:
REMARK  status: ('A' for Active; 'I' for Inactive)
REMARK    1  A    between atoms: C_1  and  C_2
REMARK    2  A    between atoms: C_2  and  C_3
REMARK    3  A    between atoms: C_3  and  C_4
REMARK    4  A    between atoms: C_4  and  O_5
REMARK    5  A    between atoms: O_5  and  C_6
REMARK    6  A    between atoms: C_7  and  O_8
REMARK    7  A    between atoms: O_8  and  C_9
REMARK                            x       y       z     vdW  Elec       q    Type
REMARK                         _______ _______ _______ _____ _____    ______ ____
ROOT
ATOM      1  C   UNL     1       9.511  13.413  19.790  0.00  0.00    +0.000 A 
ATOM      2  C   UNL     1       9.962  12.271  19.122  0.00  0.00    +0.000 A 
ATOM      3  C   UNL     1       9.388  11.962  17.879  0.00  0.00    +0.000 A 
ATOM      4  C   UNL     1       8.304  12.705  17.385  0.00  0.00    +0.000 A 
ATOM      5  C   UNL     1       7.904  13.859  18.048  0.00  0.00    +0.000 A 
ATOM      6  C   UNL     1       8.700  14.315  19.094  0.00  0.00    +0.000 A 
ATOM      7  C   UNL     1       8.702  15.809  19.244  0.00  0.00    +0.000 C 
ATOM      8  N   UNL     1       7.399  16.332  19.655  0.00  0.00    +0.000 NA
ATOM      9  C   UNL     1       7.391  16.231  21.113  0.00  0.00    +0.000 C 
ATOM     10  C   UNL     1       6.063  16.362  21.803  0.00  0.00    +0.000 C 
ATOM     11  C   UNL     1       5.036  15.486  21.161  0.00  0.00    +0.000 A 
ATOM     12  C   UNL     1       3.982  15.045  21.969  0.00  0.00    +0.000 A 
ATOM     13  C   UNL     1       2.930  14.409  21.358  0.00  0.00    +0.000 A 
ATOM     14  C   UNL     1       2.890  14.241  19.999  0.00  0.00    +0.000 A 
ATOM     15  C   UNL     1       3.940  14.645  19.175  0.00  0.00    +0.000 A 
ATOM     16  C   UNL     1       5.074  15.236  19.757  0.00  0.00    +0.000 A 
ATOM     17  C   UNL     1       6.262  15.714  18.893  0.00  0.00    +0.000 C 
ATOM     18  C   UNL     1       6.708  14.714  17.712  0.00  0.00    +0.000 C 
ATOM     19  O   UNL     1       1.724  13.669  19.592  0.00  0.00    +0.000 OA
ATOM     20  C   UNL     1       1.090  13.419  20.869  0.00  0.00    +0.000 C 
ATOM     21  O   UNL     1       1.823  13.942  21.986  0.00  0.00    +0.000 OA
ENDROOT
BRANCH   2  22
ATOM     22  O   UNL     1      10.857  11.350  19.595  0.00  0.00    +0.000 OA
ATOM     23  C   UNL     1      12.229  11.740  19.648  0.00  0.00    +0.000 C 
ENDBRANCH   2  22
BRANCH   1  24
ATOM     24  O   UNL     1       9.604  13.540  21.168  0.00  0.00    +0.000 OA
BRANCH  24  25
ATOM     25  C   UNL     1       8.616  12.654  21.777  0.00  0.00    +0.000 C 
BRANCH  25  26
ATOM     26  C   UNL     1       8.150  13.158  23.154  0.00  0.00    +0.000 C 
BRANCH  26  28
ATOM     27  C   UNL     1       7.992  12.496  25.634  0.00  0.00    +0.000 C 
ATOM     28  C   UNL     1       8.269  12.041  24.204  0.00  0.00    +0.000 C 
ENDBRANCH  26  28
ENDBRANCH  25  26
ENDBRANCH  24  25
ENDBRANCH   1  24
TORSDOF 5
ENDMDL
MODEL 4
REMARK VINA RESULT:      -5.3      3.222      7.081
REMARK  Name = 
REMARK  7 active torsions:
REMARK  status: ('A' for Active; 'I' for Inactive)
REMARK    1  A    between atoms: C_1  and  C_2
REMARK    2  A    between atoms: C_2  and  C_3
REMARK    3  A    between atoms: C_3  and  C_4
REMARK    4  A    between atoms: C_4  and  O_5
REMARK    5  A    between atoms: O_5  and  C_6
REMARK    6  A    between atoms: C_7  and  O_8
REMARK    7  A    between atoms: O_8  and  C_9
REMARK                            x       y       z     vdW  Elec       q    Type
REMARK                         _______ _______ _______ _____ _____    ______ ____
ROOT
ATOM      1  C   UNL     1      -2.048  12.487  20.279  0.00  0.00    +0.000 A 
ATOM      2  C   UNL     1      -0.788  13.093  20.254  0.00  0.00    +0.000 A 
ATOM      3  C   UNL     1      -0.705  14.458  20.573  0.00  0.00    +0.000 A 
ATOM      4  C   UNL     1      -1.867  15.218  20.783  0.00  0.00    +0.000 A 
ATOM      5  C   UNL     1      -3.102  14.582  20.844  0.00  0.00    +0.000 A 
ATOM      6  C   UNL     1      -3.115  13.191  20.846  0.00  0.00    +0.000 A 
ATOM      7  C   UNL     1      -4.250  12.600  21.633  0.00  0.00    +0.000 C 
ATOM      8  N   UNL     1      -5.553  12.877  21.029  0.00  0.00    +0.000 NA
ATOM      9  C   UNL     1      -5.747  11.818  20.040  0.00  0.00    +0.000 C 
ATOM     10  C   UNL     1      -6.826  12.023  19.016  0.00  0.00    +0.000 C 
ATOM     11  C   UNL     1      -6.723  13.379  18.394  0.00  0.00    +0.000 A 
ATOM     12  C   UNL     1      -7.223  13.521  17.094  0.00  0.00    +0.000 A 
ATOM     13  C   UNL     1      -7.319  14.791  16.581  0.00  0.00    +0.000 A 
ATOM     14  C   UNL     1      -6.974  15.889  17.324  0.00  0.00    +0.000 A 
ATOM     15  C   UNL     1      -6.447  15.773  18.610  0.00  0.00    +0.000 A 
ATOM     16  C   UNL     1      -6.259  14.491  19.156  0.00  0.00    +0.000 A 
ATOM     17  C   UNL     1      -5.691  14.303  20.580  0.00  0.00    +0.000 C 
ATOM     18  C   UNL     1      -4.447  15.252  20.962  0.00  0.00    +0.000 C 
ATOM     19  O   UNL     1      -7.229  17.050  16.662  0.00  0.00    +0.000 OA
ATOM     20  C   UNL     1      -7.685  16.536  15.388  0.00  0.00    +0.000 C 
ATOM     21  O   UNL     1      -7.801  15.107  15.354  0.00  0.00    +0.000 OA
ENDROOT
BRANCH   2  22
ATOM     22  O   UNL     1       0.387  12.514  19.859  0.00  0.00    +0.000 OA
ATOM     23  C   UNL     1       1.576  13.289  20.001  0.00  0.00    +0.000 C 
ENDBRANCH   2  22
BRANCH   1  24
ATOM     24  O   UNL     1      -2.332  11.357  19.526  0.00  0.00    +0.000 OA
BRANCH  24  25
ATOM     25  C   UNL     1      -2.643  11.780  18.164  0.00  0.00    +0.000 C 
BRANCH  25  26
ATOM     26  C   UNL     1      -3.527  10.763  17.423  0.00  0.00    +0.000 C 
BRANCH  26  28
ATOM     27  C   UNL     1      -2.978  10.169  14.982  0.00  0.00    +0.000 C 
ATOM     28  C   UNL     1      -3.658  11.144  15.938  0.00  0.00    +0.000 C 
ENDBRANCH  26  28
ENDBRANCH  25  26
ENDBRANCH  24  25
ENDBRANCH   1  24
TORSDOF 5
ENDMDL
MODEL 5
REMARK VINA RESULT:      -5.3      7.310     10.915
REMARK  Name = 
REMARK  7 active torsions:
REMARK  status: ('A' for Active; 'I' for Inactive)
REMARK    1  A    between atoms: C_1  and  C_2
REMARK    2  A    between atoms: C_2  and  C_3
REMARK    3  A    between atoms: C_3  and  C_4
REMARK    4  A    between atoms: C_4  and  O_5
REMARK    5  A    between atoms: O_5  and  C_6
REMARK    6  A    between atoms: C_7  and  O_8
REMARK    7  A    between atoms: O_8  and  C_9
REMARK                            x       y       z     vdW  Elec       q    Type
REMARK                         _______ _______ _______ _____ _____    ______ ____
ROOT
ATOM      1  C   UNL     1       9.163  13.795  19.864  0.00  0.00    +0.000 A 
ATOM      2  C   UNL     1       9.823  12.700  19.298  0.00  0.00    +0.000 A 
ATOM      3  C   UNL     1       9.396  12.250  18.038  0.00  0.00    +0.000 A 
ATOM      4  C   UNL     1       8.259  12.801  17.427  0.00  0.00    +0.000 A 
ATOM      5  C   UNL     1       7.648  13.915  17.992  0.00  0.00    +0.000 A 
ATOM      6  C   UNL     1       8.287  14.533  19.062  0.00  0.00    +0.000 A 
ATOM      7  C   UNL     1       8.064  16.017  19.123  0.00  0.00    +0.000 C 
ATOM      8  N   UNL     1       6.672  16.361  19.412  0.00  0.00    +0.000 NA
ATOM      9  C   UNL     1       6.566  16.331  20.869  0.00  0.00    +0.000 C 
ATOM     10  C   UNL     1       5.184  16.299  21.457  0.00  0.00    +0.000 C 
ATOM     11  C   UNL     1       4.345  15.252  20.797  0.00  0.00    +0.000 A 
ATOM     12  C   UNL     1       3.306  14.700  21.555  0.00  0.00    +0.000 A 
ATOM     13  C   UNL     1       2.406  13.887  20.911  0.00  0.00    +0.000 A 
ATOM     14  C   UNL     1       2.496  13.650  19.565  0.00  0.00    +0.000 A 
ATOM     15  C   UNL     1       3.537  14.163  18.793  0.00  0.00    +0.000 A 
ATOM     16  C   UNL     1       4.527  14.942  19.417  0.00  0.00    +0.000 A 
ATOM     17  C   UNL     1       5.697  15.547  18.611  0.00  0.00    +0.000 C 
ATOM     18  C   UNL     1       6.372  14.568  17.525  0.00  0.00    +0.000 C 
ATOM     19  O   UNL     1       1.458  12.894  19.113  0.00  0.00    +0.000 OA
ATOM     20  C   UNL     1       0.769  12.616  20.355  0.00  0.00    +0.000 C 
ATOM     21  O   UNL     1       1.332  13.294  21.487  0.00  0.00    +0.000 OA
ENDROOT
BRANCH   2  22
ATOM     22  O   UNL     1      10.801  11.945  19.885  0.00  0.00    +0.000 OA
ATOM     23  C   UNL     1      12.074  11.909  19.241  0.00  0.00    +0.000 C 
ENDBRANCH   2  22
BRANCH   1  24
ATOM     24  O   UNL     1       9.131  14.000  21.236  0.00  0.00    +0.000 OA
BRANCH  24  25
ATOM     25  C   UNL     1       8.129  13.106  21.809  0.00  0.00    +0.000 C 
BRANCH  25  26
ATOM     26  C   UNL     1       7.654  13.573  23.195  0.00  0.00    +0.000 C 
BRANCH  26  28
ATOM     27  C   UNL     1       5.451  14.049  24.434  0.00  0.00    +0.000 C 
ATOM     28  C   UNL     1       6.185  13.175  23.422  0.00  0.00    +0.000 C 
ENDBRANCH  26  28
ENDBRANCH  25  26
ENDBRANCH  24  25
ENDBRANCH   1  24
TORSDOF 5
ENDMDL
MODEL 6
REMARK VINA RESULT:      -5.3      3.311      6.043
REMARK  Name = 
REMARK  7 active torsions:
REMARK  status: ('A' for Active; 'I' for Inactive)
REMARK    1  A    between atoms: C_1  and  C_2
REMARK    2  A    between atoms: C_2  and  C_3
REMARK    3  A    between atoms: C_3  and  C_4
REMARK    4  A    between atoms: C_4  and  O_5
REMARK    5  A    between atoms: O_5  and  C_6
REMARK    6  A    between atoms: C_7  and  O_8
REMARK    7  A    between atoms: O_8  and  C_9
REMARK                            x       y       z     vdW  Elec       q    Type
REMARK                         _______ _______ _______ _____ _____    ______ ____
ROOT
ATOM      1  C   UNL     1       0.714  15.201  20.726  0.00  0.00    +0.000 A 
ATOM      2  C   UNL     1       0.589  16.568  20.460  0.00  0.00    +0.000 A 
ATOM      3  C   UNL     1      -0.703  17.111  20.387  0.00  0.00    +0.000 A 
ATOM      4  C   UNL     1      -1.835  16.283  20.451  0.00  0.00    +0.000 A 
ATOM      5  C   UNL     1      -1.683  14.936  20.758  0.00  0.00    +0.000 A 
ATOM      6  C   UNL     1      -0.420  14.496  21.143  0.00  0.00    +0.000 A 
ATOM      7  C   UNL     1      -0.449  13.364  22.129  0.00  0.00    +0.000 C 
ATOM      8  N   UNL     1      -0.993  12.135  21.553  0.00  0.00    +0.000 NA
ATOM      9  C   UNL     1       0.143  11.482  20.906  0.00  0.00    +0.000 C 
ATOM     10  C   UNL     1      -0.160  10.379  19.932  0.00  0.00    +0.000 C 
ATOM     11  C   UNL     1      -1.213  10.800  18.958  0.00  0.00    +0.000 A 
ATOM     12  C   UNL     1      -1.199  10.183  17.701  0.00  0.00    +0.000 A 
ATOM     13  C   UNL     1      -2.266  10.406  16.867  0.00  0.00    +0.000 A 
ATOM     14  C   UNL     1      -3.329  11.176  17.258  0.00  0.00    +0.000 A 
ATOM     15  C   UNL     1      -3.354  11.826  18.492  0.00  0.00    +0.000 A 
ATOM     16  C   UNL     1      -2.254  11.690  19.356  0.00  0.00    +0.000 A 
ATOM     17  C   UNL     1      -2.232  12.376  20.739  0.00  0.00    +0.000 C 
ATOM     18  C   UNL     1      -2.772  13.893  20.771  0.00  0.00    +0.000 C 
ATOM     19  O   UNL     1      -4.315  11.195  16.320  0.00  0.00    +0.000 OA
ATOM     20  C   UNL     1      -3.694  10.422  15.265  0.00  0.00    +0.000 C 
ATOM     21  O   UNL     1      -2.422   9.869  15.632  0.00  0.00    +0.000 OA
ENDROOT
BRANCH   2  22
ATOM     22  O   UNL     1       1.604  17.437  20.167  0.00  0.00    +0.000 OA
ATOM     23  C   UNL     1       2.397  17.906  21.257  0.00  0.00    +0.000 C 
ENDBRANCH   2  22
BRANCH   1  24
ATOM     24  O   UNL     1       1.830  14.477  20.330  0.00  0.00    +0.000 OA
BRANCH  24  25
ATOM     25  C   UNL     1       1.718  14.210  18.899  0.00  0.00    +0.000 C 
BRANCH  25  26
ATOM     26  C   UNL     1       3.092  14.104  18.216  0.00  0.00    +0.000 C 
BRANCH  26  28
ATOM     27  C   UNL     1       4.324  16.355  18.387  0.00  0.00    +0.000 C 
ATOM     28  C   UNL     1       3.457  15.435  17.534  0.00  0.00    +0.000 C 
ENDBRANCH  26  28
ENDBRANCH  25  26
ENDBRANCH  24  25
ENDBRANCH   1  24
TORSDOF 5
ENDMDL
MODEL 7
REMARK VINA RESULT:      -5.3      0.923      1.073
REMARK  Name = 
REMARK  7 active torsions:
REMARK  status: ('A' for Active; 'I' for Inactive)
REMARK    1  A    between atoms: C_1  and  C_2
REMARK    2  A    between atoms: C_2  and  C_3
REMARK    3  A    between atoms: C_3  and  C_4
REMARK    4  A    between atoms: C_4  and  O_5
REMARK    5  A    between atoms: O_5  and  C_6
REMARK    6  A    between atoms: C_7  and  O_8
REMARK    7  A    between atoms: O_8  and  C_9
REMARK                            x       y       z     vdW  Elec       q    Type
REMARK                         _______ _______ _______ _____ _____    ______ ____
ROOT
ATOM      1  C   UNL     1      -4.795  13.792  21.707  0.00  0.00    +0.000 A 
ATOM      2  C   UNL     1      -5.817  13.324  22.538  0.00  0.00    +0.000 A 
ATOM      3  C   UNL     1      -5.469  12.860  23.817  0.00  0.00    +0.000 A 
ATOM      4  C   UNL     1      -4.122  12.749  24.198  0.00  0.00    +0.000 A 
ATOM      5  C   UNL     1      -3.130  13.260  23.369  0.00  0.00    +0.000 A 
ATOM      6  C   UNL     1      -3.528  14.002  22.262  0.00  0.00    +0.000 A 
ATOM      7  C   UNL     1      -2.565  15.091  21.887  0.00  0.00    +0.000 C 
ATOM      8  N   UNL     1      -1.286  14.566  21.408  0.00  0.00    +0.000 NA
ATOM      9  C   UNL     1      -1.488  14.315  19.982  0.00  0.00    +0.000 C 
ATOM     10  C   UNL     1      -0.474  13.451  19.286  0.00  0.00    +0.000 C 
ATOM     11  C   UNL     1      -0.217  12.198  20.060  0.00  0.00    +0.000 A 
ATOM     12  C   UNL     1       0.204  11.078  19.333  0.00  0.00    +0.000 A 
ATOM     13  C   UNL     1       0.634   9.982  20.039  0.00  0.00    +0.000 A 
ATOM     14  C   UNL     1       0.685   9.990  21.408  0.00  0.00    +0.000 A 
ATOM     15  C   UNL     1       0.244  11.081  22.156  0.00  0.00    +0.000 A 
ATOM     16  C   UNL     1      -0.274  12.203  21.484  0.00  0.00    +0.000 A 
ATOM     17  C   UNL     1      -0.766  13.444  22.260  0.00  0.00    +0.000 C 
ATOM     18  C   UNL     1      -1.642  13.139  23.577  0.00  0.00    +0.000 C 
ATOM     19  O   UNL     1       1.223   8.842  21.903  0.00  0.00    +0.000 OA
ATOM     20  C   UNL     1       1.410   8.088  20.682  0.00  0.00    +0.000 C 
ATOM     21  O   UNL     1       1.096   8.830  19.495  0.00  0.00    +0.000 OA
ENDROOT
BRANCH   2  22
ATOM     22  O   UNL     1      -7.137  13.181  22.205  0.00  0.00    +0.000 OA
ATOM     23  C   UNL     1      -7.884  12.192  22.912  0.00  0.00    +0.000 C 
ENDBRANCH   2  22
BRANCH   1  24
ATOM     24  O   UNL     1      -4.915  13.786  20.325  0.00  0.00    +0.000 OA
BRANCH  24  25
ATOM     25  C   UNL     1      -4.608  12.442  19.844  0.00  0.00    +0.000 C 
BRANCH  25  26
ATOM     26  C   UNL     1      -5.774  11.824  19.054  0.00  0.00    +0.000 C 
BRANCH  26  28
ATOM     27  C   UNL     1      -3.788  11.478  17.458  0.00  0.00    +0.000 C 
ATOM     28  C   UNL     1      -5.273  11.249  17.718  0.00  0.00    +0.000 C 
ENDBRANCH  26  28
ENDBRANCH  25  26
ENDBRANCH  24  25
ENDBRANCH   1  24
TORSDOF 5
ENDMDL
MODEL 8
REMARK VINA RESULT:      -5.3      1.870      6.555
REMARK  Name = 
REMARK  7 active torsions:
REMARK  status: ('A' for Active; 'I' for Inactive)
REMARK    1  A    between atoms: C_1  and  C_2
REMARK    2  A    between atoms: C_2  and  C_3
REMARK    3  A    between atoms: C_3  and  C_4
REMARK    4  A    between atoms: C_4  and  O_5
REMARK    5  A    between atoms: O_5  and  C_6
REMARK    6  A    between atoms: C_7  and  O_8
REMARK    7  A    between atoms: O_8  and  C_9
REMARK                            x       y       z     vdW  Elec       q    Type
REMARK                         _______ _______ _______ _____ _____    ______ ____
ROOT
ATOM      1  C   UNL     1       0.278  12.091  20.796  0.00  0.00    +0.000 A 
ATOM      2  C   UNL     1       0.492  11.404  19.597  0.00  0.00    +0.000 A 
ATOM      3  C   UNL     1      -0.257  11.788  18.473  0.00  0.00    +0.000 A 
ATOM      4  C   UNL     1      -1.279  12.743  18.584  0.00  0.00    +0.000 A 
ATOM      5  C   UNL     1      -1.442  13.440  19.776  0.00  0.00    +0.000 A 
ATOM      6  C   UNL     1      -0.478  13.267  20.765  0.00  0.00    +0.000 A 
ATOM      7  C   UNL     1      -0.257  14.488  21.611  0.00  0.00    +0.000 C 
ATOM      8  N   UNL     1      -1.422  14.817  22.432  0.00  0.00    +0.000 NA
ATOM      9  C   UNL     1      -1.278  14.007  23.640  0.00  0.00    +0.000 C 
ATOM     10  C   UNL     1      -2.489  13.861  24.518  0.00  0.00    +0.000 C 
ATOM     11  C   UNL     1      -3.691  13.484  23.713  0.00  0.00    +0.000 A 
ATOM     12  C   UNL     1      -4.696  12.766  24.371  0.00  0.00    +0.000 A 
ATOM     13  C   UNL     1      -5.887  12.582  23.713  0.00  0.00    +0.000 A 
ATOM     14  C   UNL     1      -6.103  13.112  22.469  0.00  0.00    +0.000 A 
ATOM     15  C   UNL     1      -5.109  13.806  21.780  0.00  0.00    +0.000 A 
ATOM     16  C   UNL     1      -3.847  13.960  22.378  0.00  0.00    +0.000 A 
ATOM     17  C   UNL     1      -2.712  14.729  21.667  0.00  0.00    +0.000 C 
ATOM     18  C   UNL     1      -2.541  14.420  20.096  0.00  0.00    +0.000 C 
ATOM     19  O   UNL     1      -7.375  12.890  22.036  0.00  0.00    +0.000 OA
ATOM     20  C   UNL     1      -7.888  12.080  23.121  0.00  0.00    +0.000 C 
ATOM     21  O   UNL     1      -6.968  11.935  24.213  0.00  0.00    +0.000 OA
ENDROOT
BRANCH   2  22
ATOM     22  O   UNL     1       1.303  10.317  19.414  0.00  0.00    +0.000 OA
ATOM     23  C   UNL     1       1.740  10.046  18.083  0.00  0.00    +0.000 C 
ENDBRANCH   2  22
BRANCH   1  24
ATOM     24  O   UNL     1       0.544  11.513  22.028  0.00  0.00    +0.000 OA
BRANCH  24  25
ATOM     25  C   UNL     1      -0.672  10.854  22.496  0.00  0.00    +0.000 C 
BRANCH  25  26
ATOM     26  C   UNL     1      -0.408   9.421  22.988  0.00  0.00    +0.000 C 
BRANCH  26  28
ATOM     27  C   UNL     1       1.028   8.007  21.389  0.00  0.00    +0.000 C 
ATOM     28  C   UNL     1      -0.375   8.443  21.800  0.00  0.00    +0.000 C 
ENDBRANCH  26  28
ENDBRANCH  25  26
ENDBRANCH  24  25
ENDBRANCH   1  24
TORSDOF 5
ENDMDL
MODEL 9
REMARK VINA RESULT:      -5.2      3.225      5.253
REMARK  Name = 
REMARK  7 active torsions:
REMARK  status: ('A' for Active; 'I' for Inactive)
REMARK    1  A    between atoms: C_1  and  C_2
REMARK    2  A    between atoms: C_2  and  C_3
REMARK    3  A    between atoms: C_3  and  C_4
REMARK    4  A    between atoms: C_4  and  O_5
REMARK    5  A    between atoms: O_5  and  C_6
REMARK    6  A    between atoms: C_7  and  O_8
REMARK    7  A    between atoms: O_8  and  C_9
REMARK                            x       y       z     vdW  Elec       q    Type
REMARK                         _______ _______ _______ _____ _____    ______ ____
ROOT
ATOM      1  C   UNL     1      -2.663  11.937  19.677  0.00  0.00    +0.000 A 
ATOM      2  C   UNL     1      -3.227  11.315  18.559  0.00  0.00    +0.000 A 
ATOM      3  C   UNL     1      -2.399  10.503  17.767  0.00  0.00    +0.000 A 
ATOM      4  C   UNL     1      -1.020  10.423  18.018  0.00  0.00    +0.000 A 
ATOM      5  C   UNL     1      -0.494  11.017  19.160  0.00  0.00    +0.000 A 
ATOM      6  C   UNL     1      -1.388  11.537  20.090  0.00  0.00    +0.000 A 
ATOM      7  C   UNL     1      -0.901  11.451  21.509  0.00  0.00    +0.000 C 
ATOM      8  N   UNL     1       0.262  12.304  21.753  0.00  0.00    +0.000 NA
ATOM      9  C   UNL     1      -0.290  13.620  22.069  0.00  0.00    +0.000 C 
ATOM     10  C   UNL     1       0.652  14.789  22.026  0.00  0.00    +0.000 C 
ATOM     11  C   UNL     1       1.448  14.789  20.760  0.00  0.00    +0.000 A 
ATOM     12  C   UNL     1       1.905  16.028  20.297  0.00  0.00    +0.000 A 
ATOM     13  C   UNL     1       2.798  16.032  19.255  0.00  0.00    +0.000 A 
ATOM     14  C   UNL     1       3.258  14.865  18.705  0.00  0.00    +0.000 A 
ATOM     15  C   UNL     1       2.796  13.619  19.128  0.00  0.00    +0.000 A 
ATOM     16  C   UNL     1       1.827  13.560  20.144  0.00  0.00    +0.000 A 
ATOM     17  C   UNL     1       1.289  12.208  20.661  0.00  0.00    +0.000 C 
ATOM     18  C   UNL     1       0.965  11.111  19.527  0.00  0.00    +0.000 C 
ATOM     19  O   UNL     1       4.199  15.090  17.748  0.00  0.00    +0.000 OA
ATOM     20  C   UNL     1       4.196  16.538  17.708  0.00  0.00    +0.000 C 
ATOM     21  O   UNL     1       3.355  17.138  18.703  0.00  0.00    +0.000 OA
ENDROOT
BRANCH   2  22
ATOM     22  O   UNL     1      -4.500  11.484  18.088  0.00  0.00    +0.000 OA
ATOM     23  C   UNL     1      -4.654  11.705  16.687  0.00  0.00    +0.000 C 
ENDBRANCH   2  22
BRANCH   1  24
ATOM     24  O   UNL     1      -3.191  13.105  20.209  0.00  0.00    +0.000 OA
BRANCH  24  25
ATOM     25  C   UNL     1      -4.200  12.741  21.199  0.00  0.00    +0.000 C 
BRANCH  25  26
ATOM     26  C   UNL     1      -5.399  13.704  21.192  0.00  0.00    +0.000 C 
BRANCH  26  28
ATOM     27  C   UNL     1      -6.855  11.637  20.719  0.00  0.00    +0.000 C 
ATOM     28  C   UNL     1      -6.568  13.100  20.395  0.00  0.00    +0.000 C 
ENDBRANCH  26  28
ENDBRANCH  25  26
ENDBRANCH  24  25
ENDBRANCH   1  24
TORSDOF 5
ENDMDL
