MODEL 1
REMARK VINA RESULT:      -8.0      0.000      0.000
REMARK  Name = 
REMARK  9 active torsions:
REMARK  status: ('A' for Active; 'I' for Inactive)
REMARK    1  A    between atoms: C_2  and  C_11
REMARK    2  A    between atoms: N_3  and  C_4
REMARK    3  A    between atoms: C_4  and  C_5
REMARK    4  A    between atoms: C_5  and  C_6
REMARK    5  A    between atoms: C_11  and  O_12
REMARK    6  A    between atoms: C_11  and  C_13
REMARK    7  A    between atoms: C_13  and  O_14
REMARK    8  A    between atoms: C_13  and  C_15
REMARK    9  A    between atoms: C_21  and  C_22
REMARK                            x       y       z     vdW  Elec       q    Type
REMARK                         _______ _______ _______ _____ _____    ______ ____
ROOT
ATOM      1  C   UNL     1       6.317   4.456  17.475  0.00  0.00    +0.000 C 
ENDROOT
BRANCH   1   2
ATOM      2  C   UNL     1       4.943   5.144  17.269  0.00  0.00    +0.000 C 
ATOM      3  O   UNL     1       4.866   6.225  16.684  0.00  0.00    +0.000 OA
ATOM      4  N   UNL     1       3.809   4.478  17.696  0.00  0.00    +0.000 N 
ATOM      5  C   UNL     1       3.723   3.153  18.276  0.00  0.00    +0.000 C 
ATOM      6  C   UNL     1       2.389   2.635  17.780  0.00  0.00    +0.000 C 
ATOM      7  C   UNL     1       1.501   3.872  17.758  0.00  0.00    +0.000 C 
ATOM      8  C   UNL     1       2.468   5.053  17.523  0.00  0.00    +0.000 C 
BRANCH   8   9
ATOM      9  C   UNL     1       2.194   6.192  18.492  0.00  0.00    +0.000 A 
ATOM     10  C   UNL     1       2.041   5.937  19.864  0.00  0.00    +0.000 A 
ATOM     11  C   UNL     1       1.798   6.982  20.761  0.00  0.00    +0.000 A 
ATOM     12  C   UNL     1       1.701   8.294  20.302  0.00  0.00    +0.000 A 
ATOM     13  C   UNL     1       1.848   8.558  18.944  0.00  0.00    +0.000 A 
ATOM     14 CL   UNL     1       1.730  10.174  18.363  0.00  0.00    +0.000 Cl
ATOM     15  C   UNL     1       2.094   7.522  18.047  0.00  0.00    +0.000 A 
ENDBRANCH   8   9
ENDBRANCH   1   2
BRANCH   1  16
ATOM     16  O   UNL     1       6.521   4.028  18.819  0.00  0.00    +0.000 OA
ATOM     17  H   UNL     1       5.630   3.827  19.186  0.00  0.00    +0.000 HD
ENDBRANCH   1  16
BRANCH   1  18
ATOM     18  C   UNL     1       7.447   5.379  16.958  0.00  0.00    +0.000 C 
BRANCH  18  20
ATOM     19  O   UNL     1       8.013   6.262  19.151  0.00  0.00    +0.000 OA
ATOM     20  C   UNL     1       7.760   6.497  17.968  0.00  0.00    +0.000 C 
ATOM     21  N   UNL     1       7.792   7.773  17.440  0.00  0.00    +0.000 N 
ATOM     22  H   UNL     1       7.883   7.864  16.432  0.00  0.00    +0.000 HD
BRANCH  21  23
ATOM     23  C   UNL     1       8.101   8.884  18.325  0.00  0.00    +0.000 C 
BRANCH  23  24
ATOM     24  C   UNL     1       8.511  10.167  17.600  0.00  0.00    +0.000 C 
BRANCH  24  25
ATOM     25  C   UNL     1       9.580  10.898  18.364  0.00  0.00    +0.000 A 
ATOM     26  C   UNL     1      10.689  11.553  17.865  0.00  0.00    +0.000 A 
ATOM     27  C   UNL     1      11.479  12.141  18.897  0.00  0.00    +0.000 A 
ATOM     28  C   UNL     1      10.942  11.921  20.145  0.00  0.00    +0.000 A 
ATOM     29  S   UNL     1       9.499  11.006  20.071  0.00  0.00    +0.000 S 
ENDBRANCH  24  25
ENDBRANCH  23  24
ENDBRANCH  21  23
ENDBRANCH  18  20
BRANCH  18  30
ATOM     30  O   UNL     1       7.194   5.854  15.633  0.00  0.00    +0.000 OA
ATOM     31  H   UNL     1       7.771   6.629  15.494  0.00  0.00    +0.000 HD
ENDBRANCH  18  30
ENDBRANCH   1  18
TORSDOF 9
ENDMDL
MODEL 2
REMARK VINA RESULT:      -7.8      0.935      1.071
REMARK  Name = 
REMARK  9 active torsions:
REMARK  status: ('A' for Active; 'I' for Inactive)
REMARK    1  A    between atoms: C_2  and  C_11
REMARK    2  A    between atoms: N_3  and  C_4
REMARK    3  A    between atoms: C_4  and  C_5
REMARK    4  A    between atoms: C_5  and  C_6
REMARK    5  A    between atoms: C_11  and  O_12
REMARK    6  A    between atoms: C_11  and  C_13
REMARK    7  A    between atoms: C_13  and  O_14
REMARK    8  A    between atoms: C_13  and  C_15
REMARK    9  A    between atoms: C_21  and  C_22
REMARK                            x       y       z     vdW  Elec       q    Type
REMARK                         _______ _______ _______ _____ _____    ______ ____
ROOT
ATOM      1  C   UNL     1       6.469   5.180  18.201  0.00  0.00    +0.000 C 
ENDROOT
BRANCH   1   2
ATOM      2  C   UNL     1       5.104   5.807  17.819  0.00  0.00    +0.000 C 
ATOM      3  O   UNL     1       5.054   6.893  17.243  0.00  0.00    +0.000 OA
ATOM      4  N   UNL     1       3.956   5.082  18.082  0.00  0.00    +0.000 N 
ATOM      5  C   UNL     1       3.857   3.744  18.629  0.00  0.00    +0.000 C 
ATOM      6  C   UNL     1       2.628   3.173  17.952  0.00  0.00    +0.000 C 
ATOM      7  C   UNL     1       1.692   4.369  17.826  0.00  0.00    +0.000 C 
ATOM      8  C   UNL     1       2.624   5.597  17.737  0.00  0.00    +0.000 C 
BRANCH   8   9
ATOM      9  C   UNL     1       2.168   6.704  18.674  0.00  0.00    +0.000 A 
ATOM     10  C   UNL     1       1.947   6.439  20.034  0.00  0.00    +0.000 A 
ATOM     11  C   UNL     1       1.536   7.455  20.902  0.00  0.00    +0.000 A 
ATOM     12  C   UNL     1       1.337   8.749  20.424  0.00  0.00    +0.000 A 
ATOM     13  C   UNL     1       1.550   9.024  19.078  0.00  0.00    +0.000 A 
ATOM     14 CL   UNL     1       1.308  10.618  18.474  0.00  0.00    +0.000 Cl
ATOM     15  C   UNL     1       1.964   8.016  18.210  0.00  0.00    +0.000 A 
ENDBRANCH   8   9
ENDBRANCH   1   2
BRANCH   1  16
ATOM     16  O   UNL     1       6.672   5.121  19.610  0.00  0.00    +0.000 OA
ATOM     17  H   UNL     1       6.010   5.728  20.013  0.00  0.00    +0.000 HD
ENDBRANCH   1  16
BRANCH   1  18
ATOM     18  C   UNL     1       7.609   5.917  17.457  0.00  0.00    +0.000 C 
BRANCH  18  20
ATOM     19  O   UNL     1       8.571   7.255  19.244  0.00  0.00    +0.000 OA
ATOM     20  C   UNL     1       7.977   7.233  18.164  0.00  0.00    +0.000 C 
ATOM     21  N   UNL     1       7.644   8.383  17.475  0.00  0.00    +0.000 N 
ATOM     22  H   UNL     1       7.447   8.296  16.482  0.00  0.00    +0.000 HD
BRANCH  21  23
ATOM     23  C   UNL     1       7.975   9.669  18.066  0.00  0.00    +0.000 C 
BRANCH  23  24
ATOM     24  C   UNL     1       9.315  10.243  17.605  0.00  0.00    +0.000 C 
BRANCH  24  25
ATOM     25  C   UNL     1       9.991  10.993  18.718  0.00  0.00    +0.000 A 
ATOM     26  C   UNL     1       9.593  11.107  20.036  0.00  0.00    +0.000 A 
ATOM     27  C   UNL     1      10.497  11.896  20.807  0.00  0.00    +0.000 A 
ATOM     28  C   UNL     1      11.556  12.350  20.055  0.00  0.00    +0.000 A 
ATOM     29  S   UNL     1      11.456  11.831  18.428  0.00  0.00    +0.000 S 
ENDBRANCH  24  25
ENDBRANCH  23  24
ENDBRANCH  21  23
ENDBRANCH  18  20
BRANCH  18  30
ATOM     30  O   UNL     1       7.335   6.069  16.062  0.00  0.00    +0.000 OA
ATOM     31  H   UNL     1       8.192   6.228  15.620  0.00  0.00    +0.000 HD
ENDBRANCH  18  30
ENDBRANCH   1  18
TORSDOF 9
ENDMDL
MODEL 3
REMARK VINA RESULT:      -7.8      1.197      1.604
REMARK  Name = 
REMARK  9 active torsions:
REMARK  status: ('A' for Active; 'I' for Inactive)
REMARK    1  A    between atoms: C_2  and  C_11
REMARK    2  A    between atoms: N_3  and  C_4
REMARK    3  A    between atoms: C_4  and  C_5
REMARK    4  A    between atoms: C_5  and  C_6
REMARK    5  A    between atoms: C_11  and  O_12
REMARK    6  A    between atoms: C_11  and  C_13
REMARK    7  A    between atoms: C_13  and  O_14
REMARK    8  A    between atoms: C_13  and  C_15
REMARK    9  A    between atoms: C_21  and  C_22
REMARK                            x       y       z     vdW  Elec       q    Type
REMARK                         _______ _______ _______ _____ _____    ______ ____
ROOT
ATOM      1  C   UNL     1       6.838   5.219  17.599  0.00  0.00    +0.000 C 
ENDROOT
BRANCH   1   2
ATOM      2  C   UNL     1       5.306   5.416  17.470  0.00  0.00    +0.000 C 
ATOM      3  O   UNL     1       4.843   6.186  16.628  0.00  0.00    +0.000 OA
ATOM      4  N   UNL     1       4.479   4.654  18.274  0.00  0.00    +0.000 N 
ATOM      5  C   UNL     1       4.862   3.618  19.212  0.00  0.00    +0.000 C 
ATOM      6  C   UNL     1       3.712   2.635  19.144  0.00  0.00    +0.000 C 
ATOM      7  C   UNL     1       2.487   3.519  18.941  0.00  0.00    +0.000 C 
ATOM      8  C   UNL     1       3.016   4.768  18.202  0.00  0.00    +0.000 C 
BRANCH   8   9
ATOM      9  C   UNL     1       2.500   6.047  18.842  0.00  0.00    +0.000 A 
ATOM     10  C   UNL     1       2.112   6.062  20.191  0.00  0.00    +0.000 A 
ATOM     11  C   UNL     1       1.645   7.237  20.786  0.00  0.00    +0.000 A 
ATOM     12  C   UNL     1       1.556   8.414  20.044  0.00  0.00    +0.000 A 
ATOM     13  C   UNL     1       1.935   8.411  18.706  0.00  0.00    +0.000 A 
ATOM     14 CL   UNL     1       1.829   9.857  17.778  0.00  0.00    +0.000 Cl
ATOM     15  C   UNL     1       2.405   7.243  18.109  0.00  0.00    +0.000 A 
ENDBRANCH   8   9
ENDBRANCH   1   2
BRANCH   1  16
ATOM     16  O   UNL     1       7.198   3.862  17.845  0.00  0.00    +0.000 OA
ATOM     17  H   UNL     1       7.066   3.380  16.997  0.00  0.00    +0.000 HD
ENDBRANCH   1  16
BRANCH   1  18
ATOM     18  C   UNL     1       7.403   6.195  18.659  0.00  0.00    +0.000 C 
BRANCH  18  20
ATOM     19  O   UNL     1       7.758   7.729  16.808  0.00  0.00    +0.000 OA
ATOM     20  C   UNL     1       7.895   7.500  18.011  0.00  0.00    +0.000 C 
ATOM     21  N   UNL     1       8.449   8.417  18.884  0.00  0.00    +0.000 N 
ATOM     22  H   UNL     1       8.252   8.303  19.874  0.00  0.00    +0.000 HD
BRANCH  21  23
ATOM     23  C   UNL     1       8.921   9.685  18.353  0.00  0.00    +0.000 C 
BRANCH  23  24
ATOM     24  C   UNL     1       9.565  10.600  19.396  0.00  0.00    +0.000 C 
BRANCH  24  25
ATOM     25  C   UNL     1      10.137  11.832  18.752  0.00  0.00    +0.000 A 
ATOM     26  C   UNL     1      10.987  11.912  17.666  0.00  0.00    +0.000 A 
ATOM     27  C   UNL     1      11.312  13.259  17.332  0.00  0.00    +0.000 A 
ATOM     28  C   UNL     1      10.694  14.161  18.169  0.00  0.00    +0.000 A 
ATOM     29  S   UNL     1       9.733  13.384  19.351  0.00  0.00    +0.000 S 
ENDBRANCH  24  25
ENDBRANCH  23  24
ENDBRANCH  21  23
ENDBRANCH  18  20
BRANCH  18  30
ATOM     30  O   UNL     1       8.371   5.571  19.507  0.00  0.00    +0.000 OA
ATOM     31  H   UNL     1       8.466   4.649  19.199  0.00  0.00    +0.000 HD
ENDBRANCH  18  30
ENDBRANCH   1  18
TORSDOF 9
ENDMDL
MODEL 4
REMARK VINA RESULT:      -7.7      1.430      2.025
REMARK  Name = 
REMARK  9 active torsions:
REMARK  status: ('A' for Active; 'I' for Inactive)
REMARK    1  A    between atoms: C_2  and  C_11
REMARK    2  A    between atoms: N_3  and  C_4
REMARK    3  A    between atoms: C_4  and  C_5
REMARK    4  A    between atoms: C_5  and  C_6
REMARK    5  A    between atoms: C_11  and  O_12
REMARK    6  A    between atoms: C_11  and  C_13
REMARK    7  A    between atoms: C_13  and  O_14
REMARK    8  A    between atoms: C_13  and  C_15
REMARK    9  A    between atoms: C_21  and  C_22
REMARK                            x       y       z     vdW  Elec       q    Type
REMARK                         _______ _______ _______ _____ _____    ______ ____
ROOT
ATOM      1  C   UNL     1       6.774   5.219  17.653  0.00  0.00    +0.000 C 
ENDROOT
BRANCH   1   2
ATOM      2  C   UNL     1       5.269   5.489  17.402  0.00  0.00    +0.000 C 
ATOM      3  O   UNL     1       4.904   6.132  16.418  0.00  0.00    +0.000 OA
ATOM      4  N   UNL     1       4.351   4.930  18.272  0.00  0.00    +0.000 N 
ATOM      5  C   UNL     1       4.612   4.046  19.391  0.00  0.00    +0.000 C 
ATOM      6  C   UNL     1       3.396   3.143  19.420  0.00  0.00    +0.000 C 
ATOM      7  C   UNL     1       2.251   4.056  19.000  0.00  0.00    +0.000 C 
ATOM      8  C   UNL     1       2.905   5.124  18.095  0.00  0.00    +0.000 C 
BRANCH   8   9
ATOM      9  C   UNL     1       2.455   6.524  18.481  0.00  0.00    +0.000 A 
ATOM     10  C   UNL     1       2.337   7.527  17.507  0.00  0.00    +0.000 A 
ATOM     11  C   UNL     1       1.916   8.814  17.855  0.00  0.00    +0.000 A 
ATOM     12  C   UNL     1       1.609   9.119  19.181  0.00  0.00    +0.000 A 
ATOM     13  C   UNL     1       1.725   8.134  20.155  0.00  0.00    +0.000 A 
ATOM     14 CL   UNL     1       1.349   8.496  21.796  0.00  0.00    +0.000 Cl
ATOM     15  C   UNL     1       2.140   6.848  19.813  0.00  0.00    +0.000 A 
ENDBRANCH   8   9
ENDBRANCH   1   2
BRANCH   1  16
ATOM     16  O   UNL     1       7.037   3.863  18.007  0.00  0.00    +0.000 OA
ATOM     17  H   UNL     1       6.528   3.306  17.376  0.00  0.00    +0.000 HD
ENDBRANCH   1  16
BRANCH   1  18
ATOM     18  C   UNL     1       7.321   6.230  18.690  0.00  0.00    +0.000 C 
BRANCH  18  20
ATOM     19  O   UNL     1       7.776   7.670  16.786  0.00  0.00    +0.000 OA
ATOM     20  C   UNL     1       7.854   7.499  18.004  0.00  0.00    +0.000 C 
ATOM     21  N   UNL     1       8.373   8.454  18.857  0.00  0.00    +0.000 N 
ATOM     22  H   UNL     1       8.130   8.388  19.841  0.00  0.00    +0.000 HD
BRANCH  21  23
ATOM     23  C   UNL     1       8.880   9.692  18.289  0.00  0.00    +0.000 C 
BRANCH  23  24
ATOM     24  C   UNL     1       9.623  10.581  19.288  0.00  0.00    +0.000 C 
BRANCH  24  25
ATOM     25  C   UNL     1      10.229  11.773  18.600  0.00  0.00    +0.000 A 
ATOM     26  C   UNL     1      11.380  11.826  17.839  0.00  0.00    +0.000 A 
ATOM     27  C   UNL     1      11.637  13.136  17.338  0.00  0.00    +0.000 A 
ATOM     28  C   UNL     1      10.671  14.035  17.729  0.00  0.00    +0.000 A 
ATOM     29  S   UNL     1       9.467  13.303  18.696  0.00  0.00    +0.000 S 
ENDBRANCH  24  25
ENDBRANCH  23  24
ENDBRANCH  21  23
ENDBRANCH  18  20
BRANCH  18  30
ATOM     30  O   UNL     1       8.252   5.628  19.593  0.00  0.00    +0.000 OA
ATOM     31  H   UNL     1       8.950   6.289  19.764  0.00  0.00    +0.000 HD
ENDBRANCH  18  30
ENDBRANCH   1  18
TORSDOF 9
ENDMDL
MODEL 5
REMARK VINA RESULT:      -7.6      4.152      5.871
REMARK  Name = 
REMARK  9 active torsions:
REMARK  status: ('A' for Active; 'I' for Inactive)
REMARK    1  A    between atoms: C_2  and  C_11
REMARK    2  A    between atoms: N_3  and  C_4
REMARK    3  A    between atoms: C_4  and  C_5
REMARK    4  A    between atoms: C_5  and  C_6
REMARK    5  A    between atoms: C_11  and  O_12
REMARK    6  A    between atoms: C_11  and  C_13
REMARK    7  A    between atoms: C_13  and  O_14
REMARK    8  A    between atoms: C_13  and  C_15
REMARK    9  A    between atoms: C_21  and  C_22
REMARK                            x       y       z     vdW  Elec       q    Type
REMARK                         _______ _______ _______ _____ _____    ______ ____
ROOT
ATOM      1  C   UNL     1       6.417   4.773  18.626  0.00  0.00    +0.000 C 
ENDROOT
BRANCH   1   2
ATOM      2  C   UNL     1       5.158   5.528  18.130  0.00  0.00    +0.000 C 
ATOM      3  O   UNL     1       5.261   6.636  17.602  0.00  0.00    +0.000 OA
ATOM      4  N   UNL     1       3.933   4.896  18.234  0.00  0.00    +0.000 N 
ATOM      5  C   UNL     1       3.665   3.552  18.706  0.00  0.00    +0.000 C 
ATOM      6  C   UNL     1       2.477   3.115  17.875  0.00  0.00    +0.000 C 
ATOM      7  C   UNL     1       1.661   4.390  17.704  0.00  0.00    +0.000 C 
ATOM      8  C   UNL     1       2.694   5.536  17.773  0.00  0.00    +0.000 C 
BRANCH   8   9
ATOM      9  C   UNL     1       2.229   6.643  18.705  0.00  0.00    +0.000 A 
ATOM     10  C   UNL     1       1.981   6.374  20.060  0.00  0.00    +0.000 A 
ATOM     11  C   UNL     1       1.561   7.390  20.924  0.00  0.00    +0.000 A 
ATOM     12  C   UNL     1       1.380   8.687  20.448  0.00  0.00    +0.000 A 
ATOM     13  C   UNL     1       1.620   8.965  19.107  0.00  0.00    +0.000 A 
ATOM     14 CL   UNL     1       1.400  10.563  18.505  0.00  0.00    +0.000 Cl
ATOM     15  C   UNL     1       2.042   7.957  18.242  0.00  0.00    +0.000 A 
ENDBRANCH   8   9
ENDBRANCH   1   2
BRANCH   1  16
ATOM     16  O   UNL     1       6.906   5.275  19.867  0.00  0.00    +0.000 OA
ATOM     17  H   UNL     1       6.850   4.532  20.510  0.00  0.00    +0.000 HD
ENDBRANCH   1  16
BRANCH   1  18
ATOM     18  C   UNL     1       7.493   4.763  17.514  0.00  0.00    +0.000 C 
BRANCH  18  20
ATOM     19  O   UNL     1       6.109   3.564  15.915  0.00  0.00    +0.000 OA
ATOM     20  C   UNL     1       6.866   4.512  16.132  0.00  0.00    +0.000 C 
ATOM     21  N   UNL     1       7.167   5.457  15.170  0.00  0.00    +0.000 N 
ATOM     22  H   UNL     1       7.529   6.352  15.486  0.00  0.00    +0.000 HD
BRANCH  21  23
ATOM     23  C   UNL     1       6.598   5.304  13.841  0.00  0.00    +0.000 C 
BRANCH  23  24
ATOM     24  C   UNL     1       7.445   4.458  12.890  0.00  0.00    +0.000 C 
BRANCH  24  25
ATOM     25  C   UNL     1       6.604   3.422  12.197  0.00  0.00    +0.000 A 
ATOM     26  C   UNL     1       5.230   3.382  12.073  0.00  0.00    +0.000 A 
ATOM     27  C   UNL     1       4.787   2.244  11.336  0.00  0.00    +0.000 A 
ATOM     28  C   UNL     1       5.838   1.461  10.917  0.00  0.00    +0.000 A 
ATOM     29  S   UNL     1       7.347   2.092  11.416  0.00  0.00    +0.000 S 
ENDBRANCH  24  25
ENDBRANCH  23  24
ENDBRANCH  21  23
ENDBRANCH  18  20
BRANCH  18  30
ATOM     30  O   UNL     1       8.580   3.886  17.821  0.00  0.00    +0.000 OA
ATOM     31  H   UNL     1       9.271   4.044  17.149  0.00  0.00    +0.000 HD
ENDBRANCH  18  30
ENDBRANCH   1  18
TORSDOF 9
ENDMDL
MODEL 6
REMARK VINA RESULT:      -7.6      2.099      3.328
REMARK  Name = 
REMARK  9 active torsions:
REMARK  status: ('A' for Active; 'I' for Inactive)
REMARK    1  A    between atoms: C_2  and  C_11
REMARK    2  A    between atoms: N_3  and  C_4
REMARK    3  A    between atoms: C_4  and  C_5
REMARK    4  A    between atoms: C_5  and  C_6
REMARK    5  A    between atoms: C_11  and  O_12
REMARK    6  A    between atoms: C_11  and  C_13
REMARK    7  A    between atoms: C_13  and  O_14
REMARK    8  A    between atoms: C_13  and  C_15
REMARK    9  A    between atoms: C_21  and  C_22
REMARK                            x       y       z     vdW  Elec       q    Type
REMARK                         _______ _______ _______ _____ _____    ______ ____
ROOT
ATOM      1  C   UNL     1       5.574   6.375  16.678  0.00  0.00    +0.000 C 
ENDROOT
BRANCH   1   2
ATOM      2  C   UNL     1       4.831   6.061  18.001  0.00  0.00    +0.000 C 
ATOM      3  O   UNL     1       5.333   5.309  18.837  0.00  0.00    +0.000 OA
ATOM      4  N   UNL     1       3.631   6.702  18.245  0.00  0.00    +0.000 N 
ATOM      5  C   UNL     1       2.980   7.707  17.428  0.00  0.00    +0.000 C 
ATOM      6  C   UNL     1       2.287   8.594  18.442  0.00  0.00    +0.000 C 
ATOM      7  C   UNL     1       1.846   7.627  19.534  0.00  0.00    +0.000 C 
ATOM      8  C   UNL     1       2.872   6.473  19.482  0.00  0.00    +0.000 C 
BRANCH   8   9
ATOM      9  C   UNL     1       2.181   5.119  19.498  0.00  0.00    +0.000 A 
ATOM     10  C   UNL     1       1.707   4.548  18.306  0.00  0.00    +0.000 A 
ATOM     11  C   UNL     1       1.078   3.299  18.314  0.00  0.00    +0.000 A 
ATOM     12  C   UNL     1       0.909   2.605  19.511  0.00  0.00    +0.000 A 
ATOM     13  C   UNL     1       1.371   3.162  20.698  0.00  0.00    +0.000 A 
ATOM     14 CL   UNL     1       1.169   2.316  22.183  0.00  0.00    +0.000 Cl
ATOM     15  C   UNL     1       2.003   4.404  20.695  0.00  0.00    +0.000 A 
ENDBRANCH   8   9
ENDBRANCH   1   2
BRANCH   1  16
ATOM     16  O   UNL     1       5.053   5.645  15.569  0.00  0.00    +0.000 OA
ATOM     17  H   UNL     1       5.398   4.727  15.653  0.00  0.00    +0.000 HD
ENDBRANCH   1  16
BRANCH   1  18
ATOM     18  C   UNL     1       7.096   6.172  16.871  0.00  0.00    +0.000 C 
BRANCH  18  20
ATOM     19  O   UNL     1       8.291   6.933  18.846  0.00  0.00    +0.000 OA
ATOM     20  C   UNL     1       7.685   7.234  17.816  0.00  0.00    +0.000 C 
ATOM     21  N   UNL     1       7.533   8.541  17.397  0.00  0.00    +0.000 N 
ATOM     22  H   UNL     1       7.309   8.700  16.419  0.00  0.00    +0.000 HD
BRANCH  21  23
ATOM     23  C   UNL     1       8.079   9.605  18.225  0.00  0.00    +0.000 C 
BRANCH  23  24
ATOM     24  C   UNL     1       9.375  10.213  17.687  0.00  0.00    +0.000 C 
BRANCH  24  25
ATOM     25  C   UNL     1       9.815  11.376  18.533  0.00  0.00    +0.000 A 
ATOM     26  C   UNL     1      10.310  12.596  18.117  0.00  0.00    +0.000 A 
ATOM     27  C   UNL     1      10.615  13.457  19.211  0.00  0.00    +0.000 A 
ATOM     28  C   UNL     1      10.335  12.869  20.423  0.00  0.00    +0.000 A 
ATOM     29  S   UNL     1       9.715  11.286  20.240  0.00  0.00    +0.000 S 
ENDBRANCH  24  25
ENDBRANCH  23  24
ENDBRANCH  21  23
ENDBRANCH  18  20
BRANCH  18  30
ATOM     30  O   UNL     1       7.789   6.061  15.625  0.00  0.00    +0.000 OA
ATOM     31  H   UNL     1       7.768   6.944  15.209  0.00  0.00    +0.000 HD
ENDBRANCH  18  30
ENDBRANCH   1  18
TORSDOF 9
ENDMDL
MODEL 7
REMARK VINA RESULT:      -7.6      2.138      3.264
REMARK  Name = 
REMARK  9 active torsions:
REMARK  status: ('A' for Active; 'I' for Inactive)
REMARK    1  A    between atoms: C_2  and  C_11
REMARK    2  A    between atoms: N_3  and  C_4
REMARK    3  A    between atoms: C_4  and  C_5
REMARK    4  A    between atoms: C_5  and  C_6
REMARK    5  A    between atoms: C_11  and  O_12
REMARK    6  A    between atoms: C_11  and  C_13
REMARK    7  A    between atoms: C_13  and  O_14
REMARK    8  A    between atoms: C_13  and  C_15
REMARK    9  A    between atoms: C_21  and  C_22
REMARK                            x       y       z     vdW  Elec       q    Type
REMARK                         _______ _______ _______ _____ _____    ______ ____
ROOT
ATOM      1  C   UNL     1       5.475   6.016  17.056  0.00  0.00    +0.000 C 
ENDROOT
BRANCH   1   2
ATOM      2  C   UNL     1       4.849   5.852  18.464  0.00  0.00    +0.000 C 
ATOM      3  O   UNL     1       5.464   5.271  19.359  0.00  0.00    +0.000 OA
ATOM      4  N   UNL     1       3.618   6.434  18.704  0.00  0.00    +0.000 N 
ATOM      5  C   UNL     1       2.835   7.256  17.802  0.00  0.00    +0.000 C 
ATOM      6  C   UNL     1       2.139   8.233  18.727  0.00  0.00    +0.000 C 
ATOM      7  C   UNL     1       1.851   7.411  19.978  0.00  0.00    +0.000 C 
ATOM      8  C   UNL     1       2.962   6.339  20.015  0.00  0.00    +0.000 C 
BRANCH   8   9
ATOM      9  C   UNL     1       2.387   4.957  20.279  0.00  0.00    +0.000 A 
ATOM     10  C   UNL     1       2.489   4.375  21.552  0.00  0.00    +0.000 A 
ATOM     11  C   UNL     1       1.954   3.108  21.802  0.00  0.00    +0.000 A 
ATOM     12  C   UNL     1       1.313   2.402  20.785  0.00  0.00    +0.000 A 
ATOM     13  C   UNL     1       1.208   2.967  19.519  0.00  0.00    +0.000 A 
ATOM     14 CL   UNL     1       0.419   2.107  18.254  0.00  0.00    +0.000 Cl
ATOM     15  C   UNL     1       1.736   4.232  19.266  0.00  0.00    +0.000 A 
ENDBRANCH   8   9
ENDBRANCH   1   2
BRANCH   1  16
ATOM     16  O   UNL     1       4.777   5.279  16.055  0.00  0.00    +0.000 OA
ATOM     17  H   UNL     1       4.363   5.943  15.459  0.00  0.00    +0.000 HD
ENDBRANCH   1  16
BRANCH   1  18
ATOM     18  C   UNL     1       6.984   5.676  17.113  0.00  0.00    +0.000 C 
BRANCH  18  20
ATOM     19  O   UNL     1       8.227   6.169  19.142  0.00  0.00    +0.000 OA
ATOM     20  C   UNL     1       7.726   6.594  18.099  0.00  0.00    +0.000 C 
ATOM     21  N   UNL     1       7.838   7.913  17.704  0.00  0.00    +0.000 N 
ATOM     22  H   UNL     1       7.684   8.125  16.723  0.00  0.00    +0.000 HD
BRANCH  21  23
ATOM     23  C   UNL     1       8.543   8.842  18.572  0.00  0.00    +0.000 C 
BRANCH  23  24
ATOM     24  C   UNL     1       8.652  10.261  18.012  0.00  0.00    +0.000 C 
BRANCH  24  25
ATOM     25  C   UNL     1       9.711  11.045  18.737  0.00  0.00    +0.000 A 
ATOM     26  C   UNL     1       9.850  11.238  20.097  0.00  0.00    +0.000 A 
ATOM     27  C   UNL     1      10.987  12.036  20.417  0.00  0.00    +0.000 A 
ATOM     28  C   UNL     1      11.680  12.419  19.291  0.00  0.00    +0.000 A 
ATOM     29  S   UNL     1      10.959  11.823  17.860  0.00  0.00    +0.000 S 
ENDBRANCH  24  25
ENDBRANCH  23  24
ENDBRANCH  21  23
ENDBRANCH  18  20
BRANCH  18  30
ATOM     30  O   UNL     1       7.577   5.629  15.812  0.00  0.00    +0.000 OA
ATOM     31  H   UNL     1       6.984   5.094  15.250  0.00  0.00    +0.000 HD
ENDBRANCH  18  30
ENDBRANCH   1  18
TORSDOF 9
ENDMDL
MODEL 8
REMARK VINA RESULT:      -7.3      1.167      1.513
REMARK  Name = 
REMARK  9 active torsions:
REMARK  status: ('A' for Active; 'I' for Inactive)
REMARK    1  A    between atoms: C_2  and  C_11
REMARK    2  A    between atoms: N_3  and  C_4
REMARK    3  A    between atoms: C_4  and  C_5
REMARK    4  A    between atoms: C_5  and  C_6
REMARK    5  A    between atoms: C_11  and  O_12
REMARK    6  A    between atoms: C_11  and  C_13
REMARK    7  A    between atoms: C_13  and  O_14
REMARK    8  A    between atoms: C_13  and  C_15
REMARK    9  A    between atoms: C_21  and  C_22
REMARK                            x       y       z     vdW  Elec       q    Type
REMARK                         _______ _______ _______ _____ _____    ______ ____
ROOT
ATOM      1  C   UNL     1       6.432   5.064  18.336  0.00  0.00    +0.000 C 
ENDROOT
BRANCH   1   2
ATOM      2  C   UNL     1       5.068   5.589  17.821  0.00  0.00    +0.000 C 
ATOM      3  O   UNL     1       5.020   6.424  16.917  0.00  0.00    +0.000 OA
ATOM      4  N   UNL     1       3.915   5.046  18.356  0.00  0.00    +0.000 N 
ATOM      5  C   UNL     1       3.805   3.971  19.322  0.00  0.00    +0.000 C 
ATOM      6  C   UNL     1       2.527   3.264  18.923  0.00  0.00    +0.000 C 
ATOM      7  C   UNL     1       1.620   4.391  18.442  0.00  0.00    +0.000 C 
ATOM      8  C   UNL     1       2.582   5.477  17.911  0.00  0.00    +0.000 C 
BRANCH   8   9
ATOM      9  C   UNL     1       2.209   6.851  18.442  0.00  0.00    +0.000 A 
ATOM     10  C   UNL     1       2.099   7.945  17.569  0.00  0.00    +0.000 A 
ATOM     11  C   UNL     1       1.748   9.210  18.051  0.00  0.00    +0.000 A 
ATOM     12  C   UNL     1       1.504   9.401  19.410  0.00  0.00    +0.000 A 
ATOM     13  C   UNL     1       1.613   8.326  20.285  0.00  0.00    +0.000 A 
ATOM     14 CL   UNL     1       1.315   8.548  21.965  0.00  0.00    +0.000 Cl
ATOM     15  C   UNL     1       1.958   7.062  19.809  0.00  0.00    +0.000 A 
ENDBRANCH   8   9
ENDBRANCH   1   2
BRANCH   1  16
ATOM     16  O   UNL     1       6.580   5.209  19.747  0.00  0.00    +0.000 OA
ATOM     17  H   UNL     1       5.704   5.496  20.091  0.00  0.00    +0.000 HD
ENDBRANCH   1  16
BRANCH   1  18
ATOM     18  C   UNL     1       7.583   5.725  17.539  0.00  0.00    +0.000 C 
BRANCH  18  20
ATOM     19  O   UNL     1       8.519   7.224  19.206  0.00  0.00    +0.000 OA
ATOM     20  C   UNL     1       7.948   7.100  18.122  0.00  0.00    +0.000 C 
ATOM     21  N   UNL     1       7.639   8.180  17.317  0.00  0.00    +0.000 N 
ATOM     22  H   UNL     1       7.462   7.999  16.333  0.00  0.00    +0.000 HD
BRANCH  21  23
ATOM     23  C   UNL     1       7.970   9.515  17.787  0.00  0.00    +0.000 C 
BRANCH  23  24
ATOM     24  C   UNL     1       9.029   9.547  18.889  0.00  0.00    +0.000 C 
BRANCH  24  25
ATOM     25  C   UNL     1       9.767  10.856  18.890  0.00  0.00    +0.000 A 
ATOM     26  C   UNL     1      10.265  11.556  17.809  0.00  0.00    +0.000 A 
ATOM     27  C   UNL     1      10.902  12.771  18.199  0.00  0.00    +0.000 A 
ATOM     28  C   UNL     1      10.861  12.960  19.562  0.00  0.00    +0.000 A 
ATOM     29  S   UNL     1      10.064  11.677  20.364  0.00  0.00    +0.000 S 
ENDBRANCH  24  25
ENDBRANCH  23  24
ENDBRANCH  21  23
ENDBRANCH  18  20
BRANCH  18  30
ATOM     30  O   UNL     1       7.323   5.745  16.133  0.00  0.00    +0.000 OA
ATOM     31  H   UNL     1       8.186   5.843  15.686  0.00  0.00    +0.000 HD
ENDBRANCH  18  30
ENDBRANCH   1  18
TORSDOF 9
ENDMDL
MODEL 9
REMARK VINA RESULT:      -7.3      2.288      3.219
REMARK  Name = 
REMARK  9 active torsions:
REMARK  status: ('A' for Active; 'I' for Inactive)
REMARK    1  A    between atoms: C_2  and  C_11
REMARK    2  A    between atoms: N_3  and  C_4
REMARK    3  A    between atoms: C_4  and  C_5
REMARK    4  A    between atoms: C_5  and  C_6
REMARK    5  A    between atoms: C_11  and  O_12
REMARK    6  A    between atoms: C_11  and  C_13
REMARK    7  A    between atoms: C_13  and  O_14
REMARK    8  A    between atoms: C_13  and  C_15
REMARK    9  A    between atoms: C_21  and  C_22
REMARK                            x       y       z     vdW  Elec       q    Type
REMARK                         _______ _______ _______ _____ _____    ______ ____
ROOT
ATOM      1  C   UNL     1       5.784   4.797  16.742  0.00  0.00    +0.000 C 
ENDROOT
BRANCH   1   2
ATOM      2  C   UNL     1       5.186   4.924  18.166  0.00  0.00    +0.000 C 
ATOM      3  O   UNL     1       5.720   4.361  19.122  0.00  0.00    +0.000 OA
ATOM      4  N   UNL     1       4.082   5.738  18.341  0.00  0.00    +0.000 N 
ATOM      5  C   UNL     1       3.423   6.564  17.349  0.00  0.00    +0.000 C 
ATOM      6  C   UNL     1       2.937   7.756  18.147  0.00  0.00    +0.000 C 
ATOM      7  C   UNL     1       2.553   7.162  19.496  0.00  0.00    +0.000 C 
ATOM      8  C   UNL     1       3.464   5.925  19.661  0.00  0.00    +0.000 C 
BRANCH   8   9
ATOM      9  C   UNL     1       2.668   4.710  20.107  0.00  0.00    +0.000 A 
ATOM     10  C   UNL     1       2.639   4.335  21.460  0.00  0.00    +0.000 A 
ATOM     11  C   UNL     1       1.902   3.223  21.877  0.00  0.00    +0.000 A 
ATOM     12  C   UNL     1       1.186   2.467  20.951  0.00  0.00    +0.000 A 
ATOM     13  C   UNL     1       1.209   2.826  19.608  0.00  0.00    +0.000 A 
ATOM     14 CL   UNL     1       0.329   1.902  18.453  0.00  0.00    +0.000 Cl
ATOM     15  C   UNL     1       1.938   3.936  19.187  0.00  0.00    +0.000 A 
ENDBRANCH   8   9
ENDBRANCH   1   2
BRANCH   1  16
ATOM     16  O   UNL     1       5.594   3.501  16.180  0.00  0.00    +0.000 OA
ATOM     17  H   UNL     1       6.019   2.863  16.797  0.00  0.00    +0.000 HD
ENDBRANCH   1  16
BRANCH   1  18
ATOM     18  C   UNL     1       7.269   5.235  16.758  0.00  0.00    +0.000 C 
BRANCH  18  20
ATOM     19  O   UNL     1       7.796   6.405  18.823  0.00  0.00    +0.000 OA
ATOM     20  C   UNL     1       7.473   6.482  17.636  0.00  0.00    +0.000 C 
ATOM     21  N   UNL     1       7.323   7.691  16.983  0.00  0.00    +0.000 N 
ATOM     22  H   UNL     1       7.365   7.686  15.968  0.00  0.00    +0.000 HD
BRANCH  21  23
ATOM     23  C   UNL     1       7.519   8.918  17.737  0.00  0.00    +0.000 C 
BRANCH  23  24
ATOM     24  C   UNL     1       8.840   8.977  18.505  0.00  0.00    +0.000 C 
BRANCH  24  25
ATOM     25  C   UNL     1       9.098  10.363  19.027  0.00  0.00    +0.000 A 
ATOM     26  C   UNL     1       9.469  10.740  20.303  0.00  0.00    +0.000 A 
ATOM     27  C   UNL     1       9.632  12.151  20.424  0.00  0.00    +0.000 A 
ATOM     28  C   UNL     1       9.388  12.801  19.236  0.00  0.00    +0.000 A 
ATOM     29  S   UNL     1       8.960  11.715  17.986  0.00  0.00    +0.000 S 
ENDBRANCH  24  25
ENDBRANCH  23  24
ENDBRANCH  21  23
ENDBRANCH  18  20
BRANCH  18  30
ATOM     30  O   UNL     1       7.809   5.363  15.440  0.00  0.00    +0.000 OA
ATOM     31  H   UNL     1       7.062   5.569  14.846  0.00  0.00    +0.000 HD
ENDBRANCH  18  30
ENDBRANCH   1  18
TORSDOF 9
ENDMDL
