MODEL 1
REMARK VINA RESULT:      -7.9      0.000      0.000
REMARK  Name = 
REMARK  7 active torsions:
REMARK  status: ('A' for Active; 'I' for Inactive)
REMARK    1  A    between atoms: C_1  and  C_2
REMARK    2  A    between atoms: N_7  and  C_8
REMARK    3  A    between atoms: C_13  and  O_14
REMARK    4  A    between atoms: C_19  and  C_20
REMARK    5  A    between atoms: C_20  and  C_21
REMARK    6  A    between atoms: C_24  and  C_25
REMARK    7  A    between atoms: N_28  and  C_29
REMARK                            x       y       z     vdW  Elec       q    Type
REMARK                         _______ _______ _______ _____ _____    ______ ____
ROOT
ATOM      1  C   UNL     1       1.323  12.896  18.598  0.00  0.00    +0.000 C 
ATOM      2  C   UNL     1       1.323  11.433  18.950  0.00  0.00    +0.000 A 
ATOM      3  C   UNL     1       1.869  10.512  18.029  0.00  0.00    +0.000 A 
ATOM      4  C   UNL     1       2.000   9.162  18.347  0.00  0.00    +0.000 A 
ATOM      5  N   UNL     1       2.676   8.306  17.459  0.00  0.00    +0.000 NA
ATOM      6  C   UNL     1       2.900   7.098  17.858  0.00  0.00    +0.000 A 
ATOM      7  N   UNL     1       2.485   6.562  19.059  0.00  0.00    +0.000 N 
ATOM      8  C   UNL     1       1.756   7.324  19.958  0.00  0.00    +0.000 A 
ATOM      9  O   UNL     1       1.350   6.918  21.042  0.00  0.00    +0.000 OA
ATOM     10  C   UNL     1       1.505   8.722  19.567  0.00  0.00    +0.000 A 
ATOM     11  C   UNL     1       0.888   9.601  20.463  0.00  0.00    +0.000 A 
ATOM     12  C   UNL     1       0.852  10.977  20.201  0.00  0.00    +0.000 A 
ENDROOT
BRANCH   7  13
ATOM     13  C   UNL     1       2.830   5.182  19.438  0.00  0.00    +0.000 C 
ATOM     14  C   UNL     1       1.784   4.188  18.923  0.00  0.00    +0.000 C 
ATOM     15  C   UNL     1       2.139   2.753  19.288  0.00  0.00    +0.000 C 
ATOM     16  C   UNL     1       3.546   2.387  18.827  0.00  0.00    +0.000 C 
ATOM     17  C   UNL     1       4.586   3.349  19.391  0.00  0.00    +0.000 C 
ATOM     18  C   UNL     1       4.269   4.797  19.012  0.00  0.00    +0.000 C 
BRANCH  18  19
ATOM     19  O   UNL     1       5.238   5.652  19.623  0.00  0.00    +0.000 OA
ATOM     20  H   UNL     1       5.406   6.406  19.029  0.00  0.00    +0.000 HD
ENDBRANCH  18  19
ENDBRANCH   7  13
BRANCH  12  21
ATOM     21  C   UNL     1       0.390  11.934  21.297  0.00  0.00    +0.000 C 
BRANCH  21  22
ATOM     22  C   UNL     1      -1.098  12.043  21.439  0.00  0.00    +0.000 A 
ATOM     23  C   UNL     1      -1.915  12.329  20.345  0.00  0.00    +0.000 A 
ATOM     24  C   UNL     1      -3.249  12.632  20.549  0.00  0.00    +0.000 A 
ATOM     25  C   UNL     1      -3.750  12.596  21.844  0.00  0.00    +0.000 A 
ATOM     26  N   UNL     1      -3.020  12.199  22.909  0.00  0.00    +0.000 NA
ATOM     27  C   UNL     1      -1.717  11.932  22.682  0.00  0.00    +0.000 A 
BRANCH  25  28
ATOM     28  C   UNL     1      -5.100  13.050  22.112  0.00  0.00    +0.000 A 
ATOM     29  C   UNL     1      -6.331  12.663  21.530  0.00  0.00    +0.000 A 
ATOM     30  N   UNL     1      -7.368  13.314  22.042  0.00  0.00    +0.000 NA
ATOM     31  N   UNL     1      -6.811  14.124  22.960  0.00  0.00    +0.000 N 
ATOM     32  C   UNL     1      -7.637  14.968  23.783  0.00  0.00    +0.000 C 
ATOM     33  C   UNL     1      -5.452  14.016  23.026  0.00  0.00    +0.000 A 
ENDBRANCH  25  28
ENDBRANCH  21  22
ENDBRANCH  12  21
TORSDOF 5
ENDMDL
MODEL 2
REMARK VINA RESULT:      -7.8      4.306     10.429
REMARK  Name = 
REMARK  7 active torsions:
REMARK  status: ('A' for Active; 'I' for Inactive)
REMARK    1  A    between atoms: C_1  and  C_2
REMARK    2  A    between atoms: N_7  and  C_8
REMARK    3  A    between atoms: C_13  and  O_14
REMARK    4  A    between atoms: C_19  and  C_20
REMARK    5  A    between atoms: C_20  and  C_21
REMARK    6  A    between atoms: C_24  and  C_25
REMARK    7  A    between atoms: N_28  and  C_29
REMARK                            x       y       z     vdW  Elec       q    Type
REMARK                         _______ _______ _______ _____ _____    ______ ____
ROOT
ATOM      1  C   UNL     1       4.743   3.850  19.669  0.00  0.00    +0.000 C 
ATOM      2  C   UNL     1       3.943   5.068  19.297  0.00  0.00    +0.000 A 
ATOM      3  C   UNL     1       2.834   5.424  20.094  0.00  0.00    +0.000 A 
ATOM      4  C   UNL     1       2.125   6.601  19.867  0.00  0.00    +0.000 A 
ATOM      5  N   UNL     1       1.118   6.988  20.769  0.00  0.00    +0.000 NA
ATOM      6  C   UNL     1       0.588   8.154  20.600  0.00  0.00    +0.000 A 
ATOM      7  N   UNL     1       0.890   9.028  19.577  0.00  0.00    +0.000 N 
ATOM      8  C   UNL     1       1.823   8.691  18.611  0.00  0.00    +0.000 A 
ATOM      9  O   UNL     1       2.141   9.413  17.672  0.00  0.00    +0.000 OA
ATOM     10  C   UNL     1       2.485   7.386  18.779  0.00  0.00    +0.000 A 
ATOM     11  C   UNL     1       3.530   7.014  17.926  0.00  0.00    +0.000 A 
ATOM     12  C   UNL     1       4.318   5.891  18.212  0.00  0.00    +0.000 A 
ENDROOT
BRANCH   7  13
ATOM     13  C   UNL     1       0.257  10.356  19.499  0.00  0.00    +0.000 C 
ATOM     14  C   UNL     1      -1.062  10.295  18.723  0.00  0.00    +0.000 C 
ATOM     15  C   UNL     1      -1.741  11.657  18.652  0.00  0.00    +0.000 C 
ATOM     16  C   UNL     1      -1.923  12.267  20.039  0.00  0.00    +0.000 C 
ATOM     17  C   UNL     1      -0.595  12.374  20.780  0.00  0.00    +0.000 C 
ATOM     18  C   UNL     1       0.092  11.012  20.892  0.00  0.00    +0.000 C 
BRANCH  18  19
ATOM     19  O   UNL     1       1.356  11.190  21.535  0.00  0.00    +0.000 OA
ATOM     20  H   UNL     1       1.265  10.942  22.474  0.00  0.00    +0.000 HD
ENDBRANCH  18  19
ENDBRANCH   7  13
BRANCH  12  21
ATOM     21  C   UNL     1       5.591   5.648  17.404  0.00  0.00    +0.000 C 
BRANCH  21  22
ATOM     22  C   UNL     1       6.664   6.672  17.614  0.00  0.00    +0.000 A 
ATOM     23  C   UNL     1       7.679   6.483  18.552  0.00  0.00    +0.000 A 
ATOM     24  C   UNL     1       8.522   7.532  18.869  0.00  0.00    +0.000 A 
ATOM     25  C   UNL     1       8.361   8.741  18.203  0.00  0.00    +0.000 A 
ATOM     26  N   UNL     1       7.474   8.919  17.199  0.00  0.00    +0.000 NA
ATOM     27  C   UNL     1       6.651   7.885  16.929  0.00  0.00    +0.000 A 
BRANCH  25  28
ATOM     28  C   UNL     1       9.125   9.901  18.612  0.00  0.00    +0.000 A 
ATOM     29  C   UNL     1       9.856  10.837  17.841  0.00  0.00    +0.000 A 
ATOM     30  N   UNL     1      10.435  11.773  18.583  0.00  0.00    +0.000 NA
ATOM     31  N   UNL     1      10.077  11.448  19.838  0.00  0.00    +0.000 N 
ATOM     32  C   UNL     1      10.473  12.277  20.947  0.00  0.00    +0.000 C 
ATOM     33  C   UNL     1       9.307  10.323  19.909  0.00  0.00    +0.000 A 
ENDBRANCH  25  28
ENDBRANCH  21  22
ENDBRANCH  12  21
TORSDOF 5
ENDMDL
MODEL 3
REMARK VINA RESULT:      -7.7      3.832      6.179
REMARK  Name = 
REMARK  7 active torsions:
REMARK  status: ('A' for Active; 'I' for Inactive)
REMARK    1  A    between atoms: C_1  and  C_2
REMARK    2  A    between atoms: N_7  and  C_8
REMARK    3  A    between atoms: C_13  and  O_14
REMARK    4  A    between atoms: C_19  and  C_20
REMARK    5  A    between atoms: C_20  and  C_21
REMARK    6  A    between atoms: C_24  and  C_25
REMARK    7  A    between atoms: N_28  and  C_29
REMARK                            x       y       z     vdW  Elec       q    Type
REMARK                         _______ _______ _______ _____ _____    ______ ____
ROOT
ATOM      1  C   UNL     1      -0.872  10.452  22.797  0.00  0.00    +0.000 C 
ATOM      2  C   UNL     1       0.005   9.919  21.697  0.00  0.00    +0.000 A 
ATOM      3  C   UNL     1       0.631   8.666  21.873  0.00  0.00    +0.000 A 
ATOM      4  C   UNL     1       1.361   8.070  20.847  0.00  0.00    +0.000 A 
ATOM      5  N   UNL     1       1.848   6.761  21.014  0.00  0.00    +0.000 NA
ATOM      6  C   UNL     1       2.392   6.197  19.987  0.00  0.00    +0.000 A 
ATOM      7  N   UNL     1       2.583   6.789  18.757  0.00  0.00    +0.000 N 
ATOM      8  C   UNL     1       2.191   8.099  18.535  0.00  0.00    +0.000 A 
ATOM      9  O   UNL     1       2.330   8.694  17.471  0.00  0.00    +0.000 OA
ATOM     10  C   UNL     1       1.530   8.777  19.664  0.00  0.00    +0.000 A 
ATOM     11  C   UNL     1       0.986  10.055  19.494  0.00  0.00    +0.000 A 
ATOM     12  C   UNL     1       0.160  10.614  20.477  0.00  0.00    +0.000 A 
ENDROOT
BRANCH   7  13
ATOM     13  C   UNL     1       3.177   6.042  17.635  0.00  0.00    +0.000 C 
ATOM     14  C   UNL     1       4.688   6.280  17.550  0.00  0.00    +0.000 C 
ATOM     15  C   UNL     1       5.321   5.496  16.408  0.00  0.00    +0.000 C 
ATOM     16  C   UNL     1       4.983   4.011  16.491  0.00  0.00    +0.000 C 
ATOM     17  C   UNL     1       3.475   3.783  16.518  0.00  0.00    +0.000 C 
ATOM     18  C   UNL     1       2.819   4.535  17.677  0.00  0.00    +0.000 C 
BRANCH  18  19
ATOM     19  O   UNL     1       1.406   4.336  17.608  0.00  0.00    +0.000 OA
ATOM     20  H   UNL     1       0.963   5.188  17.777  0.00  0.00    +0.000 HD
ENDBRANCH  18  19
ENDBRANCH   7  13
BRANCH  12  21
ATOM     21  C   UNL     1      -0.608  11.897  20.166  0.00  0.00    +0.000 C 
BRANCH  21  22
ATOM     22  C   UNL     1       0.255  13.111  20.002  0.00  0.00    +0.000 A 
ATOM     23  C   UNL     1       0.570  13.617  18.741  0.00  0.00    +0.000 A 
ATOM     24  C   UNL     1       1.534  14.601  18.621  0.00  0.00    +0.000 A 
ATOM     25  C   UNL     1       2.131  15.095  19.774  0.00  0.00    +0.000 A 
ATOM     26  N   UNL     1       1.758  14.720  21.018  0.00  0.00    +0.000 NA
ATOM     27  C   UNL     1       0.832  13.742  21.102  0.00  0.00    +0.000 A 
BRANCH  25  28
ATOM     28  C   UNL     1       3.245  16.015  19.678  0.00  0.00    +0.000 A 
ATOM     29  C   UNL     1       3.352  17.370  20.072  0.00  0.00    +0.000 A 
ATOM     30  N   UNL     1       4.547  17.888  19.813  0.00  0.00    +0.000 NA
ATOM     31  N   UNL     1       5.219  16.867  19.253  0.00  0.00    +0.000 N 
ATOM     32  C   UNL     1       6.599  17.022  18.876  0.00  0.00    +0.000 C 
ATOM     33  C   UNL     1       4.475  15.728  19.132  0.00  0.00    +0.000 A 
ENDBRANCH  25  28
ENDBRANCH  21  22
ENDBRANCH  12  21
TORSDOF 5
ENDMDL
MODEL 4
REMARK VINA RESULT:      -7.7      4.205     10.443
REMARK  Name = 
REMARK  7 active torsions:
REMARK  status: ('A' for Active; 'I' for Inactive)
REMARK    1  A    between atoms: C_1  and  C_2
REMARK    2  A    between atoms: N_7  and  C_8
REMARK    3  A    between atoms: C_13  and  O_14
REMARK    4  A    between atoms: C_19  and  C_20
REMARK    5  A    between atoms: C_20  and  C_21
REMARK    6  A    between atoms: C_24  and  C_25
REMARK    7  A    between atoms: N_28  and  C_29
REMARK                            x       y       z     vdW  Elec       q    Type
REMARK                         _______ _______ _______ _____ _____    ______ ____
ROOT
ATOM      1  C   UNL     1       4.756   3.289  19.339  0.00  0.00    +0.000 C 
ATOM      2  C   UNL     1       4.009   4.583  19.165  0.00  0.00    +0.000 A 
ATOM      3  C   UNL     1       2.901   4.846  20.000  0.00  0.00    +0.000 A 
ATOM      4  C   UNL     1       2.241   6.073  19.964  0.00  0.00    +0.000 A 
ATOM      5  N   UNL     1       1.235   6.345  20.908  0.00  0.00    +0.000 NA
ATOM      6  C   UNL     1       0.752   7.543  20.930  0.00  0.00    +0.000 A 
ATOM      7  N   UNL     1       1.103   8.562  20.069  0.00  0.00    +0.000 N 
ATOM      8  C   UNL     1       2.039   8.351  19.069  0.00  0.00    +0.000 A 
ATOM      9  O   UNL     1       2.399   9.206  18.266  0.00  0.00    +0.000 OA
ATOM     10  C   UNL     1       2.648   7.011  19.025  0.00  0.00    +0.000 A 
ATOM     11  C   UNL     1       3.692   6.744  18.132  0.00  0.00    +0.000 A 
ATOM     12  C   UNL     1       4.432   5.559  18.236  0.00  0.00    +0.000 A 
ENDROOT
BRANCH   7  13
ATOM     13  C   UNL     1       0.523   9.908  20.205  0.00  0.00    +0.000 C 
ATOM     14  C   UNL     1      -0.642  10.110  19.231  0.00  0.00    +0.000 C 
ATOM     15  C   UNL     1      -1.268  11.492  19.375  0.00  0.00    +0.000 C 
ATOM     16  C   UNL     1      -1.677  11.775  20.818  0.00  0.00    +0.000 C 
ATOM     17  C   UNL     1      -0.496  11.626  21.771  0.00  0.00    +0.000 C 
ATOM     18  C   UNL     1       0.131  10.235  21.668  0.00  0.00    +0.000 C 
BRANCH  18  19
ATOM     19  O   UNL     1       1.267  10.181  22.533  0.00  0.00    +0.000 OA
ATOM     20  H   UNL     1       1.027   9.674  23.331  0.00  0.00    +0.000 HD
ENDBRANCH  18  19
ENDBRANCH   7  13
BRANCH  12  21
ATOM     21  C   UNL     1       5.707   5.401  17.411  0.00  0.00    +0.000 C 
BRANCH  21  22
ATOM     22  C   UNL     1       6.733   6.468  17.645  0.00  0.00    +0.000 A 
ATOM     23  C   UNL     1       7.697   6.346  18.646  0.00  0.00    +0.000 A 
ATOM     24  C   UNL     1       8.485   7.435  18.971  0.00  0.00    +0.000 A 
ATOM     25  C   UNL     1       8.325   8.613  18.254  0.00  0.00    +0.000 A 
ATOM     26  N   UNL     1       7.492   8.727  17.195  0.00  0.00    +0.000 NA
ATOM     27  C   UNL     1       6.720   7.656  16.917  0.00  0.00    +0.000 A 
BRANCH  25  28
ATOM     28  C   UNL     1       9.025   9.813  18.663  0.00  0.00    +0.000 A 
ATOM     29  C   UNL     1       9.321  10.307  19.957  0.00  0.00    +0.000 A 
ATOM     30  N   UNL     1       9.984  11.456  19.929  0.00  0.00    +0.000 NA
ATOM     31  N   UNL     1      10.124  11.709  18.615  0.00  0.00    +0.000 N 
ATOM     32  C   UNL     1      10.854  12.866  18.169  0.00  0.00    +0.000 C 
ATOM     33  C   UNL     1       9.549  10.763  17.816  0.00  0.00    +0.000 A 
ENDBRANCH  25  28
ENDBRANCH  21  22
ENDBRANCH  12  21
TORSDOF 5
ENDMDL
MODEL 5
REMARK VINA RESULT:      -7.7      4.069      5.891
REMARK  Name = 
REMARK  7 active torsions:
REMARK  status: ('A' for Active; 'I' for Inactive)
REMARK    1  A    between atoms: C_1  and  C_2
REMARK    2  A    between atoms: N_7  and  C_8
REMARK    3  A    between atoms: C_13  and  O_14
REMARK    4  A    between atoms: C_19  and  C_20
REMARK    5  A    between atoms: C_20  and  C_21
REMARK    6  A    between atoms: C_24  and  C_25
REMARK    7  A    between atoms: N_28  and  C_29
REMARK                            x       y       z     vdW  Elec       q    Type
REMARK                         _______ _______ _______ _____ _____    ______ ____
ROOT
ATOM      1  C   UNL     1      -0.641   8.959  22.221  0.00  0.00    +0.000 C 
ATOM      2  C   UNL     1       0.369   8.677  21.142  0.00  0.00    +0.000 A 
ATOM      3  C   UNL     1       1.214   7.555  21.278  0.00  0.00    +0.000 A 
ATOM      4  C   UNL     1       2.089   7.178  20.261  0.00  0.00    +0.000 A 
ATOM      5  N   UNL     1       2.809   5.976  20.377  0.00  0.00    +0.000 NA
ATOM      6  C   UNL     1       3.495   5.596  19.351  0.00  0.00    +0.000 A 
ATOM      7  N   UNL     1       3.624   6.297  18.171  0.00  0.00    +0.000 N 
ATOM      8  C   UNL     1       2.999   7.522  18.005  0.00  0.00    +0.000 A 
ATOM      9  O   UNL     1       3.069   8.204  16.988  0.00  0.00    +0.000 OA
ATOM     10  C   UNL     1       2.172   7.984  19.133  0.00  0.00    +0.000 A 
ATOM     11  C   UNL     1       1.402   9.146  19.009  0.00  0.00    +0.000 A 
ATOM     12  C   UNL     1       0.442   9.471  19.976  0.00  0.00    +0.000 A 
ENDROOT
BRANCH   7  13
ATOM     13  C   UNL     1       4.398   5.754  17.042  0.00  0.00    +0.000 C 
ATOM     14  C   UNL     1       5.826   6.310  17.031  0.00  0.00    +0.000 C 
ATOM     15  C   UNL     1       6.647   5.740  15.882  0.00  0.00    +0.000 C 
ATOM     16  C   UNL     1       6.630   4.214  15.883  0.00  0.00    +0.000 C 
ATOM     17  C   UNL     1       5.206   3.672  15.836  0.00  0.00    +0.000 C 
ATOM     18  C   UNL     1       4.369   4.205  16.999  0.00  0.00    +0.000 C 
BRANCH  18  19
ATOM     19  O   UNL     1       3.033   3.716  16.863  0.00  0.00    +0.000 OA
ATOM     20  H   UNL     1       2.845   3.112  17.605  0.00  0.00    +0.000 HD
ENDBRANCH  18  19
ENDBRANCH   7  13
BRANCH  12  21
ATOM     21  C   UNL     1      -0.542  10.605  19.698  0.00  0.00    +0.000 C 
BRANCH  21  22
ATOM     22  C   UNL     1       0.070  11.973  19.711  0.00  0.00    +0.000 A 
ATOM     23  C   UNL     1      -0.130  12.871  18.661  0.00  0.00    +0.000 A 
ATOM     24  C   UNL     1       0.617  14.033  18.605  0.00  0.00    +0.000 A 
ATOM     25  C   UNL     1       1.517  14.298  19.629  0.00  0.00    +0.000 A 
ATOM     26  N   UNL     1       1.642  13.516  20.724  0.00  0.00    +0.000 NA
ATOM     27  C   UNL     1       0.918  12.378  20.739  0.00  0.00    +0.000 A 
BRANCH  25  28
ATOM     28  C   UNL     1       2.419  15.427  19.528  0.00  0.00    +0.000 A 
ATOM     29  C   UNL     1       2.171  16.814  19.664  0.00  0.00    +0.000 A 
ATOM     30  N   UNL     1       3.263  17.550  19.497  0.00  0.00    +0.000 NA
ATOM     31  N   UNL     1       4.224  16.640  19.255  0.00  0.00    +0.000 N 
ATOM     32  C   UNL     1       5.590  17.053  19.073  0.00  0.00    +0.000 C 
ATOM     33  C   UNL     1       3.763  15.355  19.245  0.00  0.00    +0.000 A 
ENDBRANCH  25  28
ENDBRANCH  21  22
ENDBRANCH  12  21
TORSDOF 5
ENDMDL
MODEL 6
REMARK VINA RESULT:      -7.6      1.106      1.430
REMARK  Name = 
REMARK  7 active torsions:
REMARK  status: ('A' for Active; 'I' for Inactive)
REMARK    1  A    between atoms: C_1  and  C_2
REMARK    2  A    between atoms: N_7  and  C_8
REMARK    3  A    between atoms: C_13  and  O_14
REMARK    4  A    between atoms: C_19  and  C_20
REMARK    5  A    between atoms: C_20  and  C_21
REMARK    6  A    between atoms: C_24  and  C_25
REMARK    7  A    between atoms: N_28  and  C_29
REMARK                            x       y       z     vdW  Elec       q    Type
REMARK                         _______ _______ _______ _____ _____    ______ ____
ROOT
ATOM      1  C   UNL     1       1.568  12.946  18.305  0.00  0.00    +0.000 C 
ATOM      2  C   UNL     1       1.474  11.552  18.865  0.00  0.00    +0.000 A 
ATOM      3  C   UNL     1       1.757  10.459  18.018  0.00  0.00    +0.000 A 
ATOM      4  C   UNL     1       1.798   9.155  18.507  0.00  0.00    +0.000 A 
ATOM      5  N   UNL     1       2.221   8.113  17.663  0.00  0.00    +0.000 NA
ATOM      6  C   UNL     1       2.382   6.948  18.196  0.00  0.00    +0.000 A 
ATOM      7  N   UNL     1       2.122   6.628  19.513  0.00  0.00    +0.000 N 
ATOM      8  C   UNL     1       1.639   7.586  20.390  0.00  0.00    +0.000 A 
ATOM      9  O   UNL     1       1.382   7.377  21.571  0.00  0.00    +0.000 OA
ATOM     10  C   UNL     1       1.473   8.942  19.840  0.00  0.00    +0.000 A 
ATOM     11  C   UNL     1       1.112  10.001  20.681  0.00  0.00    +0.000 A 
ATOM     12  C   UNL     1       1.176  11.325  20.226  0.00  0.00    +0.000 A 
ENDROOT
BRANCH   7  13
ATOM     13  C   UNL     1       2.380   5.276  20.034  0.00  0.00    +0.000 C 
ATOM     14  C   UNL     1       1.100   4.433  20.044  0.00  0.00    +0.000 C 
ATOM     15  C   UNL     1       1.355   3.022  20.560  0.00  0.00    +0.000 C 
ATOM     16  C   UNL     1       2.481   2.338  19.791  0.00  0.00    +0.000 C 
ATOM     17  C   UNL     1       3.766   3.159  19.835  0.00  0.00    +0.000 C 
ATOM     18  C   UNL     1       3.543   4.571  19.292  0.00  0.00    +0.000 C 
BRANCH  18  19
ATOM     19  O   UNL     1       4.762   5.307  19.422  0.00  0.00    +0.000 OA
ATOM     20  H   UNL     1       4.642   5.988  20.109  0.00  0.00    +0.000 HD
ENDBRANCH  18  19
ENDBRANCH   7  13
BRANCH  12  21
ATOM     21  C   UNL     1       1.009  12.466  21.227  0.00  0.00    +0.000 C 
BRANCH  21  22
ATOM     22  C   UNL     1      -0.386  12.635  21.748  0.00  0.00    +0.000 A 
ATOM     23  C   UNL     1      -0.910  11.780  22.719  0.00  0.00    +0.000 A 
ATOM     24  C   UNL     1      -2.259  11.832  23.017  0.00  0.00    +0.000 A 
ATOM     25  C   UNL     1      -3.050  12.773  22.371  0.00  0.00    +0.000 A 
ATOM     26  N   UNL     1      -2.552  13.700  21.523  0.00  0.00    +0.000 NA
ATOM     27  C   UNL     1      -1.238  13.610  21.234  0.00  0.00    +0.000 A 
BRANCH  25  28
ATOM     28  C   UNL     1      -4.488  12.758  22.549  0.00  0.00    +0.000 A 
ATOM     29  C   UNL     1      -5.268  12.856  23.726  0.00  0.00    +0.000 A 
ATOM     30  N   UNL     1      -6.572  12.797  23.483  0.00  0.00    +0.000 NA
ATOM     31  N   UNL     1      -6.640  12.663  22.147  0.00  0.00    +0.000 N 
ATOM     32  C   UNL     1      -7.916  12.620  21.483  0.00  0.00    +0.000 C 
ATOM     33  C   UNL     1      -5.416  12.615  21.543  0.00  0.00    +0.000 A 
ENDBRANCH  25  28
ENDBRANCH  21  22
ENDBRANCH  12  21
TORSDOF 5
ENDMDL
MODEL 7
REMARK VINA RESULT:      -7.5      3.265     10.495
REMARK  Name = 
REMARK  7 active torsions:
REMARK  status: ('A' for Active; 'I' for Inactive)
REMARK    1  A    between atoms: C_1  and  C_2
REMARK    2  A    between atoms: N_7  and  C_8
REMARK    3  A    between atoms: C_13  and  O_14
REMARK    4  A    between atoms: C_19  and  C_20
REMARK    5  A    between atoms: C_20  and  C_21
REMARK    6  A    between atoms: C_24  and  C_25
REMARK    7  A    between atoms: N_28  and  C_29
REMARK                            x       y       z     vdW  Elec       q    Type
REMARK                         _______ _______ _______ _____ _____    ______ ____
ROOT
ATOM      1  C   UNL     1       2.617  12.053  17.830  0.00  0.00    +0.000 C 
ATOM      2  C   UNL     1       1.778  12.213  19.068  0.00  0.00    +0.000 A 
ATOM      3  C   UNL     1       1.911  13.393  19.832  0.00  0.00    +0.000 A 
ATOM      4  C   UNL     1       1.081  13.648  20.921  0.00  0.00    +0.000 A 
ATOM      5  N   UNL     1       1.152  14.896  21.567  0.00  0.00    +0.000 NA
ATOM      6  C   UNL     1       0.269  15.142  22.477  0.00  0.00    +0.000 A 
ATOM      7  N   UNL     1      -0.705  14.264  22.904  0.00  0.00    +0.000 N 
ATOM      8  C   UNL     1      -0.796  12.992  22.363  0.00  0.00    +0.000 A 
ATOM      9  O   UNL     1      -1.631  12.156  22.693  0.00  0.00    +0.000 OA
ATOM     10  C   UNL     1       0.166  12.673  21.294  0.00  0.00    +0.000 A 
ATOM     11  C   UNL     1       0.069  11.461  20.601  0.00  0.00    +0.000 A 
ATOM     12  C   UNL     1       0.821  11.243  19.439  0.00  0.00    +0.000 A 
ENDROOT
BRANCH   7  13
ATOM     13  C   UNL     1      -1.694  14.659  23.921  0.00  0.00    +0.000 C 
ATOM     14  C   UNL     1      -1.057  15.538  25.002  0.00  0.00    +0.000 C 
ATOM     15  C   UNL     1      -2.073  15.974  26.050  0.00  0.00    +0.000 C 
ATOM     16  C   UNL     1      -3.284  16.646  25.411  0.00  0.00    +0.000 C 
ATOM     17  C   UNL     1      -3.944  15.741  24.377  0.00  0.00    +0.000 C 
ATOM     18  C   UNL     1      -2.951  15.314  23.295  0.00  0.00    +0.000 C 
BRANCH  18  19
ATOM     19  O   UNL     1      -3.610  14.418  22.398  0.00  0.00    +0.000 OA
ATOM     20  H   UNL     1      -3.891  14.918  21.609  0.00  0.00    +0.000 HD
ENDBRANCH  18  19
ENDBRANCH   7  13
BRANCH  12  21
ATOM     21  C   UNL     1       0.522  10.020  18.576  0.00  0.00    +0.000 C 
BRANCH  21  22
ATOM     22  C   UNL     1       1.504   8.899  18.728  0.00  0.00    +0.000 A 
ATOM     23  C   UNL     1       2.348   8.522  17.682  0.00  0.00    +0.000 A 
ATOM     24  C   UNL     1       3.084   7.356  17.784  0.00  0.00    +0.000 A 
ATOM     25  C   UNL     1       2.997   6.612  18.955  0.00  0.00    +0.000 A 
ATOM     26  N   UNL     1       2.291   7.014  20.035  0.00  0.00    +0.000 NA
ATOM     27  C   UNL     1       1.565   8.142  19.897  0.00  0.00    +0.000 A 
BRANCH  25  28
ATOM     28  C   UNL     1       3.635   5.315  19.038  0.00  0.00    +0.000 A 
ATOM     29  C   UNL     1       4.969   4.968  19.360  0.00  0.00    +0.000 A 
ATOM     30  N   UNL     1       5.181   3.658  19.329  0.00  0.00    +0.000 NA
ATOM     31  N   UNL     1       3.982   3.152  18.989  0.00  0.00    +0.000 N 
ATOM     32  C   UNL     1       3.790   1.728  18.905  0.00  0.00    +0.000 C 
ATOM     33  C   UNL     1       3.028   4.106  18.785  0.00  0.00    +0.000 A 
ENDBRANCH  25  28
ENDBRANCH  21  22
ENDBRANCH  12  21
TORSDOF 5
ENDMDL
MODEL 8
REMARK VINA RESULT:      -7.2      4.715      6.089
REMARK  Name = 
REMARK  7 active torsions:
REMARK  status: ('A' for Active; 'I' for Inactive)
REMARK    1  A    between atoms: C_1  and  C_2
REMARK    2  A    between atoms: N_7  and  C_8
REMARK    3  A    between atoms: C_13  and  O_14
REMARK    4  A    between atoms: C_19  and  C_20
REMARK    5  A    between atoms: C_20  and  C_21
REMARK    6  A    between atoms: C_24  and  C_25
REMARK    7  A    between atoms: N_28  and  C_29
REMARK                            x       y       z     vdW  Elec       q    Type
REMARK                         _______ _______ _______ _____ _____    ______ ____
ROOT
ATOM      1  C   UNL     1       0.389   8.188  21.149  0.00  0.00    +0.000 C 
ATOM      2  C   UNL     1       1.466   7.837  20.158  0.00  0.00    +0.000 A 
ATOM      3  C   UNL     1       2.215   6.658  20.356  0.00  0.00    +0.000 A 
ATOM      4  C   UNL     1       3.145   6.223  19.414  0.00  0.00    +0.000 A 
ATOM      5  N   UNL     1       3.766   4.972  19.582  0.00  0.00    +0.000 NA
ATOM      6  C   UNL     1       4.510   4.546  18.616  0.00  0.00    +0.000 A 
ATOM      7  N   UNL     1       4.787   5.239  17.456  0.00  0.00    +0.000 N 
ATOM      8  C   UNL     1       4.266   6.505  17.247  0.00  0.00    +0.000 A 
ATOM      9  O   UNL     1       4.470   7.182  16.244  0.00  0.00    +0.000 OA
ATOM     10  C   UNL     1       3.380   7.023  18.304  0.00  0.00    +0.000 A 
ATOM     11  C   UNL     1       2.707   8.236  18.124  0.00  0.00    +0.000 A 
ATOM     12  C   UNL     1       1.693   8.626  19.008  0.00  0.00    +0.000 A 
ENDROOT
BRANCH   7  13
ATOM     13  C   UNL     1       5.615   4.644  16.393  0.00  0.00    +0.000 C 
ATOM     14  C   UNL     1       4.788   4.378  15.131  0.00  0.00    +0.000 C 
ATOM     15  C   UNL     1       5.635   3.784  14.013  0.00  0.00    +0.000 C 
ATOM     16  C   UNL     1       6.861   4.644  13.720  0.00  0.00    +0.000 C 
ATOM     17  C   UNL     1       7.707   4.854  14.971  0.00  0.00    +0.000 C 
ATOM     18  C   UNL     1       6.885   5.481  16.099  0.00  0.00    +0.000 C 
BRANCH  18  19
ATOM     19  O   UNL     1       7.713   5.591  17.259  0.00  0.00    +0.000 OA
ATOM     20  H   UNL     1       7.370   4.988  17.945  0.00  0.00    +0.000 HD
ENDBRANCH  18  19
ENDBRANCH   7  13
BRANCH  12  21
ATOM     21  C   UNL     1       0.818   9.827  18.657  0.00  0.00    +0.000 C 
BRANCH  21  22
ATOM     22  C   UNL     1       1.427  11.155  18.989  0.00  0.00    +0.000 A 
ATOM     23  C   UNL     1       1.118  11.822  20.176  0.00  0.00    +0.000 A 
ATOM     24  C   UNL     1       1.527  13.131  20.350  0.00  0.00    +0.000 A 
ATOM     25  C   UNL     1       2.281  13.733  19.350  0.00  0.00    +0.000 A 
ATOM     26  N   UNL     1       2.706  13.077  18.248  0.00  0.00    +0.000 NA
ATOM     27  C   UNL     1       2.272  11.809  18.095  0.00  0.00    +0.000 A 
BRANCH  25  28
ATOM     28  C   UNL     1       2.600  15.144  19.432  0.00  0.00    +0.000 A 
ATOM     29  C   UNL     1       3.530  15.919  18.698  0.00  0.00    +0.000 A 
ATOM     30  N   UNL     1       3.539  17.195  19.066  0.00  0.00    +0.000 NA
ATOM     31  N   UNL     1       2.611  17.250  20.038  0.00  0.00    +0.000 N 
ATOM     32  C   UNL     1       2.285  18.505  20.662  0.00  0.00    +0.000 C 
ATOM     33  C   UNL     1       2.033  16.043  20.307  0.00  0.00    +0.000 A 
ENDBRANCH  25  28
ENDBRANCH  21  22
ENDBRANCH  12  21
TORSDOF 5
ENDMDL
MODEL 9
REMARK VINA RESULT:      -7.2      3.850      5.659
REMARK  Name = 
REMARK  7 active torsions:
REMARK  status: ('A' for Active; 'I' for Inactive)
REMARK    1  A    between atoms: C_1  and  C_2
REMARK    2  A    between atoms: N_7  and  C_8
REMARK    3  A    between atoms: C_13  and  O_14
REMARK    4  A    between atoms: C_19  and  C_20
REMARK    5  A    between atoms: C_20  and  C_21
REMARK    6  A    between atoms: C_24  and  C_25
REMARK    7  A    between atoms: N_28  and  C_29
REMARK                            x       y       z     vdW  Elec       q    Type
REMARK                         _______ _______ _______ _____ _____    ______ ____
ROOT
ATOM      1  C   UNL     1      -0.889  10.176  22.402  0.00  0.00    +0.000 C 
ATOM      2  C   UNL     1       0.054   9.695  21.333  0.00  0.00    +0.000 A 
ATOM      3  C   UNL     1       0.796   8.516  21.561  0.00  0.00    +0.000 A 
ATOM      4  C   UNL     1       1.598   7.960  20.566  0.00  0.00    +0.000 A 
ATOM      5  N   UNL     1       2.207   6.712  20.786  0.00  0.00    +0.000 NA
ATOM      6  C   UNL     1       2.821   6.169  19.787  0.00  0.00    +0.000 A 
ATOM      7  N   UNL     1       2.975   6.736  18.539  0.00  0.00    +0.000 N 
ATOM      8  C   UNL     1       2.460   7.994  18.266  0.00  0.00    +0.000 A 
ATOM      9  O   UNL     1       2.559   8.563  17.184  0.00  0.00    +0.000 OA
ATOM     10  C   UNL     1       1.717   8.640  19.361  0.00  0.00    +0.000 A 
ATOM     11  C   UNL     1       1.055   9.853  19.140  0.00  0.00    +0.000 A 
ATOM     12  C   UNL     1       0.161  10.360  20.092  0.00  0.00    +0.000 A 
ENDROOT
BRANCH   7  13
ATOM     13  C   UNL     1       3.657   6.014  17.453  0.00  0.00    +0.000 C 
ATOM     14  C   UNL     1       5.108   6.482  17.303  0.00  0.00    +0.000 C 
ATOM     15  C   UNL     1       5.836   5.728  16.197  0.00  0.00    +0.000 C 
ATOM     16  C   UNL     1       5.742   4.218  16.392  0.00  0.00    +0.000 C 
ATOM     17  C   UNL     1       4.292   3.756  16.482  0.00  0.00    +0.000 C 
ATOM     18  C   UNL     1       3.547   4.477  17.608  0.00  0.00    +0.000 C 
BRANCH  18  19
ATOM     19  O   UNL     1       2.183   4.051  17.599  0.00  0.00    +0.000 OA
ATOM     20  H   UNL     1       1.967   3.680  18.474  0.00  0.00    +0.000 HD
ENDBRANCH  18  19
ENDBRANCH   7  13
BRANCH  12  21
ATOM     21  C   UNL     1      -0.722  11.551  19.725  0.00  0.00    +0.000 C 
BRANCH  21  22
ATOM     22  C   UNL     1      -0.105  12.888  19.999  0.00  0.00    +0.000 A 
ATOM     23  C   UNL     1      -0.561  14.045  19.366  0.00  0.00    +0.000 A 
ATOM     24  C   UNL     1       0.164  15.216  19.478  0.00  0.00    +0.000 A 
ATOM     25  C   UNL     1       1.310  15.219  20.263  0.00  0.00    +0.000 A 
ATOM     26  N   UNL     1       1.709  14.154  20.992  0.00  0.00    +0.000 NA
ATOM     27  C   UNL     1       0.995  13.019  20.844  0.00  0.00    +0.000 A 
BRANCH  25  28
ATOM     28  C   UNL     1       2.173  16.383  20.284  0.00  0.00    +0.000 A 
ATOM     29  C   UNL     1       1.891  17.739  19.994  0.00  0.00    +0.000 A 
ATOM     30  N   UNL     1       2.954  18.524  20.121  0.00  0.00    +0.000 NA
ATOM     31  N   UNL     1       3.929  17.677  20.497  0.00  0.00    +0.000 N 
ATOM     32  C   UNL     1       5.248  18.169  20.793  0.00  0.00    +0.000 C 
ATOM     33  C   UNL     1       3.514  16.379  20.590  0.00  0.00    +0.000 A 
ENDBRANCH  25  28
ENDBRANCH  21  22
ENDBRANCH  12  21
TORSDOF 5
ENDMDL
