MODEL 1
REMARK VINA RESULT:      -8.0      0.000      0.000
REMARK  Name = 
REMARK  10 active torsions:
REMARK  status: ('A' for Active; 'I' for Inactive)
REMARK    1  A    between atoms: C_1  and  O_2
REMARK    2  A    between atoms: O_2  and  C_3
REMARK    3  A    between atoms: C_5  and  C_6
REMARK    4  A    between atoms: C_6  and  C_7
REMARK    5  A    between atoms: C_7  and  N_8
REMARK    6  A    between atoms: N_8  and  C_9
REMARK    7  A    between atoms: C_9  and  C_10
REMARK    8  A    between atoms: C_9  and  C_11
REMARK    9  A    between atoms: C_20  and  N_21
REMARK   10  A    between atoms: C_28  and  C_29
REMARK                            x       y       z     vdW  Elec       q    Type
REMARK                         _______ _______ _______ _____ _____    ______ ____
ROOT
ATOM      1  C   UNL     1       5.965   5.278  16.254  0.00  0.00    +0.000 A 
ATOM      2  C   UNL     1       5.426   4.018  16.578  0.00  0.00    +0.000 A 
ATOM      3  C   UNL     1       5.128   3.658  17.895  0.00  0.00    +0.000 A 
ATOM      4  C   UNL     1       5.390   4.575  18.906  0.00  0.00    +0.000 A 
ATOM      5  C   UNL     1       5.864   5.848  18.595  0.00  0.00    +0.000 A 
ATOM      6  C   UNL     1       6.158   6.233  17.278  0.00  0.00    +0.000 A 
ENDROOT
BRANCH   6   7
ATOM      7  N   UNL     1       6.601   7.561  16.990  0.00  0.00    +0.000 N 
ATOM      8  C   UNL     1       7.589   8.240  17.712  0.00  0.00    +0.000 C 
ATOM      9  O   UNL     1       8.317   7.704  18.540  0.00  0.00    +0.000 OA
ATOM     10  N   UNL     1       7.657   9.590  17.409  0.00  0.00    +0.000 N 
ATOM     11  C   UNL     1       8.550  10.484  18.046  0.00  0.00    +0.000 A 
ATOM     12  C   UNL     1       8.529  11.838  17.702  0.00  0.00    +0.000 A 
ATOM     13  N   UNL     1       9.331  12.772  18.280  0.00  0.00    +0.000 NA
ATOM     14  C   UNL     1      10.175  12.318  19.241  0.00  0.00    +0.000 A 
ATOM     15  C   UNL     1      10.207  10.986  19.594  0.00  0.00    +0.000 A 
ATOM     16  N   UNL     1       9.404  10.064  19.004  0.00  0.00    +0.000 NA
ATOM     17  H   UNL     1       6.288   7.937  16.106  0.00  0.00    +0.000 HD
ATOM     18  H   UNL     1       6.977   9.966  16.772  0.00  0.00    +0.000 HD
BRANCH  14  19
ATOM     19  C   UNL     1      11.028  13.277  19.885  0.00  0.00    +0.000 C 
ATOM     20  N   UNL     1      11.734  14.026  20.419  0.00  0.00    +0.000 NA
ENDBRANCH  14  19
ENDBRANCH   6   7
BRANCH   1  22
ATOM     21  C   UNL     1       6.679   4.472  14.147  0.00  0.00    +0.000 C 
ATOM     22  O   UNL     1       6.306   5.602  14.955  0.00  0.00    +0.000 OA
ENDBRANCH   1  22
BRANCH   3  23
ATOM     23  C   UNL     1       4.496   2.319  18.193  0.00  0.00    +0.000 C 
BRANCH  23  24
ATOM     24  C   UNL     1       3.657   2.386  19.476  0.00  0.00    +0.000 C 
BRANCH  24  25
ATOM     25  N   UNL     1       2.250   2.076  19.222  0.00  0.00    +0.000 NA
ATOM     26  H   UNL     1       2.044   1.140  19.574  0.00  0.00    +0.000 HD
BRANCH  25  27
ATOM     27  C   UNL     1       1.337   3.022  19.893  0.00  0.00    +0.000 C 
ATOM     28  C   UNL     1       1.352   2.890  21.421  0.00  0.00    +0.000 C 
BRANCH  27  29
ATOM     29  C   UNL     1       1.700   4.446  19.492  0.00  0.00    +0.000 A 
ATOM     30  C   UNL     1       1.788   4.803  18.136  0.00  0.00    +0.000 A 
ATOM     31  C   UNL     1       2.151   6.100  17.769  0.00  0.00    +0.000 A 
ATOM     32  C   UNL     1       2.425   7.043  18.753  0.00  0.00    +0.000 A 
ATOM     33  F   UNL     1       2.791   8.280  18.397  0.00  0.00    +0.000 F 
ATOM     34  C   UNL     1       2.327   6.719  20.100  0.00  0.00    +0.000 A 
ATOM     35  C   UNL     1       1.966   5.423  20.469  0.00  0.00    +0.000 A 
ENDBRANCH  27  29
ENDBRANCH  25  27
ENDBRANCH  24  25
ENDBRANCH  23  24
ENDBRANCH   3  23
TORSDOF 8
ENDMDL
MODEL 2
REMARK VINA RESULT:      -7.2      5.586      7.874
REMARK  Name = 
REMARK  10 active torsions:
REMARK  status: ('A' for Active; 'I' for Inactive)
REMARK    1  A    between atoms: C_1  and  O_2
REMARK    2  A    between atoms: O_2  and  C_3
REMARK    3  A    between atoms: C_5  and  C_6
REMARK    4  A    between atoms: C_6  and  C_7
REMARK    5  A    between atoms: C_7  and  N_8
REMARK    6  A    between atoms: N_8  and  C_9
REMARK    7  A    between atoms: C_9  and  C_10
REMARK    8  A    between atoms: C_9  and  C_11
REMARK    9  A    between atoms: C_20  and  N_21
REMARK   10  A    between atoms: C_28  and  C_29
REMARK                            x       y       z     vdW  Elec       q    Type
REMARK                         _______ _______ _______ _____ _____    ______ ____
ROOT
ATOM      1  C   UNL     1       2.411   7.395  18.995  0.00  0.00    +0.000 A 
ATOM      2  C   UNL     1       2.531   6.172  18.307  0.00  0.00    +0.000 A 
ATOM      3  C   UNL     1       2.209   4.952  18.907  0.00  0.00    +0.000 A 
ATOM      4  C   UNL     1       1.773   4.960  20.226  0.00  0.00    +0.000 A 
ATOM      5  C   UNL     1       1.588   6.167  20.899  0.00  0.00    +0.000 A 
ATOM      6  C   UNL     1       1.894   7.403  20.309  0.00  0.00    +0.000 A 
ENDROOT
BRANCH   6   7
ATOM      7  N   UNL     1       1.651   8.623  21.013  0.00  0.00    +0.000 N 
ATOM      8  C   UNL     1       0.533   9.441  20.818  0.00  0.00    +0.000 C 
ATOM      9  O   UNL     1      -0.452   9.105  20.170  0.00  0.00    +0.000 OA
ATOM     10  N   UNL     1       0.652  10.682  21.419  0.00  0.00    +0.000 N 
ATOM     11  C   UNL     1      -0.336  11.691  21.320  0.00  0.00    +0.000 A 
ATOM     12  C   UNL     1      -0.119  12.928  21.932  0.00  0.00    +0.000 A 
ATOM     13  N   UNL     1      -1.000  13.962  21.866  0.00  0.00    +0.000 NA
ATOM     14  C   UNL     1      -2.131  13.735  21.151  0.00  0.00    +0.000 A 
ATOM     15  C   UNL     1      -2.359  12.522  20.539  0.00  0.00    +0.000 A 
ATOM     16  N   UNL     1      -1.473  11.496  20.619  0.00  0.00    +0.000 NA
ATOM     17  H   UNL     1       2.251   8.787  21.810  0.00  0.00    +0.000 HD
ATOM     18  H   UNL     1       1.521  10.908  21.872  0.00  0.00    +0.000 HD
BRANCH  14  19
ATOM     19  C   UNL     1      -3.079  14.810  21.047  0.00  0.00    +0.000 C 
ATOM     20  N   UNL     1      -3.819  15.696  20.947  0.00  0.00    +0.000 NA
ENDBRANCH  14  19
ENDBRANCH   6   7
BRANCH   1  22
ATOM     21  C   UNL     1       1.794   9.141  17.523  0.00  0.00    +0.000 C 
ATOM     22  O   UNL     1       2.783   8.590  18.409  0.00  0.00    +0.000 OA
ENDBRANCH   1  22
BRANCH   3  23
ATOM     23  C   UNL     1       2.297   3.669  18.116  0.00  0.00    +0.000 C 
BRANCH  23  24
ATOM     24  C   UNL     1       3.341   3.788  16.997  0.00  0.00    +0.000 C 
BRANCH  24  25
ATOM     25  N   UNL     1       4.681   3.433  17.465  0.00  0.00    +0.000 NA
ATOM     26  H   UNL     1       4.755   2.417  17.531  0.00  0.00    +0.000 HD
BRANCH  25  27
ATOM     27  C   UNL     1       5.738   3.903  16.549  0.00  0.00    +0.000 C 
ATOM     28  C   UNL     1       5.194   4.366  15.190  0.00  0.00    +0.000 C 
BRANCH  27  29
ATOM     29  C   UNL     1       6.513   5.037  17.210  0.00  0.00    +0.000 A 
ATOM     30  C   UNL     1       6.554   6.310  16.616  0.00  0.00    +0.000 A 
ATOM     31  C   UNL     1       7.290   7.341  17.205  0.00  0.00    +0.000 A 
ATOM     32  C   UNL     1       7.981   7.104  18.387  0.00  0.00    +0.000 A 
ATOM     33  F   UNL     1       8.701   8.089  18.939  0.00  0.00    +0.000 F 
ATOM     34  C   UNL     1       7.940   5.860  19.003  0.00  0.00    +0.000 A 
ATOM     35  C   UNL     1       7.208   4.828  18.415  0.00  0.00    +0.000 A 
ENDBRANCH  27  29
ENDBRANCH  25  27
ENDBRANCH  24  25
ENDBRANCH  23  24
ENDBRANCH   3  23
TORSDOF 8
ENDMDL
MODEL 3
REMARK VINA RESULT:      -7.0      6.352      9.393
REMARK  Name = 
REMARK  10 active torsions:
REMARK  status: ('A' for Active; 'I' for Inactive)
REMARK    1  A    between atoms: C_1  and  O_2
REMARK    2  A    between atoms: O_2  and  C_3
REMARK    3  A    between atoms: C_5  and  C_6
REMARK    4  A    between atoms: C_6  and  C_7
REMARK    5  A    between atoms: C_7  and  N_8
REMARK    6  A    between atoms: N_8  and  C_9
REMARK    7  A    between atoms: C_9  and  C_10
REMARK    8  A    between atoms: C_9  and  C_11
REMARK    9  A    between atoms: C_20  and  N_21
REMARK   10  A    between atoms: C_28  and  C_29
REMARK                            x       y       z     vdW  Elec       q    Type
REMARK                         _______ _______ _______ _____ _____    ______ ____
ROOT
ATOM      1  C   UNL     1       0.155  10.594  21.254  0.00  0.00    +0.000 A 
ATOM      2  C   UNL     1      -0.725  11.693  21.235  0.00  0.00    +0.000 A 
ATOM      3  C   UNL     1      -1.322  12.141  20.054  0.00  0.00    +0.000 A 
ATOM      4  C   UNL     1      -1.020  11.481  18.869  0.00  0.00    +0.000 A 
ATOM      5  C   UNL     1      -0.202  10.352  18.882  0.00  0.00    +0.000 A 
ATOM      6  C   UNL     1       0.398   9.880  20.060  0.00  0.00    +0.000 A 
ENDROOT
BRANCH   6   7
ATOM      7  N   UNL     1       1.196   8.694  20.044  0.00  0.00    +0.000 N 
ATOM      8  C   UNL     1       2.114   8.370  19.038  0.00  0.00    +0.000 C 
ATOM      9  O   UNL     1       2.476   9.155  18.168  0.00  0.00    +0.000 OA
ATOM     10  N   UNL     1       2.566   7.064  19.111  0.00  0.00    +0.000 N 
ATOM     11  C   UNL     1       3.466   6.500  18.175  0.00  0.00    +0.000 A 
ATOM     12  C   UNL     1       3.845   5.163  18.305  0.00  0.00    +0.000 A 
ATOM     13  N   UNL     1       4.682   4.532  17.439  0.00  0.00    +0.000 NA
ATOM     14  C   UNL     1       5.141   5.281  16.404  0.00  0.00    +0.000 A 
ATOM     15  C   UNL     1       4.774   6.601  16.259  0.00  0.00    +0.000 A 
ATOM     16  N   UNL     1       3.942   7.219  17.136  0.00  0.00    +0.000 NA
ATOM     17  H   UNL     1       1.200   8.167  20.906  0.00  0.00    +0.000 HD
ATOM     18  H   UNL     1       2.167   6.463  19.811  0.00  0.00    +0.000 HD
BRANCH  14  19
ATOM     19  C   UNL     1       6.016   4.644  15.459  0.00  0.00    +0.000 C 
ATOM     20  N   UNL     1       6.748   4.152  14.707  0.00  0.00    +0.000 NA
ENDBRANCH  14  19
ENDBRANCH   6   7
BRANCH   1  22
ATOM     21  C   UNL     1      -0.076   9.491  23.335  0.00  0.00    +0.000 C 
ATOM     22  O   UNL     1       0.781  10.194  22.419  0.00  0.00    +0.000 OA
ENDBRANCH   1  22
BRANCH   3  23
ATOM     23  C   UNL     1      -2.305  13.288  20.085  0.00  0.00    +0.000 C 
BRANCH  23  24
ATOM     24  C   UNL     1      -3.695  12.803  20.516  0.00  0.00    +0.000 C 
BRANCH  24  25
ATOM     25  N   UNL     1      -4.704  13.063  19.488  0.00  0.00    +0.000 NA
ATOM     26  H   UNL     1      -4.249  13.460  18.665  0.00  0.00    +0.000 HD
BRANCH  25  27
ATOM     27  C   UNL     1      -5.408  11.836  19.068  0.00  0.00    +0.000 C 
ATOM     28  C   UNL     1      -6.853  12.095  18.622  0.00  0.00    +0.000 C 
BRANCH  27  29
ATOM     29  C   UNL     1      -4.630  11.168  17.941  0.00  0.00    +0.000 A 
ATOM     30  C   UNL     1      -3.978   9.942  18.156  0.00  0.00    +0.000 A 
ATOM     31  C   UNL     1      -3.239   9.345  17.132  0.00  0.00    +0.000 A 
ATOM     32  C   UNL     1      -3.152   9.968  15.894  0.00  0.00    +0.000 A 
ATOM     33  F   UNL     1      -2.427   9.402  14.920  0.00  0.00    +0.000 F 
ATOM     34  C   UNL     1      -3.803  11.171  15.651  0.00  0.00    +0.000 A 
ATOM     35  C   UNL     1      -4.540  11.770  16.672  0.00  0.00    +0.000 A 
ENDBRANCH  27  29
ENDBRANCH  25  27
ENDBRANCH  24  25
ENDBRANCH  23  24
ENDBRANCH   3  23
TORSDOF 8
ENDMDL
MODEL 4
REMARK VINA RESULT:      -6.9      5.301      8.343
REMARK  Name = 
REMARK  10 active torsions:
REMARK  status: ('A' for Active; 'I' for Inactive)
REMARK    1  A    between atoms: C_1  and  O_2
REMARK    2  A    between atoms: O_2  and  C_3
REMARK    3  A    between atoms: C_5  and  C_6
REMARK    4  A    between atoms: C_6  and  C_7
REMARK    5  A    between atoms: C_7  and  N_8
REMARK    6  A    between atoms: N_8  and  C_9
REMARK    7  A    between atoms: C_9  and  C_10
REMARK    8  A    between atoms: C_9  and  C_11
REMARK    9  A    between atoms: C_20  and  N_21
REMARK   10  A    between atoms: C_28  and  C_29
REMARK                            x       y       z     vdW  Elec       q    Type
REMARK                         _______ _______ _______ _____ _____    ______ ____
ROOT
ATOM      1  C   UNL     1       3.250   4.613  17.922  0.00  0.00    +0.000 A 
ATOM      2  C   UNL     1       4.062   4.175  16.857  0.00  0.00    +0.000 A 
ATOM      3  C   UNL     1       5.154   4.921  16.407  0.00  0.00    +0.000 A 
ATOM      4  C   UNL     1       5.426   6.135  17.026  0.00  0.00    +0.000 A 
ATOM      5  C   UNL     1       4.670   6.550  18.121  0.00  0.00    +0.000 A 
ATOM      6  C   UNL     1       3.578   5.809  18.597  0.00  0.00    +0.000 A 
ENDROOT
BRANCH   6   7
ATOM      7  N   UNL     1       2.852   6.243  19.750  0.00  0.00    +0.000 N 
ATOM      8  C   UNL     1       2.110   7.428  19.819  0.00  0.00    +0.000 C 
ATOM      9  O   UNL     1       1.841   8.121  18.844  0.00  0.00    +0.000 OA
ATOM     10  N   UNL     1       1.719   7.753  21.107  0.00  0.00    +0.000 N 
ATOM     11  C   UNL     1       0.997   8.928  21.426  0.00  0.00    +0.000 A 
ATOM     12  C   UNL     1       0.671   9.194  22.757  0.00  0.00    +0.000 A 
ATOM     13  N   UNL     1       0.004  10.310  23.158  0.00  0.00    +0.000 NA
ATOM     14  C   UNL     1      -0.335  11.185  22.177  0.00  0.00    +0.000 A 
ATOM     15  C   UNL     1      -0.018  10.938  20.859  0.00  0.00    +0.000 A 
ATOM     16  N   UNL     1       0.643   9.817  20.473  0.00  0.00    +0.000 NA
ATOM     17  H   UNL     1       2.747   5.551  20.478  0.00  0.00    +0.000 HD
ATOM     18  H   UNL     1       2.041   7.171  21.860  0.00  0.00    +0.000 HD
BRANCH  14  19
ATOM     19  C   UNL     1      -1.027  12.382  22.564  0.00  0.00    +0.000 C 
ATOM     20  N   UNL     1      -1.557  13.359  22.892  0.00  0.00    +0.000 NA
ENDBRANCH  14  19
ENDBRANCH   6   7
BRANCH   1  22
ATOM     21  C   UNL     1       2.205   2.492  18.006  0.00  0.00    +0.000 C 
ATOM     22  O   UNL     1       2.141   3.893  18.323  0.00  0.00    +0.000 OA
ENDBRANCH   1  22
BRANCH   3  23
ATOM     23  C   UNL     1       6.034   4.389  15.300  0.00  0.00    +0.000 C 
BRANCH  23  24
ATOM     24  C   UNL     1       7.315   5.223  15.174  0.00  0.00    +0.000 C 
BRANCH  24  25
ATOM     25  N   UNL     1       8.013   4.961  13.915  0.00  0.00    +0.000 NA
ATOM     26  H   UNL     1       8.341   3.993  13.909  0.00  0.00    +0.000 HD
BRANCH  25  27
ATOM     27  C   UNL     1       7.142   5.150  12.740  0.00  0.00    +0.000 C 
ATOM     28  C   UNL     1       7.776   6.035  11.659  0.00  0.00    +0.000 C 
BRANCH  27  29
ATOM     29  C   UNL     1       6.783   3.791  12.152  0.00  0.00    +0.000 A 
ATOM     30  C   UNL     1       5.446   3.360  12.122  0.00  0.00    +0.000 A 
ATOM     31  C   UNL     1       5.121   2.102  11.612  0.00  0.00    +0.000 A 
ATOM     32  C   UNL     1       6.127   1.274  11.128  0.00  0.00    +0.000 A 
ATOM     33  F   UNL     1       5.813   0.061  10.657  0.00  0.00    +0.000 F 
ATOM     34  C   UNL     1       7.453   1.686  11.129  0.00  0.00    +0.000 A 
ATOM     35  C   UNL     1       7.781   2.941  11.640  0.00  0.00    +0.000 A 
ENDBRANCH  27  29
ENDBRANCH  25  27
ENDBRANCH  24  25
ENDBRANCH  23  24
ENDBRANCH   3  23
TORSDOF 8
ENDMDL
MODEL 5
REMARK VINA RESULT:      -6.8      1.280      1.763
REMARK  Name = 
REMARK  10 active torsions:
REMARK  status: ('A' for Active; 'I' for Inactive)
REMARK    1  A    between atoms: C_1  and  O_2
REMARK    2  A    between atoms: O_2  and  C_3
REMARK    3  A    between atoms: C_5  and  C_6
REMARK    4  A    between atoms: C_6  and  C_7
REMARK    5  A    between atoms: C_7  and  N_8
REMARK    6  A    between atoms: N_8  and  C_9
REMARK    7  A    between atoms: C_9  and  C_10
REMARK    8  A    between atoms: C_9  and  C_11
REMARK    9  A    between atoms: C_20  and  N_21
REMARK   10  A    between atoms: C_28  and  C_29
REMARK                            x       y       z     vdW  Elec       q    Type
REMARK                         _______ _______ _______ _____ _____    ______ ____
ROOT
ATOM      1  C   UNL     1       6.880   5.486  16.822  0.00  0.00    +0.000 A 
ATOM      2  C   UNL     1       5.875   4.586  16.415  0.00  0.00    +0.000 A 
ATOM      3  C   UNL     1       5.050   3.935  17.335  0.00  0.00    +0.000 A 
ATOM      4  C   UNL     1       5.247   4.180  18.689  0.00  0.00    +0.000 A 
ATOM      5  C   UNL     1       6.194   5.115  19.103  0.00  0.00    +0.000 A 
ATOM      6  C   UNL     1       7.023   5.789  18.194  0.00  0.00    +0.000 A 
ENDROOT
BRANCH   6   7
ATOM      7  N   UNL     1       7.953   6.774  18.652  0.00  0.00    +0.000 N 
ATOM      8  C   UNL     1       7.872   8.139  18.352  0.00  0.00    +0.000 C 
ATOM      9  O   UNL     1       6.895   8.666  17.834  0.00  0.00    +0.000 OA
ATOM     10  N   UNL     1       9.018   8.840  18.688  0.00  0.00    +0.000 N 
ATOM     11  C   UNL     1       9.183  10.224  18.438  0.00  0.00    +0.000 A 
ATOM     12  C   UNL     1      10.385  10.846  18.779  0.00  0.00    +0.000 A 
ATOM     13  N   UNL     1      10.641  12.162  18.553  0.00  0.00    +0.000 NA
ATOM     14  C   UNL     1       9.646  12.866  17.954  0.00  0.00    +0.000 A 
ATOM     15  C   UNL     1       8.454  12.267  17.609  0.00  0.00    +0.000 A 
ATOM     16  N   UNL     1       8.212  10.952  17.847  0.00  0.00    +0.000 NA
ATOM     17  H   UNL     1       8.592   6.462  19.369  0.00  0.00    +0.000 HD
ATOM     18  H   UNL     1       9.803   8.323  19.043  0.00  0.00    +0.000 HD
BRANCH  14  19
ATOM     19  C   UNL     1       9.884  14.256  17.684  0.00  0.00    +0.000 C 
ATOM     20  N   UNL     1      10.047  15.386  17.484  0.00  0.00    +0.000 NA
ENDBRANCH  14  19
ENDBRANCH   6   7
BRANCH   1  22
ATOM     21  C   UNL     1       7.651   5.519  14.586  0.00  0.00    +0.000 C 
ATOM     22  O   UNL     1       7.725   6.083  15.907  0.00  0.00    +0.000 OA
ENDBRANCH   1  22
BRANCH   3  23
ATOM     23  C   UNL     1       3.947   3.022  16.854  0.00  0.00    +0.000 C 
BRANCH  23  24
ATOM     24  C   UNL     1       3.278   2.307  18.035  0.00  0.00    +0.000 C 
BRANCH  24  25
ATOM     25  N   UNL     1       1.819   2.403  17.973  0.00  0.00    +0.000 NA
ATOM     26  H   UNL     1       1.422   1.463  17.933  0.00  0.00    +0.000 HD
BRANCH  25  27
ATOM     27  C   UNL     1       1.250   3.084  19.152  0.00  0.00    +0.000 C 
ATOM     28  C   UNL     1       1.694   2.457  20.480  0.00  0.00    +0.000 C 
BRANCH  27  29
ATOM     29  C   UNL     1       1.637   4.558  19.121  0.00  0.00    +0.000 A 
ATOM     30  C   UNL     1       1.860   5.260  20.317  0.00  0.00    +0.000 A 
ATOM     31  C   UNL     1       2.184   6.618  20.290  0.00  0.00    +0.000 A 
ATOM     32  C   UNL     1       2.288   7.276  19.070  0.00  0.00    +0.000 A 
ATOM     33  F   UNL     1       2.580   8.582  19.049  0.00  0.00    +0.000 F 
ATOM     34  C   UNL     1       2.091   6.599  17.874  0.00  0.00    +0.000 A 
ATOM     35  C   UNL     1       1.765   5.243  17.898  0.00  0.00    +0.000 A 
ENDBRANCH  27  29
ENDBRANCH  25  27
ENDBRANCH  24  25
ENDBRANCH  23  24
ENDBRANCH   3  23
TORSDOF 8
ENDMDL
MODEL 6
REMARK VINA RESULT:      -6.8      7.284      9.037
REMARK  Name = 
REMARK  10 active torsions:
REMARK  status: ('A' for Active; 'I' for Inactive)
REMARK    1  A    between atoms: C_1  and  O_2
REMARK    2  A    between atoms: O_2  and  C_3
REMARK    3  A    between atoms: C_5  and  C_6
REMARK    4  A    between atoms: C_6  and  C_7
REMARK    5  A    between atoms: C_7  and  N_8
REMARK    6  A    between atoms: N_8  and  C_9
REMARK    7  A    between atoms: C_9  and  C_10
REMARK    8  A    between atoms: C_9  and  C_11
REMARK    9  A    between atoms: C_20  and  N_21
REMARK   10  A    between atoms: C_28  and  C_29
REMARK                            x       y       z     vdW  Elec       q    Type
REMARK                         _______ _______ _______ _____ _____    ______ ____
ROOT
ATOM      1  C   UNL     1       0.383  10.327  19.290  0.00  0.00    +0.000 A 
ATOM      2  C   UNL     1       1.251   9.421  18.651  0.00  0.00    +0.000 A 
ATOM      3  C   UNL     1       1.804   8.329  19.325  0.00  0.00    +0.000 A 
ATOM      4  C   UNL     1       1.492   8.152  20.667  0.00  0.00    +0.000 A 
ATOM      5  C   UNL     1       0.584   9.004  21.295  0.00  0.00    +0.000 A 
ATOM      6  C   UNL     1       0.008  10.098  20.633  0.00  0.00    +0.000 A 
ENDROOT
BRANCH   6   7
ATOM      7  N   UNL     1      -0.952  10.925  21.296  0.00  0.00    +0.000 N 
ATOM      8  C   UNL     1      -0.657  12.149  21.905  0.00  0.00    +0.000 C 
ATOM      9  O   UNL     1       0.410  12.739  21.769  0.00  0.00    +0.000 OA
ATOM     10  N   UNL     1      -1.688  12.629  22.695  0.00  0.00    +0.000 N 
ATOM     11  C   UNL     1      -1.600  13.827  23.443  0.00  0.00    +0.000 A 
ATOM     12  C   UNL     1      -2.676  14.220  24.241  0.00  0.00    +0.000 A 
ATOM     13  N   UNL     1      -2.670  15.341  25.012  0.00  0.00    +0.000 NA
ATOM     14  C   UNL     1      -1.531  16.079  24.978  0.00  0.00    +0.000 A 
ATOM     15  C   UNL     1      -0.459  15.704  24.198  0.00  0.00    +0.000 A 
ATOM     16  N   UNL     1      -0.483  14.586  23.429  0.00  0.00    +0.000 NA
ATOM     17  H   UNL     1      -1.918  10.666  21.147  0.00  0.00    +0.000 HD
ATOM     18  H   UNL     1      -2.502  12.052  22.813  0.00  0.00    +0.000 HD
BRANCH  14  19
ATOM     19  C   UNL     1      -1.481  17.262  25.791  0.00  0.00    +0.000 C 
ATOM     20  N   UNL     1      -1.474  18.222  26.440  0.00  0.00    +0.000 NA
ENDBRANCH  14  19
ENDBRANCH   6   7
BRANCH   1  22
ATOM     21  C   UNL     1       0.821  12.519  18.514  0.00  0.00    +0.000 C 
ATOM     22  O   UNL     1      -0.116  11.433  18.630  0.00  0.00    +0.000 OA
ENDBRANCH   1  22
BRANCH   3  23
ATOM     23  C   UNL     1       2.686   7.348  18.588  0.00  0.00    +0.000 C 
BRANCH  23  24
ATOM     24  C   UNL     1       2.537   5.937  19.171  0.00  0.00    +0.000 C 
BRANCH  24  25
ATOM     25  N   UNL     1       3.766   5.486  19.824  0.00  0.00    +0.000 NA
ATOM     26  H   UNL     1       3.612   5.441  20.832  0.00  0.00    +0.000 HD
BRANCH  25  27
ATOM     27  C   UNL     1       4.184   4.145  19.371  0.00  0.00    +0.000 C 
ATOM     28  C   UNL     1       3.000   3.234  19.017  0.00  0.00    +0.000 C 
BRANCH  27  29
ATOM     29  C   UNL     1       5.108   4.283  18.167  0.00  0.00    +0.000 A 
ATOM     30  C   UNL     1       6.417   4.767  18.328  0.00  0.00    +0.000 A 
ATOM     31  C   UNL     1       7.253   4.924  17.220  0.00  0.00    +0.000 A 
ATOM     32  C   UNL     1       6.786   4.595  15.954  0.00  0.00    +0.000 A 
ATOM     33  F   UNL     1       7.585   4.764  14.892  0.00  0.00    +0.000 F 
ATOM     34  C   UNL     1       5.503   4.097  15.772  0.00  0.00    +0.000 A 
ATOM     35  C   UNL     1       4.665   3.942  16.876  0.00  0.00    +0.000 A 
ENDBRANCH  27  29
ENDBRANCH  25  27
ENDBRANCH  24  25
ENDBRANCH  23  24
ENDBRANCH   3  23
TORSDOF 8
ENDMDL
MODEL 7
REMARK VINA RESULT:      -6.8      5.229      7.199
REMARK  Name = 
REMARK  10 active torsions:
REMARK  status: ('A' for Active; 'I' for Inactive)
REMARK    1  A    between atoms: C_1  and  O_2
REMARK    2  A    between atoms: O_2  and  C_3
REMARK    3  A    between atoms: C_5  and  C_6
REMARK    4  A    between atoms: C_6  and  C_7
REMARK    5  A    between atoms: C_7  and  N_8
REMARK    6  A    between atoms: N_8  and  C_9
REMARK    7  A    between atoms: C_9  and  C_10
REMARK    8  A    between atoms: C_9  and  C_11
REMARK    9  A    between atoms: C_20  and  N_21
REMARK   10  A    between atoms: C_28  and  C_29
REMARK                            x       y       z     vdW  Elec       q    Type
REMARK                         _______ _______ _______ _____ _____    ______ ____
ROOT
ATOM      1  C   UNL     1       1.688   7.880  20.200  0.00  0.00    +0.000 A 
ATOM      2  C   UNL     1       2.523   6.745  20.174  0.00  0.00    +0.000 A 
ATOM      3  C   UNL     1       3.028   6.228  18.978  0.00  0.00    +0.000 A 
ATOM      4  C   UNL     1       2.678   6.853  17.787  0.00  0.00    +0.000 A 
ATOM      5  C   UNL     1       1.905   8.013  17.803  0.00  0.00    +0.000 A 
ATOM      6  C   UNL     1       1.398   8.555  18.993  0.00  0.00    +0.000 A 
ENDROOT
BRANCH   6   7
ATOM      7  N   UNL     1       0.646   9.771  18.976  0.00  0.00    +0.000 N 
ATOM      8  C   UNL     1       1.188  11.033  18.709  0.00  0.00    +0.000 C 
ATOM      9  O   UNL     1       2.319  11.210  18.271  0.00  0.00    +0.000 OA
ATOM     10  N   UNL     1       0.321  12.072  19.004  0.00  0.00    +0.000 N 
ATOM     11  C   UNL     1       0.667  13.437  18.857  0.00  0.00    +0.000 A 
ATOM     12  C   UNL     1      -0.257  14.422  19.210  0.00  0.00    +0.000 A 
ATOM     13  N   UNL     1      -0.002  15.756  19.126  0.00  0.00    +0.000 NA
ATOM     14  C   UNL     1       1.233  16.097  18.677  0.00  0.00    +0.000 A 
ATOM     15  C   UNL     1       2.158  15.137  18.328  0.00  0.00    +0.000 A 
ATOM     16  N   UNL     1       1.886  13.810  18.411  0.00  0.00    +0.000 NA
ATOM     17  H   UNL     1      -0.358   9.655  18.990  0.00  0.00    +0.000 HD
ATOM     18  H   UNL     1      -0.561  11.847  19.428  0.00  0.00    +0.000 HD
BRANCH  14  19
ATOM     19  C   UNL     1       1.545  17.497  18.590  0.00  0.00    +0.000 C 
ATOM     20  N   UNL     1       1.766  18.631  18.502  0.00  0.00    +0.000 NA
ENDBRANCH  14  19
ENDBRANCH   6   7
BRANCH   1  22
ATOM     21  C   UNL     1      -0.268   8.145  21.505  0.00  0.00    +0.000 C 
ATOM     22  O   UNL     1       1.151   8.350  21.383  0.00  0.00    +0.000 OA
ENDBRANCH   1  22
BRANCH   3  23
ATOM     23  C   UNL     1       3.966   5.045  18.999  0.00  0.00    +0.000 C 
BRANCH  23  24
ATOM     24  C   UNL     1       4.044   4.387  17.614  0.00  0.00    +0.000 C 
BRANCH  24  25
ATOM     25  N   UNL     1       5.251   3.574  17.466  0.00  0.00    +0.000 NA
ATOM     26  H   UNL     1       4.992   2.650  17.116  0.00  0.00    +0.000 HD
BRANCH  25  27
ATOM     27  C   UNL     1       6.213   4.164  16.515  0.00  0.00    +0.000 C 
ATOM     28  C   UNL     1       5.559   4.614  15.202  0.00  0.00    +0.000 C 
BRANCH  27  29
ATOM     29  C   UNL     1       6.917   5.343  17.174  0.00  0.00    +0.000 A 
ATOM     30  C   UNL     1       7.612   5.171  18.383  0.00  0.00    +0.000 A 
ATOM     31  C   UNL     1       8.231   6.259  19.003  0.00  0.00    +0.000 A 
ATOM     32  C   UNL     1       8.159   7.517  18.418  0.00  0.00    +0.000 A 
ATOM     33  F   UNL     1       8.738   8.561  19.025  0.00  0.00    +0.000 F 
ATOM     34  C   UNL     1       7.494   7.709  17.214  0.00  0.00    +0.000 A 
ATOM     35  C   UNL     1       6.873   6.624  16.593  0.00  0.00    +0.000 A 
ENDBRANCH  27  29
ENDBRANCH  25  27
ENDBRANCH  24  25
ENDBRANCH  23  24
ENDBRANCH   3  23
TORSDOF 8
ENDMDL
MODEL 8
REMARK VINA RESULT:      -6.8      1.360      1.813
REMARK  Name = 
REMARK  10 active torsions:
REMARK  status: ('A' for Active; 'I' for Inactive)
REMARK    1  A    between atoms: C_1  and  O_2
REMARK    2  A    between atoms: O_2  and  C_3
REMARK    3  A    between atoms: C_5  and  C_6
REMARK    4  A    between atoms: C_6  and  C_7
REMARK    5  A    between atoms: C_7  and  N_8
REMARK    6  A    between atoms: N_8  and  C_9
REMARK    7  A    between atoms: C_9  and  C_10
REMARK    8  A    between atoms: C_9  and  C_11
REMARK    9  A    between atoms: C_20  and  N_21
REMARK   10  A    between atoms: C_28  and  C_29
REMARK                            x       y       z     vdW  Elec       q    Type
REMARK                         _______ _______ _______ _____ _____    ______ ____
ROOT
ATOM      1  C   UNL     1       6.168   6.608  17.134  0.00  0.00    +0.000 A 
ATOM      2  C   UNL     1       5.566   5.449  17.662  0.00  0.00    +0.000 A 
ATOM      3  C   UNL     1       6.077   4.800  18.789  0.00  0.00    +0.000 A 
ATOM      4  C   UNL     1       7.221   5.315  19.387  0.00  0.00    +0.000 A 
ATOM      5  C   UNL     1       7.790   6.496  18.914  0.00  0.00    +0.000 A 
ATOM      6  C   UNL     1       7.285   7.170  17.792  0.00  0.00    +0.000 A 
ENDROOT
BRANCH   6   7
ATOM      7  N   UNL     1       7.867   8.403  17.361  0.00  0.00    +0.000 N 
ATOM      8  C   UNL     1       8.543   9.295  18.200  0.00  0.00    +0.000 C 
ATOM      9  O   UNL     1       8.881   9.028  19.348  0.00  0.00    +0.000 OA
ATOM     10  N   UNL     1       8.785  10.524  17.610  0.00  0.00    +0.000 N 
ATOM     11  C   UNL     1       9.416  11.598  18.282  0.00  0.00    +0.000 A 
ATOM     12  C   UNL     1       9.590  12.815  17.621  0.00  0.00    +0.000 A 
ATOM     13  N   UNL     1      10.161  13.907  18.197  0.00  0.00    +0.000 NA
ATOM     14  C   UNL     1      10.560  13.759  19.486  0.00  0.00    +0.000 A 
ATOM     15  C   UNL     1      10.393  12.565  20.154  0.00  0.00    +0.000 A 
ATOM     16  N   UNL     1       9.826  11.482  19.563  0.00  0.00    +0.000 NA
ATOM     17  H   UNL     1       7.927   8.523  16.359  0.00  0.00    +0.000 HD
ATOM     18  H   UNL     1       8.413  10.689  16.691  0.00  0.00    +0.000 HD
BRANCH  14  19
ATOM     19  C   UNL     1      11.154  14.896  20.133  0.00  0.00    +0.000 C 
ATOM     20  N   UNL     1      11.630  15.831  20.625  0.00  0.00    +0.000 NA
ENDBRANCH  14  19
ENDBRANCH   6   7
BRANCH   1  22
ATOM     21  C   UNL     1       5.215   6.286  14.993  0.00  0.00    +0.000 C 
ATOM     22  O   UNL     1       5.685   7.211  15.988  0.00  0.00    +0.000 OA
ENDBRANCH   1  22
BRANCH   3  23
ATOM     23  C   UNL     1       5.368   3.593  19.358  0.00  0.00    +0.000 C 
BRANCH  23  24
ATOM     24  C   UNL     1       4.429   2.971  18.315  0.00  0.00    +0.000 C 
BRANCH  24  25
ATOM     25  N   UNL     1       3.185   2.495  18.921  0.00  0.00    +0.000 NA
ATOM     26  H   UNL     1       3.227   2.641  19.931  0.00  0.00    +0.000 HD
BRANCH  25  27
ATOM     27  C   UNL     1       2.001   3.211  18.409  0.00  0.00    +0.000 C 
ATOM     28  C   UNL     1       0.678   2.535  18.792  0.00  0.00    +0.000 C 
BRANCH  27  29
ATOM     29  C   UNL     1       2.017   4.646  18.921  0.00  0.00    +0.000 A 
ATOM     30  C   UNL     1       1.796   4.917  20.282  0.00  0.00    +0.000 A 
ATOM     31  C   UNL     1       1.779   6.234  20.746  0.00  0.00    +0.000 A 
ATOM     32  C   UNL     1       1.986   7.280  19.855  0.00  0.00    +0.000 A 
ATOM     33  F   UNL     1       1.950   8.543  20.300  0.00  0.00    +0.000 F 
ATOM     34  C   UNL     1       2.226   7.036  18.509  0.00  0.00    +0.000 A 
ATOM     35  C   UNL     1       2.240   5.722  18.043  0.00  0.00    +0.000 A 
ENDBRANCH  27  29
ENDBRANCH  25  27
ENDBRANCH  24  25
ENDBRANCH  23  24
ENDBRANCH   3  23
TORSDOF 8
ENDMDL
MODEL 9
REMARK VINA RESULT:      -6.7      6.382      8.718
REMARK  Name = 
REMARK  10 active torsions:
REMARK  status: ('A' for Active; 'I' for Inactive)
REMARK    1  A    between atoms: C_1  and  O_2
REMARK    2  A    between atoms: O_2  and  C_3
REMARK    3  A    between atoms: C_5  and  C_6
REMARK    4  A    between atoms: C_6  and  C_7
REMARK    5  A    between atoms: C_7  and  N_8
REMARK    6  A    between atoms: N_8  and  C_9
REMARK    7  A    between atoms: C_9  and  C_10
REMARK    8  A    between atoms: C_9  and  C_11
REMARK    9  A    between atoms: C_20  and  N_21
REMARK   10  A    between atoms: C_28  and  C_29
REMARK                            x       y       z     vdW  Elec       q    Type
REMARK                         _______ _______ _______ _____ _____    ______ ____
ROOT
ATOM      1  C   UNL     1       1.944   7.430  19.942  0.00  0.00    +0.000 A 
ATOM      2  C   UNL     1       2.794   6.907  18.948  0.00  0.00    +0.000 A 
ATOM      3  C   UNL     1       3.108   7.625  17.792  0.00  0.00    +0.000 A 
ATOM      4  C   UNL     1       2.548   8.886  17.624  0.00  0.00    +0.000 A 
ATOM      5  C   UNL     1       1.757   9.443  18.627  0.00  0.00    +0.000 A 
ATOM      6  C   UNL     1       1.440   8.743  19.801  0.00  0.00    +0.000 A 
ENDROOT
BRANCH   6   7
ATOM      7  N   UNL     1       0.662   9.362  20.829  0.00  0.00    +0.000 N 
ATOM      8  C   UNL     1      -0.361  10.288  20.598  0.00  0.00    +0.000 C 
ATOM      9  O   UNL     1      -0.833  10.521  19.490  0.00  0.00    +0.000 OA
ATOM     10  N   UNL     1      -0.784  10.933  21.748  0.00  0.00    +0.000 N 
ATOM     11  C   UNL     1      -1.778  11.941  21.753  0.00  0.00    +0.000 A 
ATOM     12  C   UNL     1      -2.121  12.563  22.955  0.00  0.00    +0.000 A 
ATOM     13  N   UNL     1      -3.044  13.558  23.049  0.00  0.00    +0.000 NA
ATOM     14  C   UNL     1      -3.629  13.937  21.884  0.00  0.00    +0.000 A 
ATOM     15  C   UNL     1      -3.300  13.335  20.689  0.00  0.00    +0.000 A 
ATOM     16  N   UNL     1      -2.381  12.339  20.612  0.00  0.00    +0.000 NA
ATOM     17  H   UNL     1       0.764   8.957  21.749  0.00  0.00    +0.000 HD
ATOM     18  H   UNL     1      -0.298  10.738  22.606  0.00  0.00    +0.000 HD
BRANCH  14  19
ATOM     19  C   UNL     1      -4.598  14.996  21.942  0.00  0.00    +0.000 C 
ATOM     20  N   UNL     1      -5.359  15.868  22.008  0.00  0.00    +0.000 NA
ENDBRANCH  14  19
ENDBRANCH   6   7
BRANCH   1  22
ATOM     21  C   UNL     1       1.682   5.267  20.863  0.00  0.00    +0.000 C 
ATOM     22  O   UNL     1       1.597   6.690  21.055  0.00  0.00    +0.000 OA
ENDBRANCH   1  22
BRANCH   3  23
ATOM     23  C   UNL     1       4.069   7.051  16.778  0.00  0.00    +0.000 C 
BRANCH  23  24
ATOM     24  C   UNL     1       5.467   6.878  17.388  0.00  0.00    +0.000 C 
BRANCH  24  25
ATOM     25  N   UNL     1       5.893   5.479  17.384  0.00  0.00    +0.000 NA
ATOM     26  H   UNL     1       5.879   5.121  18.341  0.00  0.00    +0.000 HD
BRANCH  25  27
ATOM     27  C   UNL     1       5.007   4.624  16.570  0.00  0.00    +0.000 C 
ATOM     28  C   UNL     1       5.774   3.716  15.599  0.00  0.00    +0.000 C 
BRANCH  27  29
ATOM     29  C   UNL     1       4.135   3.779  17.490  0.00  0.00    +0.000 A 
ATOM     30  C   UNL     1       2.832   3.421  17.104  0.00  0.00    +0.000 A 
ATOM     31  C   UNL     1       2.021   2.673  17.960  0.00  0.00    +0.000 A 
ATOM     32  C   UNL     1       2.510   2.278  19.200  0.00  0.00    +0.000 A 
ATOM     33  F   UNL     1       1.723   1.577  20.026  0.00  0.00    +0.000 F 
ATOM     34  C   UNL     1       3.801   2.604  19.596  0.00  0.00    +0.000 A 
ATOM     35  C   UNL     1       4.611   3.353  18.744  0.00  0.00    +0.000 A 
ENDBRANCH  27  29
ENDBRANCH  25  27
ENDBRANCH  24  25
ENDBRANCH  23  24
ENDBRANCH   3  23
TORSDOF 8
ENDMDL
