MODEL 1
REMARK VINA RESULT:      -7.0      0.000      0.000
REMARK  Name = 
REMARK  18 active torsions:
REMARK  status: ('A' for Active; 'I' for Inactive)
REMARK    1  A    between atoms: C_1  and  O_2
REMARK    2  A    between atoms: O_2  and  C_3
REMARK    3  A    between atoms: C_5  and  C_6
REMARK    4  A    between atoms: C_10  and  O_11
REMARK    5  A    between atoms: O_11  and  C_12
REMARK    6  A    between atoms: C_13  and  O_14
REMARK    7  A    between atoms: O_14  and  C_15
REMARK    8  A    between atoms: C_15  and  C_16
REMARK    9  A    between atoms: C_16  and  O_17
REMARK   10  A    between atoms: O_17  and  C_18
REMARK   11  A    between atoms: C_18  and  C_19
REMARK   12  A    between atoms: C_19  and  O_20
REMARK   13  A    between atoms: O_20  and  C_21
REMARK   14  A    between atoms: C_22  and  O_23
REMARK   15  A    between atoms: O_23  and  C_24
REMARK   16  A    between atoms: C_26  and  C_27
REMARK   17  A    between atoms: C_31  and  O_32
REMARK   18  A    between atoms: O_32  and  C_33
REMARK                            x       y       z     vdW  Elec       q    Type
REMARK                         _______ _______ _______ _____ _____    ______ ____
ROOT
ATOM      1  O   UNL     1       2.371   4.047  20.201  0.00  0.00    +0.000 OA
ENDROOT
BRANCH   1   2
ATOM      2  C   UNL     1       2.190   5.136  21.101  0.00  0.00    +0.000 C 
BRANCH   2   3
ATOM      3  C   UNL     1       1.302   6.215  20.494  0.00  0.00    +0.000 C 
BRANCH   3   4
ATOM      4  O   UNL     1       1.762   7.492  20.741  0.00  0.00    +0.000 OA
BRANCH   4  10
ATOM      5  C   UNL     1       1.388   8.860  18.735  0.00  0.00    +0.000 A 
ATOM      6  C   UNL     1       0.845  10.032  18.191  0.00  0.00    +0.000 A 
ATOM      7  C   UNL     1       0.234  11.016  18.995  0.00  0.00    +0.000 A 
ATOM      8  C   UNL     1       0.199  10.786  20.385  0.00  0.00    +0.000 A 
ATOM      9  C   UNL     1       0.716   9.606  20.959  0.00  0.00    +0.000 A 
ATOM     10  C   UNL     1       1.298   8.626  20.137  0.00  0.00    +0.000 A 
BRANCH   7  11
ATOM     11  C   UNL     1      -0.331  12.289  18.395  0.00  0.00    +0.000 C 
ATOM     12  N   UNL     1      -1.397  12.286  17.668  0.00  0.00    +0.000 NA
ATOM     13  N   UNL     1       0.296  13.550  18.604  0.00  0.00    +0.000 N 
ATOM     14  H   UNL     1      -1.960  11.462  17.433  0.00  0.00    +0.000 HD
ATOM     15  H   UNL     1       1.159  13.676  19.141  0.00  0.00    +0.000 HD
ATOM     16  H   UNL     1      -0.111  14.394  18.176  0.00  0.00    +0.000 HD
ENDBRANCH   7  11
BRANCH   5  18
ATOM     17  C   UNL     1       3.370   7.954  17.582  0.00  0.00    +0.000 C 
ATOM     18  O   UNL     1       2.038   7.971  17.940  0.00  0.00    +0.000 OA
ENDBRANCH   5  18
BRANCH   9  19
ATOM     19  O   UNL     1       0.703   9.407  22.305  0.00  0.00    +0.000 OA
ATOM     20  C   UNL     1      -0.318   9.766  23.165  0.00  0.00    +0.000 C 
ENDBRANCH   9  19
ENDBRANCH   4  10
ENDBRANCH   3   4
ENDBRANCH   2   3
ENDBRANCH   1   2
BRANCH   1  21
ATOM     21  C   UNL     1       3.105   2.962  20.763  0.00  0.00    +0.000 C 
BRANCH  21  22
ATOM     22  C   UNL     1       4.501   2.839  20.155  0.00  0.00    +0.000 C 
BRANCH  22  23
ATOM     23  O   UNL     1       4.674   3.934  19.334  0.00  0.00    +0.000 OA
BRANCH  23  24
ATOM     24  C   UNL     1       5.135   4.056  18.063  0.00  0.00    +0.000 A 
ATOM     25  C   UNL     1       6.498   4.426  17.905  0.00  0.00    +0.000 A 
ATOM     26  C   UNL     1       7.031   4.583  16.624  0.00  0.00    +0.000 A 
ATOM     27  C   UNL     1       6.265   4.374  15.462  0.00  0.00    +0.000 A 
ATOM     28  C   UNL     1       4.923   4.004  15.631  0.00  0.00    +0.000 A 
ATOM     29  C   UNL     1       4.339   3.840  16.905  0.00  0.00    +0.000 A 
BRANCH  27  30
ATOM     30  C   UNL     1       6.858   4.533  14.074  0.00  0.00    +0.000 C 
ATOM     31  N   UNL     1       7.708   5.462  13.800  0.00  0.00    +0.000 NA
ATOM     32  N   UNL     1       6.506   3.656  13.004  0.00  0.00    +0.000 N 
ATOM     33  H   UNL     1       8.057   6.164  14.462  0.00  0.00    +0.000 HD
ATOM     34  H   UNL     1       5.858   2.869  13.095  0.00  0.00    +0.000 HD
ATOM     35  H   UNL     1       6.935   3.792  12.078  0.00  0.00    +0.000 HD
ENDBRANCH  27  30
BRANCH  25  36
ATOM     36  O   UNL     1       7.356   4.656  18.939  0.00  0.00    +0.000 OA
ATOM     37  C   UNL     1       7.850   5.857  19.409  0.00  0.00    +0.000 C 
ENDBRANCH  25  36
BRANCH  29  38
ATOM     38  O   UNL     1       3.037   3.461  17.014  0.00  0.00    +0.000 OA
ATOM     39  C   UNL     1       2.584   2.188  17.314  0.00  0.00    +0.000 C 
ENDBRANCH  29  38
ENDBRANCH  23  24
ENDBRANCH  22  23
ENDBRANCH  21  22
ENDBRANCH   1  21
TORSDOF 14
ENDMDL
MODEL 2
REMARK VINA RESULT:      -6.9      0.764      2.463
REMARK  Name = 
REMARK  18 active torsions:
REMARK  status: ('A' for Active; 'I' for Inactive)
REMARK    1  A    between atoms: C_1  and  O_2
REMARK    2  A    between atoms: O_2  and  C_3
REMARK    3  A    between atoms: C_5  and  C_6
REMARK    4  A    between atoms: C_10  and  O_11
REMARK    5  A    between atoms: O_11  and  C_12
REMARK    6  A    between atoms: C_13  and  O_14
REMARK    7  A    between atoms: O_14  and  C_15
REMARK    8  A    between atoms: C_15  and  C_16
REMARK    9  A    between atoms: C_16  and  O_17
REMARK   10  A    between atoms: O_17  and  C_18
REMARK   11  A    between atoms: C_18  and  C_19
REMARK   12  A    between atoms: C_19  and  O_20
REMARK   13  A    between atoms: O_20  and  C_21
REMARK   14  A    between atoms: C_22  and  O_23
REMARK   15  A    between atoms: O_23  and  C_24
REMARK   16  A    between atoms: C_26  and  C_27
REMARK   17  A    between atoms: C_31  and  O_32
REMARK   18  A    between atoms: O_32  and  C_33
REMARK                            x       y       z     vdW  Elec       q    Type
REMARK                         _______ _______ _______ _____ _____    ______ ____
ROOT
ATOM      1  O   UNL     1       2.507   4.544  21.384  0.00  0.00    +0.000 OA
ENDROOT
BRANCH   1   2
ATOM      2  C   UNL     1       1.491   5.432  20.929  0.00  0.00    +0.000 C 
BRANCH   2   3
ATOM      3  C   UNL     1       2.047   6.453  19.944  0.00  0.00    +0.000 C 
BRANCH   3   4
ATOM      4  O   UNL     1       1.974   7.748  20.413  0.00  0.00    +0.000 OA
BRANCH   4  10
ATOM      5  C   UNL     1       0.167   9.372  20.780  0.00  0.00    +0.000 A 
ATOM      6  C   UNL     1      -0.645  10.377  20.234  0.00  0.00    +0.000 A 
ATOM      7  C   UNL     1      -0.579  10.733  18.872  0.00  0.00    +0.000 A 
ATOM      8  C   UNL     1       0.332  10.028  18.061  0.00  0.00    +0.000 A 
ATOM      9  C   UNL     1       1.179   9.028  18.586  0.00  0.00    +0.000 A 
ATOM     10  C   UNL     1       1.115   8.706  19.952  0.00  0.00    +0.000 A 
BRANCH   7  11
ATOM     11  C   UNL     1      -1.479  11.807  18.292  0.00  0.00    +0.000 C 
ATOM     12  N   UNL     1      -1.026  12.723  17.504  0.00  0.00    +0.000 NA
ATOM     13  N   UNL     1      -2.868  11.855  18.595  0.00  0.00    +0.000 N 
ATOM     14  H   UNL     1      -0.054  12.817  17.191  0.00  0.00    +0.000 HD
ATOM     15  H   UNL     1      -3.339  11.199  19.226  0.00  0.00    +0.000 HD
ATOM     16  H   UNL     1      -3.449  12.603  18.189  0.00  0.00    +0.000 HD
ENDBRANCH   7  11
BRANCH   5  18
ATOM     17  C   UNL     1      -0.175   9.803  23.183  0.00  0.00    +0.000 C 
ATOM     18  O   UNL     1       0.023   9.001  22.078  0.00  0.00    +0.000 OA
ENDBRANCH   5  18
BRANCH   9  19
ATOM     19  O   UNL     1       2.035   8.333  17.788  0.00  0.00    +0.000 OA
ATOM     20  C   UNL     1       3.349   8.672  17.525  0.00  0.00    +0.000 C 
ENDBRANCH   9  19
ENDBRANCH   4  10
ENDBRANCH   3   4
ENDBRANCH   2   3
ENDBRANCH   1   2
BRANCH   1  21
ATOM     21  C   UNL     1       2.504   3.287  20.714  0.00  0.00    +0.000 C 
BRANCH  21  22
ATOM     22  C   UNL     1       3.903   2.877  20.257  0.00  0.00    +0.000 C 
BRANCH  22  23
ATOM     23  O   UNL     1       4.411   3.938  19.537  0.00  0.00    +0.000 OA
BRANCH  23  24
ATOM     24  C   UNL     1       4.899   4.031  18.273  0.00  0.00    +0.000 A 
ATOM     25  C   UNL     1       6.250   4.448  18.134  0.00  0.00    +0.000 A 
ATOM     26  C   UNL     1       6.809   4.579  16.861  0.00  0.00    +0.000 A 
ATOM     27  C   UNL     1       6.082   4.298  15.690  0.00  0.00    +0.000 A 
ATOM     28  C   UNL     1       4.751   3.881  15.840  0.00  0.00    +0.000 A 
ATOM     29  C   UNL     1       4.141   3.742  17.106  0.00  0.00    +0.000 A 
BRANCH  27  30
ATOM     30  C   UNL     1       6.703   4.429  14.312  0.00  0.00    +0.000 C 
ATOM     31  N   UNL     1       6.407   3.621  13.353  0.00  0.00    +0.000 NA
ATOM     32  N   UNL     1       7.645   5.459  14.009  0.00  0.00    +0.000 N 
ATOM     33  H   UNL     1       5.750   2.835  13.418  0.00  0.00    +0.000 HD
ATOM     34  H   UNL     1       7.949   6.174  14.676  0.00  0.00    +0.000 HD
ATOM     35  H   UNL     1       8.040   5.519  13.060  0.00  0.00    +0.000 HD
ENDBRANCH  27  30
BRANCH  25  36
ATOM     36  O   UNL     1       7.072   4.750  19.179  0.00  0.00    +0.000 OA
ATOM     37  C   UNL     1       7.889   5.850  19.355  0.00  0.00    +0.000 C 
ENDBRANCH  25  36
BRANCH  29  38
ATOM     38  O   UNL     1       2.853   3.316  17.197  0.00  0.00    +0.000 OA
ATOM     39  C   UNL     1       1.737   4.126  17.325  0.00  0.00    +0.000 C 
ENDBRANCH  29  38
ENDBRANCH  23  24
ENDBRANCH  22  23
ENDBRANCH  21  22
ENDBRANCH   1  21
TORSDOF 14
ENDMDL
MODEL 3
REMARK VINA RESULT:      -6.9      1.817      2.416
REMARK  Name = 
REMARK  18 active torsions:
REMARK  status: ('A' for Active; 'I' for Inactive)
REMARK    1  A    between atoms: C_1  and  O_2
REMARK    2  A    between atoms: O_2  and  C_3
REMARK    3  A    between atoms: C_5  and  C_6
REMARK    4  A    between atoms: C_10  and  O_11
REMARK    5  A    between atoms: O_11  and  C_12
REMARK    6  A    between atoms: C_13  and  O_14
REMARK    7  A    between atoms: O_14  and  C_15
REMARK    8  A    between atoms: C_15  and  C_16
REMARK    9  A    between atoms: C_16  and  O_17
REMARK   10  A    between atoms: O_17  and  C_18
REMARK   11  A    between atoms: C_18  and  C_19
REMARK   12  A    between atoms: C_19  and  O_20
REMARK   13  A    between atoms: O_20  and  C_21
REMARK   14  A    between atoms: C_22  and  O_23
REMARK   15  A    between atoms: O_23  and  C_24
REMARK   16  A    between atoms: C_26  and  C_27
REMARK   17  A    between atoms: C_31  and  O_32
REMARK   18  A    between atoms: O_32  and  C_33
REMARK                            x       y       z     vdW  Elec       q    Type
REMARK                         _______ _______ _______ _____ _____    ______ ____
ROOT
ATOM      1  O   UNL     1       1.360   6.875  20.982  0.00  0.00    +0.000 OA
ENDROOT
BRANCH   1   2
ATOM      2  C   UNL     1       1.439   8.295  21.059  0.00  0.00    +0.000 C 
BRANCH   2   3
ATOM      3  C   UNL     1       0.071   8.912  21.322  0.00  0.00    +0.000 C 
BRANCH   3   4
ATOM      4  O   UNL     1      -0.263   9.890  20.408  0.00  0.00    +0.000 OA
BRANCH   4  10
ATOM      5  C   UNL     1       1.238  10.845  18.714  0.00  0.00    +0.000 A 
ATOM      6  C   UNL     1       2.041  11.927  18.325  0.00  0.00    +0.000 A 
ATOM      7  C   UNL     1       2.242  13.046  19.158  0.00  0.00    +0.000 A 
ATOM      8  C   UNL     1       1.612  13.037  20.419  0.00  0.00    +0.000 A 
ATOM      9  C   UNL     1       0.779  11.975  20.828  0.00  0.00    +0.000 A 
ATOM     10  C   UNL     1       0.571  10.880  19.973  0.00  0.00    +0.000 A 
BRANCH   7  11
ATOM     11  C   UNL     1       3.131  14.199  18.733  0.00  0.00    +0.000 C 
ATOM     12  N   UNL     1       4.056  14.055  17.845  0.00  0.00    +0.000 NA
ATOM     13  N   UNL     1       2.986  15.496  19.300  0.00  0.00    +0.000 N 
ATOM     14  H   UNL     1       4.278  13.187  17.346  0.00  0.00    +0.000 HD
ATOM     15  H   UNL     1       2.305  15.728  20.029  0.00  0.00    +0.000 HD
ATOM     16  H   UNL     1       3.612  16.254  18.993  0.00  0.00    +0.000 HD
ENDBRANCH   7  11
BRANCH   5  18
ATOM     17  C   UNL     1       2.105   8.836  17.580  0.00  0.00    +0.000 C 
ATOM     18  O   UNL     1       1.129   9.749  17.920  0.00  0.00    +0.000 OA
ENDBRANCH   5  18
BRANCH   9  19
ATOM     19  O   UNL     1       0.198  11.963  22.059  0.00  0.00    +0.000 OA
ATOM     20  C   UNL     1      -0.669  12.919  22.552  0.00  0.00    +0.000 C 
ENDBRANCH   9  19
ENDBRANCH   4  10
ENDBRANCH   3   4
ENDBRANCH   2   3
ENDBRANCH   1   2
BRANCH   1  21
ATOM     21  C   UNL     1       2.298   6.303  20.075  0.00  0.00    +0.000 C 
BRANCH  21  22
ATOM     22  C   UNL     1       2.542   4.822  20.360  0.00  0.00    +0.000 C 
BRANCH  22  23
ATOM     23  O   UNL     1       3.843   4.556  19.984  0.00  0.00    +0.000 OA
BRANCH  23  24
ATOM     24  C   UNL     1       4.448   4.504  18.770  0.00  0.00    +0.000 A 
ATOM     25  C   UNL     1       5.795   4.950  18.702  0.00  0.00    +0.000 A 
ATOM     26  C   UNL     1       6.470   4.937  17.480  0.00  0.00    +0.000 A 
ATOM     27  C   UNL     1       5.867   4.480  16.294  0.00  0.00    +0.000 A 
ATOM     28  C   UNL     1       4.539   4.037  16.375  0.00  0.00    +0.000 A 
ATOM     29  C   UNL     1       3.813   4.038  17.585  0.00  0.00    +0.000 A 
BRANCH  27  30
ATOM     30  C   UNL     1       6.615   4.456  14.974  0.00  0.00    +0.000 C 
ATOM     31  N   UNL     1       7.619   5.232  14.747  0.00  0.00    +0.000 NA
ATOM     32  N   UNL     1       6.245   3.568  13.919  0.00  0.00    +0.000 N 
ATOM     33  H   UNL     1       8.000   5.920  15.406  0.00  0.00    +0.000 HD
ATOM     34  H   UNL     1       5.480   2.890  13.980  0.00  0.00    +0.000 HD
ATOM     35  H   UNL     1       6.781   3.576  13.040  0.00  0.00    +0.000 HD
ENDBRANCH  27  30
BRANCH  25  36
ATOM     36  O   UNL     1       6.504   5.414  19.769  0.00  0.00    +0.000 OA
ATOM     37  C   UNL     1       7.856   5.684  19.866  0.00  0.00    +0.000 C 
ENDBRANCH  25  36
BRANCH  29  38
ATOM     38  O   UNL     1       2.534   3.580  17.613  0.00  0.00    +0.000 OA
ATOM     39  C   UNL     1       2.148   2.256  17.746  0.00  0.00    +0.000 C 
ENDBRANCH  29  38
ENDBRANCH  23  24
ENDBRANCH  22  23
ENDBRANCH  21  22
ENDBRANCH   1  21
TORSDOF 14
ENDMDL
MODEL 4
REMARK VINA RESULT:      -6.8      0.657      8.418
REMARK  Name = 
REMARK  18 active torsions:
REMARK  status: ('A' for Active; 'I' for Inactive)
REMARK    1  A    between atoms: C_1  and  O_2
REMARK    2  A    between atoms: O_2  and  C_3
REMARK    3  A    between atoms: C_5  and  C_6
REMARK    4  A    between atoms: C_10  and  O_11
REMARK    5  A    between atoms: O_11  and  C_12
REMARK    6  A    between atoms: C_13  and  O_14
REMARK    7  A    between atoms: O_14  and  C_15
REMARK    8  A    between atoms: C_15  and  C_16
REMARK    9  A    between atoms: C_16  and  O_17
REMARK   10  A    between atoms: O_17  and  C_18
REMARK   11  A    between atoms: C_18  and  C_19
REMARK   12  A    between atoms: C_19  and  O_20
REMARK   13  A    between atoms: O_20  and  C_21
REMARK   14  A    between atoms: C_22  and  O_23
REMARK   15  A    between atoms: O_23  and  C_24
REMARK   16  A    between atoms: C_26  and  C_27
REMARK   17  A    between atoms: C_31  and  O_32
REMARK   18  A    between atoms: O_32  and  C_33
REMARK                            x       y       z     vdW  Elec       q    Type
REMARK                         _______ _______ _______ _____ _____    ______ ____
ROOT
ATOM      1  O   UNL     1       2.775   4.722  21.160  0.00  0.00    +0.000 OA
ENDROOT
BRANCH   1   2
ATOM      2  C   UNL     1       2.889   3.419  20.597  0.00  0.00    +0.000 C 
BRANCH   2   3
ATOM      3  C   UNL     1       4.282   3.183  20.025  0.00  0.00    +0.000 C 
BRANCH   3   4
ATOM      4  O   UNL     1       4.795   4.292  19.384  0.00  0.00    +0.000 OA
BRANCH   4  10
ATOM      5  C   UNL     1       4.401   4.107  16.966  0.00  0.00    +0.000 A 
ATOM      6  C   UNL     1       4.936   4.199  15.674  0.00  0.00    +0.000 A 
ATOM      7  C   UNL     1       6.301   4.464  15.447  0.00  0.00    +0.000 A 
ATOM      8  C   UNL     1       7.127   4.623  16.578  0.00  0.00    +0.000 A 
ATOM      9  C   UNL     1       6.614   4.560  17.891  0.00  0.00    +0.000 A 
ATOM     10  C   UNL     1       5.245   4.319  18.094  0.00  0.00    +0.000 A 
BRANCH   7  11
ATOM     11  C   UNL     1       6.870   4.539  14.043  0.00  0.00    +0.000 C 
ATOM     12  N   UNL     1       7.742   5.429  13.707  0.00  0.00    +0.000 NA
ATOM     13  N   UNL     1       6.462   3.630  13.027  0.00  0.00    +0.000 N 
ATOM     14  H   UNL     1       8.135   6.146  14.326  0.00  0.00    +0.000 HD
ATOM     15  H   UNL     1       5.760   2.896  13.165  0.00  0.00    +0.000 HD
ATOM     16  H   UNL     1       6.864   3.714  12.083  0.00  0.00    +0.000 HD
ENDBRANCH   7  11
BRANCH   5  18
ATOM     17  C   UNL     1       2.533   2.516  17.202  0.00  0.00    +0.000 C 
ATOM     18  O   UNL     1       3.098   3.773  17.149  0.00  0.00    +0.000 OA
ENDBRANCH   5  18
BRANCH   9  19
ATOM     19  O   UNL     1       7.425   4.686  18.976  0.00  0.00    +0.000 OA
ATOM     20  C   UNL     1       7.941   5.871  19.466  0.00  0.00    +0.000 C 
ENDBRANCH   9  19
ENDBRANCH   4  10
ENDBRANCH   3   4
ENDBRANCH   2   3
ENDBRANCH   1   2
BRANCH   1  21
ATOM     21  C   UNL     1       2.088   5.645  20.320  0.00  0.00    +0.000 C 
BRANCH  21  22
ATOM     22  C   UNL     1       1.345   6.710  21.125  0.00  0.00    +0.000 C 
BRANCH  22  23
ATOM     23  O   UNL     1       1.707   7.931  20.594  0.00  0.00    +0.000 OA
BRANCH  23  24
ATOM     24  C   UNL     1       0.977   8.948  20.067  0.00  0.00    +0.000 A 
ATOM     25  C   UNL     1       1.310   9.363  18.749  0.00  0.00    +0.000 A 
ATOM     26  C   UNL     1       0.608  10.413  18.154  0.00  0.00    +0.000 A 
ATOM     27  C   UNL     1      -0.442  11.081  18.810  0.00  0.00    +0.000 A 
ATOM     28  C   UNL     1      -0.765  10.658  20.108  0.00  0.00    +0.000 A 
ATOM     29  C   UNL     1      -0.079   9.607  20.754  0.00  0.00    +0.000 A 
BRANCH  27  30
ATOM     30  C   UNL     1      -1.208  12.211  18.149  0.00  0.00    +0.000 C 
ATOM     31  N   UNL     1      -2.446  12.088  17.812  0.00  0.00    +0.000 NA
ATOM     32  N   UNL     1      -0.594  13.470  17.871  0.00  0.00    +0.000 N 
ATOM     33  H   UNL     1      -3.018  11.248  17.947  0.00  0.00    +0.000 HD
ATOM     34  H   UNL     1       0.375  13.702  18.105  0.00  0.00    +0.000 HD
ATOM     35  H   UNL     1      -1.149  14.216  17.426  0.00  0.00    +0.000 HD
ENDBRANCH  27  30
BRANCH  25  36
ATOM     36  O   UNL     1       2.299   8.805  17.996  0.00  0.00    +0.000 OA
ATOM     37  C   UNL     1       2.425   7.503  17.549  0.00  0.00    +0.000 C 
ENDBRANCH  25  36
BRANCH  29  38
ATOM     38  O   UNL     1      -0.444   9.223  22.006  0.00  0.00    +0.000 OA
ATOM     39  C   UNL     1      -0.801  10.069  23.043  0.00  0.00    +0.000 C 
ENDBRANCH  29  38
ENDBRANCH  23  24
ENDBRANCH  22  23
ENDBRANCH  21  22
ENDBRANCH   1  21
TORSDOF 14
ENDMDL
MODEL 5
REMARK VINA RESULT:      -6.7      2.583      3.733
REMARK  Name = 
REMARK  18 active torsions:
REMARK  status: ('A' for Active; 'I' for Inactive)
REMARK    1  A    between atoms: C_1  and  O_2
REMARK    2  A    between atoms: O_2  and  C_3
REMARK    3  A    between atoms: C_5  and  C_6
REMARK    4  A    between atoms: C_10  and  O_11
REMARK    5  A    between atoms: O_11  and  C_12
REMARK    6  A    between atoms: C_13  and  O_14
REMARK    7  A    between atoms: O_14  and  C_15
REMARK    8  A    between atoms: C_15  and  C_16
REMARK    9  A    between atoms: C_16  and  O_17
REMARK   10  A    between atoms: O_17  and  C_18
REMARK   11  A    between atoms: C_18  and  C_19
REMARK   12  A    between atoms: C_19  and  O_20
REMARK   13  A    between atoms: O_20  and  C_21
REMARK   14  A    between atoms: C_22  and  O_23
REMARK   15  A    between atoms: O_23  and  C_24
REMARK   16  A    between atoms: C_26  and  C_27
REMARK   17  A    between atoms: C_31  and  O_32
REMARK   18  A    between atoms: O_32  and  C_33
REMARK                            x       y       z     vdW  Elec       q    Type
REMARK                         _______ _______ _______ _____ _____    ______ ____
ROOT
ATOM      1  O   UNL     1       1.821   7.812  18.799  0.00  0.00    +0.000 OA
ENDROOT
BRANCH   1   2
ATOM      2  C   UNL     1       1.926   9.183  18.429  0.00  0.00    +0.000 C 
BRANCH   2   3
ATOM      3  C   UNL     1       0.556   9.850  18.379  0.00  0.00    +0.000 C 
BRANCH   3   4
ATOM      4  O   UNL     1       0.534  11.080  19.005  0.00  0.00    +0.000 OA
BRANCH   4  10
ATOM      5  C   UNL     1      -0.028  11.143  21.395  0.00  0.00    +0.000 A 
ATOM      6  C   UNL     1      -0.919  11.579  22.386  0.00  0.00    +0.000 A 
ATOM      7  C   UNL     1      -2.108  12.269  22.072  0.00  0.00    +0.000 A 
ATOM      8  C   UNL     1      -2.383  12.498  20.709  0.00  0.00    +0.000 A 
ATOM      9  C   UNL     1      -1.494  12.093  19.691  0.00  0.00    +0.000 A 
ATOM     10  C   UNL     1      -0.303  11.429  20.027  0.00  0.00    +0.000 A 
BRANCH   7  11
ATOM     11  C   UNL     1      -3.073  12.716  23.153  0.00  0.00    +0.000 C 
ATOM     12  N   UNL     1      -3.636  11.875  23.954  0.00  0.00    +0.000 NA
ATOM     13  N   UNL     1      -3.406  14.088  23.330  0.00  0.00    +0.000 N 
ATOM     14  H   UNL     1      -3.493  10.860  23.954  0.00  0.00    +0.000 HD
ATOM     15  H   UNL     1      -3.044  14.845  22.742  0.00  0.00    +0.000 HD
ATOM     16  H   UNL     1      -4.070  14.355  24.071  0.00  0.00    +0.000 HD
ENDBRANCH   7  11
BRANCH   5  18
ATOM     17  C   UNL     1       1.122   9.143  22.263  0.00  0.00    +0.000 C 
ATOM     18  O   UNL     1       1.067  10.414  21.729  0.00  0.00    +0.000 OA
ENDBRANCH   5  18
BRANCH   9  19
ATOM     19  O   UNL     1      -1.783  12.294  18.376  0.00  0.00    +0.000 OA
ATOM     20  C   UNL     1      -2.679  11.558  17.624  0.00  0.00    +0.000 C 
ENDBRANCH   9  19
ENDBRANCH   4  10
ENDBRANCH   3   4
ENDBRANCH   2   3
ENDBRANCH   1   2
BRANCH   1  21
ATOM     21  C   UNL     1       2.878   7.004  18.289  0.00  0.00    +0.000 C 
BRANCH  21  22
ATOM     22  C   UNL     1       3.416   6.034  19.339  0.00  0.00    +0.000 C 
BRANCH  22  23
ATOM     23  O   UNL     1       4.660   5.628  18.902  0.00  0.00    +0.000 OA
BRANCH  23  24
ATOM     24  C   UNL     1       5.128   5.285  17.674  0.00  0.00    +0.000 A 
ATOM     25  C   UNL     1       6.050   6.178  17.064  0.00  0.00    +0.000 A 
ATOM     26  C   UNL     1       6.557   5.892  15.795  0.00  0.00    +0.000 A 
ATOM     27  C   UNL     1       6.198   4.730  15.088  0.00  0.00    +0.000 A 
ATOM     28  C   UNL     1       5.292   3.854  15.703  0.00  0.00    +0.000 A 
ATOM     29  C   UNL     1       4.747   4.104  16.980  0.00  0.00    +0.000 A 
BRANCH  27  30
ATOM     30  C   UNL     1       6.767   4.422  13.715  0.00  0.00    +0.000 C 
ATOM     31  N   UNL     1       7.668   5.164  13.170  0.00  0.00    +0.000 NA
ATOM     32  N   UNL     1       6.333   3.289  12.962  0.00  0.00    +0.000 N 
ATOM     33  H   UNL     1       8.077   6.007  13.588  0.00  0.00    +0.000 HD
ATOM     34  H   UNL     1       5.638   2.612  13.289  0.00  0.00    +0.000 HD
ATOM     35  H   UNL     1       6.748   3.108  12.037  0.00  0.00    +0.000 HD
ENDBRANCH  27  30
BRANCH  25  36
ATOM     36  O   UNL     1       6.488   7.336  17.633  0.00  0.00    +0.000 OA
ATOM     37  C   UNL     1       7.732   7.932  17.550  0.00  0.00    +0.000 C 
ENDBRANCH  25  36
BRANCH  29  38
ATOM     38  O   UNL     1       3.887   3.213  17.540  0.00  0.00    +0.000 OA
ATOM     39  C   UNL     1       2.512   3.196  17.375  0.00  0.00    +0.000 C 
ENDBRANCH  29  38
ENDBRANCH  23  24
ENDBRANCH  22  23
ENDBRANCH  21  22
ENDBRANCH   1  21
TORSDOF 14
ENDMDL
MODEL 6
REMARK VINA RESULT:      -6.7      2.178      3.542
REMARK  Name = 
REMARK  18 active torsions:
REMARK  status: ('A' for Active; 'I' for Inactive)
REMARK    1  A    between atoms: C_1  and  O_2
REMARK    2  A    between atoms: O_2  and  C_3
REMARK    3  A    between atoms: C_5  and  C_6
REMARK    4  A    between atoms: C_10  and  O_11
REMARK    5  A    between atoms: O_11  and  C_12
REMARK    6  A    between atoms: C_13  and  O_14
REMARK    7  A    between atoms: O_14  and  C_15
REMARK    8  A    between atoms: C_15  and  C_16
REMARK    9  A    between atoms: C_16  and  O_17
REMARK   10  A    between atoms: O_17  and  C_18
REMARK   11  A    between atoms: C_18  and  C_19
REMARK   12  A    between atoms: C_19  and  O_20
REMARK   13  A    between atoms: O_20  and  C_21
REMARK   14  A    between atoms: C_22  and  O_23
REMARK   15  A    between atoms: O_23  and  C_24
REMARK   16  A    between atoms: C_26  and  C_27
REMARK   17  A    between atoms: C_31  and  O_32
REMARK   18  A    between atoms: O_32  and  C_33
REMARK                            x       y       z     vdW  Elec       q    Type
REMARK                         _______ _______ _______ _____ _____    ______ ____
ROOT
ATOM      1  O   UNL     1       2.183   7.740  18.911  0.00  0.00    +0.000 OA
ENDROOT
BRANCH   1   2
ATOM      2  C   UNL     1       2.159   8.809  17.971  0.00  0.00    +0.000 C 
BRANCH   2   3
ATOM      3  C   UNL     1       1.443  10.030  18.536  0.00  0.00    +0.000 C 
BRANCH   3   4
ATOM      4  O   UNL     1       0.251   9.714  19.155  0.00  0.00    +0.000 OA
BRANCH   4  10
ATOM      5  C   UNL     1      -0.683  11.055  20.990  0.00  0.00    +0.000 A 
ATOM      6  C   UNL     1      -1.615  12.025  21.387  0.00  0.00    +0.000 A 
ATOM      7  C   UNL     1      -2.556  12.568  20.489  0.00  0.00    +0.000 A 
ATOM      8  C   UNL     1      -2.540  12.089  19.164  0.00  0.00    +0.000 A 
ATOM      9  C   UNL     1      -1.599  11.131  18.729  0.00  0.00    +0.000 A 
ATOM     10  C   UNL     1      -0.653  10.621  19.634  0.00  0.00    +0.000 A 
BRANCH   7  11
ATOM     11  C   UNL     1      -3.572  13.601  20.938  0.00  0.00    +0.000 C 
ATOM     12  N   UNL     1      -3.556  14.101  22.127  0.00  0.00    +0.000 NA
ATOM     13  N   UNL     1      -4.597  14.062  20.064  0.00  0.00    +0.000 N 
ATOM     14  H   UNL     1      -2.881  13.873  22.864  0.00  0.00    +0.000 HD
ATOM     15  H   UNL     1      -4.727  13.722  19.106  0.00  0.00    +0.000 HD
ATOM     16  H   UNL     1      -5.275  14.759  20.404  0.00  0.00    +0.000 HD
ENDBRANCH   7  11
BRANCH   5  18
ATOM     17  C   UNL     1      -0.158   9.728  23.000  0.00  0.00    +0.000 C 
ATOM     18  O   UNL     1       0.157  10.497  21.899  0.00  0.00    +0.000 OA
ENDBRANCH   5  18
BRANCH   9  19
ATOM     19  O   UNL     1      -1.610  10.654  17.454  0.00  0.00    +0.000 OA
ATOM     20  C   UNL     1      -2.575   9.826  16.910  0.00  0.00    +0.000 C 
ENDBRANCH   9  19
ENDBRANCH   4  10
ENDBRANCH   3   4
ENDBRANCH   2   3
ENDBRANCH   1   2
BRANCH   1  21
ATOM     21  C   UNL     1       2.955   6.623  18.480  0.00  0.00    +0.000 C 
BRANCH  21  22
ATOM     22  C   UNL     1       3.481   5.802  19.656  0.00  0.00    +0.000 C 
BRANCH  22  23
ATOM     23  O   UNL     1       4.538   5.056  19.177  0.00  0.00    +0.000 OA
BRANCH  23  24
ATOM     24  C   UNL     1       5.035   4.879  17.926  0.00  0.00    +0.000 A 
ATOM     25  C   UNL     1       6.250   5.546  17.616  0.00  0.00    +0.000 A 
ATOM     26  C   UNL     1       6.807   5.418  16.342  0.00  0.00    +0.000 A 
ATOM     27  C   UNL     1       6.212   4.632  15.338  0.00  0.00    +0.000 A 
ATOM     28  C   UNL     1       5.015   3.974  15.658  0.00  0.00    +0.000 A 
ATOM     29  C   UNL     1       4.411   4.079  16.929  0.00  0.00    +0.000 A 
BRANCH  27  30
ATOM     30  C   UNL     1       6.833   4.488  13.961  0.00  0.00    +0.000 C 
ATOM     31  N   UNL     1       6.490   3.542  13.156  0.00  0.00    +0.000 NA
ATOM     32  N   UNL     1       7.827   5.398  13.489  0.00  0.00    +0.000 N 
ATOM     33  H   UNL     1       5.792   2.817  13.353  0.00  0.00    +0.000 HD
ATOM     34  H   UNL     1       8.172   6.200  14.022  0.00  0.00    +0.000 HD
ATOM     35  H   UNL     1       8.220   5.271  12.545  0.00  0.00    +0.000 HD
ENDBRANCH  27  30
BRANCH  25  36
ATOM     36  O   UNL     1       6.937   6.335  18.489  0.00  0.00    +0.000 OA
ATOM     37  C   UNL     1       7.936   7.254  18.232  0.00  0.00    +0.000 C 
ENDBRANCH  25  36
BRANCH  29  38
ATOM     38  O   UNL     1       3.260   3.405  17.194  0.00  0.00    +0.000 OA
ATOM     39  C   UNL     1       3.165   2.176  17.824  0.00  0.00    +0.000 C 
ENDBRANCH  29  38
ENDBRANCH  23  24
ENDBRANCH  22  23
ENDBRANCH  21  22
ENDBRANCH   1  21
TORSDOF 14
ENDMDL
MODEL 7
REMARK VINA RESULT:      -6.7      0.560      8.034
REMARK  Name = 
REMARK  18 active torsions:
REMARK  status: ('A' for Active; 'I' for Inactive)
REMARK    1  A    between atoms: C_1  and  O_2
REMARK    2  A    between atoms: O_2  and  C_3
REMARK    3  A    between atoms: C_5  and  C_6
REMARK    4  A    between atoms: C_10  and  O_11
REMARK    5  A    between atoms: O_11  and  C_12
REMARK    6  A    between atoms: C_13  and  O_14
REMARK    7  A    between atoms: O_14  and  C_15
REMARK    8  A    between atoms: C_15  and  C_16
REMARK    9  A    between atoms: C_16  and  O_17
REMARK   10  A    between atoms: O_17  and  C_18
REMARK   11  A    between atoms: C_18  and  C_19
REMARK   12  A    between atoms: C_19  and  O_20
REMARK   13  A    between atoms: O_20  and  C_21
REMARK   14  A    between atoms: C_22  and  O_23
REMARK   15  A    between atoms: O_23  and  C_24
REMARK   16  A    between atoms: C_26  and  C_27
REMARK   17  A    between atoms: C_31  and  O_32
REMARK   18  A    between atoms: O_32  and  C_33
REMARK                            x       y       z     vdW  Elec       q    Type
REMARK                         _______ _______ _______ _____ _____    ______ ____
ROOT
ATOM      1  O   UNL     1       2.108   3.651  20.360  0.00  0.00    +0.000 OA
ENDROOT
BRANCH   1   2
ATOM      2  C   UNL     1       3.278   3.169  21.014  0.00  0.00    +0.000 C 
BRANCH   2   3
ATOM      3  C   UNL     1       4.424   2.975  20.028  0.00  0.00    +0.000 C 
BRANCH   3   4
ATOM      4  O   UNL     1       4.756   4.132  19.354  0.00  0.00    +0.000 OA
BRANCH   4  10
ATOM      5  C   UNL     1       4.387   3.943  16.933  0.00  0.00    +0.000 A 
ATOM      6  C   UNL     1       4.924   4.072  15.644  0.00  0.00    +0.000 A 
ATOM      7  C   UNL     1       6.275   4.410  15.428  0.00  0.00    +0.000 A 
ATOM      8  C   UNL     1       7.084   4.604  16.566  0.00  0.00    +0.000 A 
ATOM      9  C   UNL     1       6.567   4.505  17.874  0.00  0.00    +0.000 A 
ATOM     10  C   UNL     1       5.211   4.192  18.068  0.00  0.00    +0.000 A 
BRANCH   7  11
ATOM     11  C   UNL     1       6.848   4.525  14.029  0.00  0.00    +0.000 C 
ATOM     12  N   UNL     1       6.485   3.733  13.077  0.00  0.00    +0.000 NA
ATOM     13  N   UNL     1       7.819   5.512  13.702  0.00  0.00    +0.000 N 
ATOM     14  H   UNL     1       5.795   2.978  13.155  0.00  0.00    +0.000 HD
ATOM     15  H   UNL     1       8.203   6.181  14.377  0.00  0.00    +0.000 HD
ATOM     16  H   UNL     1       8.192   5.557  12.743  0.00  0.00    +0.000 HD
ENDBRANCH   7  11
BRANCH   5  18
ATOM     17  C   UNL     1       2.615   2.256  17.232  0.00  0.00    +0.000 C 
ATOM     18  O   UNL     1       3.102   3.540  17.105  0.00  0.00    +0.000 OA
ENDBRANCH   5  18
BRANCH   9  19
ATOM     19  O   UNL     1       7.364   4.666  18.966  0.00  0.00    +0.000 OA
ATOM     20  C   UNL     1       7.893   5.864  19.411  0.00  0.00    +0.000 C 
ENDBRANCH   9  19
ENDBRANCH   4  10
ENDBRANCH   3   4
ENDBRANCH   2   3
ENDBRANCH   1   2
BRANCH   1  21
ATOM     21  C   UNL     1       1.781   4.996  20.699  0.00  0.00    +0.000 C 
BRANCH  21  22
ATOM     22  C   UNL     1       1.695   5.894  19.466  0.00  0.00    +0.000 C 
BRANCH  22  23
ATOM     23  O   UNL     1       2.048   7.163  19.876  0.00  0.00    +0.000 OA
BRANCH  23  24
ATOM     24  C   UNL     1       1.628   8.395  19.488  0.00  0.00    +0.000 A 
ATOM     25  C   UNL     1       0.892   9.152  20.439  0.00  0.00    +0.000 A 
ATOM     26  C   UNL     1       0.417  10.421  20.099  0.00  0.00    +0.000 A 
ATOM     27  C   UNL     1       0.652  10.997  18.837  0.00  0.00    +0.000 A 
ATOM     28  C   UNL     1       1.386  10.242  17.910  0.00  0.00    +0.000 A 
ATOM     29  C   UNL     1       1.878   8.953  18.205  0.00  0.00    +0.000 A 
BRANCH  27  30
ATOM     30  C   UNL     1       0.145  12.382  18.483  0.00  0.00    +0.000 C 
ATOM     31  N   UNL     1       0.747  13.449  18.883  0.00  0.00    +0.000 NA
ATOM     32  N   UNL     1      -1.023  12.571  17.685  0.00  0.00    +0.000 N 
ATOM     33  H   UNL     1       1.595  13.473  19.460  0.00  0.00    +0.000 HD
ATOM     34  H   UNL     1      -1.580  11.808  17.291  0.00  0.00    +0.000 HD
ATOM     35  H   UNL     1      -1.332  13.528  17.460  0.00  0.00    +0.000 HD
ENDBRANCH  27  30
BRANCH  25  36
ATOM     36  O   UNL     1       0.593   8.722  21.697  0.00  0.00    +0.000 OA
ATOM     37  C   UNL     1       0.928   9.287  22.913  0.00  0.00    +0.000 C 
ENDBRANCH  25  36
BRANCH  29  38
ATOM     38  O   UNL     1       2.600   8.271  17.276  0.00  0.00    +0.000 OA
ATOM     39  C   UNL     1       3.906   7.834  17.422  0.00  0.00    +0.000 C 
ENDBRANCH  29  38
ENDBRANCH  23  24
ENDBRANCH  22  23
ENDBRANCH  21  22
ENDBRANCH   1  21
TORSDOF 14
ENDMDL
MODEL 8
REMARK VINA RESULT:      -6.6      2.605      3.708
REMARK  Name = 
REMARK  18 active torsions:
REMARK  status: ('A' for Active; 'I' for Inactive)
REMARK    1  A    between atoms: C_1  and  O_2
REMARK    2  A    between atoms: O_2  and  C_3
REMARK    3  A    between atoms: C_5  and  C_6
REMARK    4  A    between atoms: C_10  and  O_11
REMARK    5  A    between atoms: O_11  and  C_12
REMARK    6  A    between atoms: C_13  and  O_14
REMARK    7  A    between atoms: O_14  and  C_15
REMARK    8  A    between atoms: C_15  and  C_16
REMARK    9  A    between atoms: C_16  and  O_17
REMARK   10  A    between atoms: O_17  and  C_18
REMARK   11  A    between atoms: C_18  and  C_19
REMARK   12  A    between atoms: C_19  and  O_20
REMARK   13  A    between atoms: O_20  and  C_21
REMARK   14  A    between atoms: C_22  and  O_23
REMARK   15  A    between atoms: O_23  and  C_24
REMARK   16  A    between atoms: C_26  and  C_27
REMARK   17  A    between atoms: C_31  and  O_32
REMARK   18  A    between atoms: O_32  and  C_33
REMARK                            x       y       z     vdW  Elec       q    Type
REMARK                         _______ _______ _______ _____ _____    ______ ____
ROOT
ATOM      1  O   UNL     1       2.097   8.194  18.876  0.00  0.00    +0.000 OA
ENDROOT
BRANCH   1   2
ATOM      2  C   UNL     1       1.692   9.233  17.990  0.00  0.00    +0.000 C 
BRANCH   2   3
ATOM      3  C   UNL     1       0.383   9.868  18.442  0.00  0.00    +0.000 C 
BRANCH   3   4
ATOM      4  O   UNL     1       0.568  10.923  19.311  0.00  0.00    +0.000 OA
BRANCH   4  10
ATOM      5  C   UNL     1      -1.558  12.076  19.742  0.00  0.00    +0.000 A 
ATOM      6  C   UNL     1      -2.497  12.503  20.692  0.00  0.00    +0.000 A 
ATOM      7  C   UNL     1      -2.293  12.326  22.076  0.00  0.00    +0.000 A 
ATOM      8  C   UNL     1      -1.093  11.709  22.481  0.00  0.00    +0.000 A 
ATOM      9  C   UNL     1      -0.141  11.247  21.548  0.00  0.00    +0.000 A 
ATOM     10  C   UNL     1      -0.374  11.410  20.172  0.00  0.00    +0.000 A 
BRANCH   7  11
ATOM     11  C   UNL     1      -3.308  12.813  23.093  0.00  0.00    +0.000 C 
ATOM     12  N   UNL     1      -2.988  13.634  24.036  0.00  0.00    +0.000 NA
ATOM     13  N   UNL     1      -4.663  12.381  23.055  0.00  0.00    +0.000 N 
ATOM     14  H   UNL     1      -2.057  14.036  24.190  0.00  0.00    +0.000 HD
ATOM     15  H   UNL     1      -5.031  11.714  22.370  0.00  0.00    +0.000 HD
ATOM     16  H   UNL     1      -5.324  12.727  23.765  0.00  0.00    +0.000 HD
ENDBRANCH   7  11
BRANCH   5  18
ATOM     17  C   UNL     1      -2.568  11.672  17.530  0.00  0.00    +0.000 C 
ATOM     18  O   UNL     1      -1.750  12.332  18.423  0.00  0.00    +0.000 OA
ENDBRANCH   5  18
BRANCH   9  19
ATOM     19  O   UNL     1       1.028  10.678  21.950  0.00  0.00    +0.000 OA
ATOM     20  C   UNL     1       1.207   9.348  22.283  0.00  0.00    +0.000 C 
ENDBRANCH   9  19
ENDBRANCH   4  10
ENDBRANCH   3   4
ENDBRANCH   2   3
ENDBRANCH   1   2
BRANCH   1  21
ATOM     21  C   UNL     1       3.016   7.275  18.292  0.00  0.00    +0.000 C 
BRANCH  21  22
ATOM     22  C   UNL     1       3.442   6.186  19.275  0.00  0.00    +0.000 C 
BRANCH  22  23
ATOM     23  O   UNL     1       4.672   5.729  18.850  0.00  0.00    +0.000 OA
BRANCH  23  24
ATOM     24  C   UNL     1       5.137   5.366  17.627  0.00  0.00    +0.000 A 
ATOM     25  C   UNL     1       6.045   6.256  16.993  0.00  0.00    +0.000 A 
ATOM     26  C   UNL     1       6.548   5.950  15.728  0.00  0.00    +0.000 A 
ATOM     27  C   UNL     1       6.198   4.770  15.046  0.00  0.00    +0.000 A 
ATOM     28  C   UNL     1       5.306   3.897  15.684  0.00  0.00    +0.000 A 
ATOM     29  C   UNL     1       4.765   4.167  16.959  0.00  0.00    +0.000 A 
BRANCH  27  30
ATOM     30  C   UNL     1       6.763   4.440  13.677  0.00  0.00    +0.000 C 
ATOM     31  N   UNL     1       6.393   3.392  13.023  0.00  0.00    +0.000 NA
ATOM     32  N   UNL     1       7.730   5.277  13.043  0.00  0.00    +0.000 N 
ATOM     33  H   UNL     1       5.709   2.700  13.347  0.00  0.00    +0.000 HD
ATOM     34  H   UNL     1       8.092   6.146  13.447  0.00  0.00    +0.000 HD
ATOM     35  H   UNL     1       8.085   5.023  12.110  0.00  0.00    +0.000 HD
ENDBRANCH  27  30
BRANCH  25  36
ATOM     36  O   UNL     1       6.474   7.430  17.537  0.00  0.00    +0.000 OA
ATOM     37  C   UNL     1       7.760   7.927  17.633  0.00  0.00    +0.000 C 
ENDBRANCH  25  36
BRANCH  29  38
ATOM     38  O   UNL     1       3.917   3.278  17.542  0.00  0.00    +0.000 OA
ATOM     39  C   UNL     1       2.552   3.195  17.327  0.00  0.00    +0.000 C 
ENDBRANCH  29  38
ENDBRANCH  23  24
ENDBRANCH  22  23
ENDBRANCH  21  22
ENDBRANCH   1  21
TORSDOF 14
ENDMDL
MODEL 9
REMARK VINA RESULT:      -6.6      1.039      2.542
REMARK  Name = 
REMARK  18 active torsions:
REMARK  status: ('A' for Active; 'I' for Inactive)
REMARK    1  A    between atoms: C_1  and  O_2
REMARK    2  A    between atoms: O_2  and  C_3
REMARK    3  A    between atoms: C_5  and  C_6
REMARK    4  A    between atoms: C_10  and  O_11
REMARK    5  A    between atoms: O_11  and  C_12
REMARK    6  A    between atoms: C_13  and  O_14
REMARK    7  A    between atoms: O_14  and  C_15
REMARK    8  A    between atoms: C_15  and  C_16
REMARK    9  A    between atoms: C_16  and  O_17
REMARK   10  A    between atoms: O_17  and  C_18
REMARK   11  A    between atoms: C_18  and  C_19
REMARK   12  A    between atoms: C_19  and  O_20
REMARK   13  A    between atoms: O_20  and  C_21
REMARK   14  A    between atoms: C_22  and  O_23
REMARK   15  A    between atoms: O_23  and  C_24
REMARK   16  A    between atoms: C_26  and  C_27
REMARK   17  A    between atoms: C_31  and  O_32
REMARK   18  A    between atoms: O_32  and  C_33
REMARK                            x       y       z     vdW  Elec       q    Type
REMARK                         _______ _______ _______ _____ _____    ______ ____
ROOT
ATOM      1  O   UNL     1       2.402   4.030  21.204  0.00  0.00    +0.000 OA
ENDROOT
BRANCH   1   2
ATOM      2  C   UNL     1       1.095   4.223  20.673  0.00  0.00    +0.000 C 
BRANCH   2   3
ATOM      3  C   UNL     1       0.729   5.702  20.625  0.00  0.00    +0.000 C 
BRANCH   3   4
ATOM      4  O   UNL     1       1.823   6.521  20.439  0.00  0.00    +0.000 OA
BRANCH   4  10
ATOM      5  C   UNL     1       2.517   8.093  18.683  0.00  0.00    +0.000 A 
ATOM      6  C   UNL     1       2.391   9.376  18.131  0.00  0.00    +0.000 A 
ATOM      7  C   UNL     1       1.589  10.370  18.726  0.00  0.00    +0.000 A 
ATOM      8  C   UNL     1       0.918  10.033  19.919  0.00  0.00    +0.000 A 
ATOM      9  C   UNL     1       1.006   8.744  20.485  0.00  0.00    +0.000 A 
ATOM     10  C   UNL     1       1.791   7.760  19.862  0.00  0.00    +0.000 A 
BRANCH   7  11
ATOM     11  C   UNL     1       1.479  11.760  18.129  0.00  0.00    +0.000 C 
ATOM     12  N   UNL     1       0.391  12.450  18.203  0.00  0.00    +0.000 NA
ATOM     13  N   UNL     1       2.575  12.366  17.454  0.00  0.00    +0.000 N 
ATOM     14  H   UNL     1      -0.478  12.152  18.659  0.00  0.00    +0.000 HD
ATOM     15  H   UNL     1       3.481  11.910  17.310  0.00  0.00    +0.000 HD
ATOM     16  H   UNL     1       2.464  13.309  17.055  0.00  0.00    +0.000 HD
ENDBRANCH   7  11
BRANCH   5  18
ATOM     17  C   UNL     1       3.885   7.171  16.851  0.00  0.00    +0.000 C 
ATOM     18  O   UNL     1       3.359   7.185  18.126  0.00  0.00    +0.000 OA
ENDBRANCH   5  18
BRANCH   9  19
ATOM     19  O   UNL     1       0.378   8.438  21.653  0.00  0.00    +0.000 OA
ATOM     20  C   UNL     1       0.324   9.241  22.777  0.00  0.00    +0.000 C 
ENDBRANCH   9  19
ENDBRANCH   4  10
ENDBRANCH   3   4
ENDBRANCH   2   3
ENDBRANCH   1   2
BRANCH   1  21
ATOM     21  C   UNL     1       2.896   2.705  21.029  0.00  0.00    +0.000 C 
BRANCH  21  22
ATOM     22  C   UNL     1       4.309   2.692  20.449  0.00  0.00    +0.000 C 
BRANCH  22  23
ATOM     23  O   UNL     1       4.413   3.799  19.633  0.00  0.00    +0.000 OA
BRANCH  23  24
ATOM     24  C   UNL     1       5.016   3.992  18.431  0.00  0.00    +0.000 A 
ATOM     25  C   UNL     1       4.316   3.539  17.280  0.00  0.00    +0.000 A 
ATOM     26  C   UNL     1       4.887   3.693  16.016  0.00  0.00    +0.000 A 
ATOM     27  C   UNL     1       6.142   4.300  15.827  0.00  0.00    +0.000 A 
ATOM     28  C   UNL     1       6.820   4.749  16.970  0.00  0.00    +0.000 A 
ATOM     29  C   UNL     1       6.287   4.608  18.270  0.00  0.00    +0.000 A 
BRANCH  27  30
ATOM     30  C   UNL     1       6.747   4.476  14.447  0.00  0.00    +0.000 C 
ATOM     31  N   UNL     1       6.408   3.725  13.456  0.00  0.00    +0.000 NA
ATOM     32  N   UNL     1       7.718   5.487  14.178  0.00  0.00    +0.000 N 
ATOM     33  H   UNL     1       5.726   2.960  13.494  0.00  0.00    +0.000 HD
ATOM     34  H   UNL     1       8.057   6.158  14.873  0.00  0.00    +0.000 HD
ATOM     35  H   UNL     1       8.101   5.580  13.226  0.00  0.00    +0.000 HD
ENDBRANCH  27  30
BRANCH  25  36
ATOM     36  O   UNL     1       3.093   2.937  17.313  0.00  0.00    +0.000 OA
ATOM     37  C   UNL     1       1.843   3.512  17.443  0.00  0.00    +0.000 C 
ENDBRANCH  25  36
BRANCH  29  38
ATOM     38  O   UNL     1       6.977   5.077  19.343  0.00  0.00    +0.000 OA
ATOM     39  C   UNL     1       8.120   5.857  19.297  0.00  0.00    +0.000 C 
ENDBRANCH  29  38
ENDBRANCH  23  24
ENDBRANCH  22  23
ENDBRANCH  21  22
ENDBRANCH   1  21
TORSDOF 14
ENDMDL
