MODEL 1
REMARK VINA RESULT:      -8.2      0.000      0.000
REMARK  Name = 
REMARK  7 active torsions:
REMARK  status: ('A' for Active; 'I' for Inactive)
REMARK    1  A    between atoms: C_1  and  C_2
REMARK    2  A    between atoms: C_2  and  O_3
REMARK    3  A    between atoms: O_3  and  C_4
REMARK    4  A    between atoms: C_4  and  C_6
REMARK    5  A    between atoms: C_8  and  C_9
REMARK    6  A    between atoms: N_11  and  C_12
REMARK    7  A    between atoms: C_14  and  C_15
REMARK                            x       y       z     vdW  Elec       q    Type
REMARK                         _______ _______ _______ _____ _____    ______ ____
ROOT
ATOM      1  C   UNL     1       3.728   4.149  19.519  0.00  0.00    +0.000 A 
ATOM      2  C   UNL     1       3.377   3.017  20.235  0.00  0.00    +0.000 A 
ATOM      3  N   UNL     1       2.252   3.301  20.951  0.00  0.00    +0.000 N 
ATOM      4  C   UNL     1       1.542   2.378  21.804  0.00  0.00    +0.000 C 
ATOM      5  C   UNL     1       1.869   4.591  20.711  0.00  0.00    +0.000 A 
ATOM      6  C   UNL     1       2.757   5.166  19.810  0.00  0.00    +0.000 A 
ENDROOT
BRANCH   1   9
ATOM      7  C   UNL     1       6.059   4.418  16.745  0.00  0.00    +0.000 A 
ATOM      8  C   UNL     1       4.767   4.273  17.210  0.00  0.00    +0.000 A 
ATOM      9  C   UNL     1       4.880   4.238  18.617  0.00  0.00    +0.000 A 
ATOM     10  N   UNL     1       6.155   4.309  19.010  0.00  0.00    +0.000 NA
ATOM     11  N   UNL     1       6.840   4.444  17.865  0.00  0.00    +0.000 N 
ATOM     12  H   UNL     1       7.846   4.577  17.909  0.00  0.00    +0.000 HD
BRANCH   7  13
ATOM     13  C   UNL     1       6.591   4.592  15.430  0.00  0.00    +0.000 C 
ATOM     14  O   UNL     1       7.572   5.272  15.162  0.00  0.00    +0.000 OA
BRANCH  13  15
ATOM     15  O   UNL     1       5.781   3.976  14.529  0.00  0.00    +0.000 OA
BRANCH  15  17
ATOM     16  C   UNL     1       5.250   3.417  12.277  0.00  0.00    +0.000 C 
ATOM     17  C   UNL     1       6.374   3.713  13.253  0.00  0.00    +0.000 C 
ENDBRANCH  15  17
ENDBRANCH  13  15
ENDBRANCH   7  13
ENDBRANCH   1   9
BRANCH   6  18
ATOM     18  C   UNL     1       2.552   6.523  19.293  0.00  0.00    +0.000 A 
ATOM     19  C   UNL     1       1.894   7.498  20.061  0.00  0.00    +0.000 A 
ATOM     20  C   UNL     1       1.657   8.779  19.549  0.00  0.00    +0.000 A 
ATOM     21  C   UNL     1       2.096   9.112  18.270  0.00  0.00    +0.000 A 
ATOM     22  C   UNL     1       2.758   8.162  17.499  0.00  0.00    +0.000 A 
ATOM     23  C   UNL     1       2.965   6.874  18.002  0.00  0.00    +0.000 A 
ENDBRANCH   6  18
TORSDOF 5
ENDMDL
MODEL 2
REMARK VINA RESULT:      -8.2      1.672      3.825
REMARK  Name = 
REMARK  7 active torsions:
REMARK  status: ('A' for Active; 'I' for Inactive)
REMARK    1  A    between atoms: C_1  and  C_2
REMARK    2  A    between atoms: C_2  and  O_3
REMARK    3  A    between atoms: O_3  and  C_4
REMARK    4  A    between atoms: C_4  and  C_6
REMARK    5  A    between atoms: C_8  and  C_9
REMARK    6  A    between atoms: N_11  and  C_12
REMARK    7  A    between atoms: C_14  and  C_15
REMARK                            x       y       z     vdW  Elec       q    Type
REMARK                         _______ _______ _______ _____ _____    ______ ____
ROOT
ATOM      1  C   UNL     1       3.434   6.603  17.861  0.00  0.00    +0.000 A 
ATOM      2  C   UNL     1       3.313   7.957  17.600  0.00  0.00    +0.000 A 
ATOM      3  N   UNL     1       2.257   8.434  18.320  0.00  0.00    +0.000 N 
ATOM      4  C   UNL     1       1.814   9.807  18.355  0.00  0.00    +0.000 C 
ATOM      5  C   UNL     1       1.696   7.416  19.041  0.00  0.00    +0.000 A 
ATOM      6  C   UNL     1       2.404   6.246  18.796  0.00  0.00    +0.000 A 
ENDROOT
BRANCH   1   9
ATOM      7  C   UNL     1       5.953   4.927  15.848  0.00  0.00    +0.000 A 
ATOM      8  C   UNL     1       4.977   5.896  15.978  0.00  0.00    +0.000 A 
ATOM      9  C   UNL     1       4.463   5.734  17.283  0.00  0.00    +0.000 A 
ATOM     10  N   UNL     1       5.040   4.707  17.915  0.00  0.00    +0.000 NA
ATOM     11  N   UNL     1       5.950   4.257  17.039  0.00  0.00    +0.000 N 
ATOM     12  H   UNL     1       6.567   3.500  17.319  0.00  0.00    +0.000 HD
BRANCH   7  13
ATOM     13  C   UNL     1       6.878   4.631  14.800  0.00  0.00    +0.000 C 
ATOM     14  O   UNL     1       7.894   5.272  14.569  0.00  0.00    +0.000 OA
BRANCH  13  15
ATOM     15  O   UNL     1       6.397   3.604  14.050  0.00  0.00    +0.000 OA
BRANCH  15  17
ATOM     16  C   UNL     1       5.317   3.056  12.000  0.00  0.00    +0.000 C 
ATOM     17  C   UNL     1       6.488   3.787  12.634  0.00  0.00    +0.000 C 
ENDBRANCH  15  17
ENDBRANCH  13  15
ENDBRANCH   7  13
ENDBRANCH   1   9
BRANCH   6  18
ATOM     18  C   UNL     1       2.089   4.999  19.500  0.00  0.00    +0.000 A 
ATOM     19  C   UNL     1       1.431   3.944  18.845  0.00  0.00    +0.000 A 
ATOM     20  C   UNL     1       1.088   2.773  19.529  0.00  0.00    +0.000 A 
ATOM     21  C   UNL     1       1.420   2.627  20.874  0.00  0.00    +0.000 A 
ATOM     22  C   UNL     1       2.080   3.657  21.537  0.00  0.00    +0.000 A 
ATOM     23  C   UNL     1       2.393   4.838  20.858  0.00  0.00    +0.000 A 
ENDBRANCH   6  18
TORSDOF 5
ENDMDL
MODEL 3
REMARK VINA RESULT:      -8.2      1.678      3.743
REMARK  Name = 
REMARK  7 active torsions:
REMARK  status: ('A' for Active; 'I' for Inactive)
REMARK    1  A    between atoms: C_1  and  C_2
REMARK    2  A    between atoms: C_2  and  O_3
REMARK    3  A    between atoms: O_3  and  C_4
REMARK    4  A    between atoms: C_4  and  C_6
REMARK    5  A    between atoms: C_8  and  C_9
REMARK    6  A    between atoms: N_11  and  C_12
REMARK    7  A    between atoms: C_14  and  C_15
REMARK                            x       y       z     vdW  Elec       q    Type
REMARK                         _______ _______ _______ _____ _____    ______ ____
ROOT
ATOM      1  C   UNL     1       3.437   6.603  17.844  0.00  0.00    +0.000 A 
ATOM      2  C   UNL     1       3.345   7.960  17.588  0.00  0.00    +0.000 A 
ATOM      3  N   UNL     1       2.307   8.459  18.319  0.00  0.00    +0.000 N 
ATOM      4  C   UNL     1       1.895   9.842  18.362  0.00  0.00    +0.000 C 
ATOM      5  C   UNL     1       1.729   7.452  19.042  0.00  0.00    +0.000 A 
ATOM      6  C   UNL     1       2.408   6.267  18.788  0.00  0.00    +0.000 A 
ENDROOT
BRANCH   1   9
ATOM      7  C   UNL     1       5.917   4.889  15.815  0.00  0.00    +0.000 A 
ATOM      8  C   UNL     1       4.976   5.889  15.960  0.00  0.00    +0.000 A 
ATOM      9  C   UNL     1       4.441   5.712  17.254  0.00  0.00    +0.000 A 
ATOM     10  N   UNL     1       4.972   4.648  17.865  0.00  0.00    +0.000 NA
ATOM     11  N   UNL     1       5.876   4.189  16.987  0.00  0.00    +0.000 N 
ATOM     12  H   UNL     1       6.461   3.403  17.253  0.00  0.00    +0.000 HD
BRANCH   7  13
ATOM     13  C   UNL     1       6.843   4.587  14.770  0.00  0.00    +0.000 C 
ATOM     14  O   UNL     1       7.864   5.221  14.541  0.00  0.00    +0.000 OA
BRANCH  13  15
ATOM     15  O   UNL     1       6.358   3.563  14.019  0.00  0.00    +0.000 OA
BRANCH  15  17
ATOM     16  C   UNL     1       5.183   3.220  11.976  0.00  0.00    +0.000 C 
ATOM     17  C   UNL     1       6.465   3.740  12.602  0.00  0.00    +0.000 C 
ENDBRANCH  15  17
ENDBRANCH  13  15
ENDBRANCH   7  13
ENDBRANCH   1   9
BRANCH   6  18
ATOM     18  C   UNL     1       2.070   5.025  19.491  0.00  0.00    +0.000 A 
ATOM     19  C   UNL     1       2.370   4.861  20.854  0.00  0.00    +0.000 A 
ATOM     20  C   UNL     1       2.090   3.659  21.514  0.00  0.00    +0.000 A 
ATOM     21  C   UNL     1       1.484   2.610  20.827  0.00  0.00    +0.000 A 
ATOM     22  C   UNL     1       1.170   2.758  19.479  0.00  0.00    +0.000 A 
ATOM     23  C   UNL     1       1.480   3.949  18.816  0.00  0.00    +0.000 A 
ENDBRANCH   6  18
TORSDOF 5
ENDMDL
MODEL 4
REMARK VINA RESULT:      -8.2      0.165      1.039
REMARK  Name = 
REMARK  7 active torsions:
REMARK  status: ('A' for Active; 'I' for Inactive)
REMARK    1  A    between atoms: C_1  and  C_2
REMARK    2  A    between atoms: C_2  and  O_3
REMARK    3  A    between atoms: O_3  and  C_4
REMARK    4  A    between atoms: C_4  and  C_6
REMARK    5  A    between atoms: C_8  and  C_9
REMARK    6  A    between atoms: N_11  and  C_12
REMARK    7  A    between atoms: C_14  and  C_15
REMARK                            x       y       z     vdW  Elec       q    Type
REMARK                         _______ _______ _______ _____ _____    ______ ____
ROOT
ATOM      1  C   UNL     1       3.749   4.132  19.581  0.00  0.00    +0.000 A 
ATOM      2  C   UNL     1       3.397   3.010  20.310  0.00  0.00    +0.000 A 
ATOM      3  N   UNL     1       2.245   3.287  20.984  0.00  0.00    +0.000 N 
ATOM      4  C   UNL     1       1.526   2.370  21.836  0.00  0.00    +0.000 C 
ATOM      5  C   UNL     1       1.845   4.564  20.703  0.00  0.00    +0.000 A 
ATOM      6  C   UNL     1       2.750   5.137  19.818  0.00  0.00    +0.000 A 
ENDROOT
BRANCH   1   9
ATOM      7  C   UNL     1       6.161   4.407  16.877  0.00  0.00    +0.000 A 
ATOM      8  C   UNL     1       4.856   4.258  17.303  0.00  0.00    +0.000 A 
ATOM      9  C   UNL     1       4.927   4.224  18.713  0.00  0.00    +0.000 A 
ATOM     10  N   UNL     1       6.190   4.299  19.144  0.00  0.00    +0.000 NA
ATOM     11  N   UNL     1       6.908   4.435  18.019  0.00  0.00    +0.000 N 
ATOM     12  H   UNL     1       7.913   4.571  18.093  0.00  0.00    +0.000 HD
BRANCH   7  13
ATOM     13  C   UNL     1       6.732   4.581  15.578  0.00  0.00    +0.000 C 
ATOM     14  O   UNL     1       7.560   5.435  15.293  0.00  0.00    +0.000 OA
BRANCH  13  15
ATOM     15  O   UNL     1       6.137   3.727  14.704  0.00  0.00    +0.000 OA
BRANCH  15  17
ATOM     16  C   UNL     1       5.371   3.309  12.489  0.00  0.00    +0.000 C 
ATOM     17  C   UNL     1       6.476   3.926  13.328  0.00  0.00    +0.000 C 
ENDBRANCH  15  17
ENDBRANCH  13  15
ENDBRANCH   7  13
ENDBRANCH   1   9
BRANCH   6  18
ATOM     18  C   UNL     1       2.536   6.477  19.263  0.00  0.00    +0.000 A 
ATOM     19  C   UNL     1       2.978   6.804  17.970  0.00  0.00    +0.000 A 
ATOM     20  C   UNL     1       2.815   8.096  17.458  0.00  0.00    +0.000 A 
ATOM     21  C   UNL     1       2.187   9.076  18.223  0.00  0.00    +0.000 A 
ATOM     22  C   UNL     1       1.735   8.768  19.503  0.00  0.00    +0.000 A 
ATOM     23  C   UNL     1       1.927   7.485  20.022  0.00  0.00    +0.000 A 
ENDBRANCH   6  18
TORSDOF 5
ENDMDL
MODEL 5
REMARK VINA RESULT:      -8.1      2.002      4.009
REMARK  Name = 
REMARK  7 active torsions:
REMARK  status: ('A' for Active; 'I' for Inactive)
REMARK    1  A    between atoms: C_1  and  C_2
REMARK    2  A    between atoms: C_2  and  O_3
REMARK    3  A    between atoms: O_3  and  C_4
REMARK    4  A    between atoms: C_4  and  C_6
REMARK    5  A    between atoms: C_8  and  C_9
REMARK    6  A    between atoms: N_11  and  C_12
REMARK    7  A    between atoms: C_14  and  C_15
REMARK                            x       y       z     vdW  Elec       q    Type
REMARK                         _______ _______ _______ _____ _____    ______ ____
ROOT
ATOM      1  C   UNL     1       3.940   6.781  17.407  0.00  0.00    +0.000 A 
ATOM      2  C   UNL     1       3.522   8.095  17.533  0.00  0.00    +0.000 A 
ATOM      3  N   UNL     1       2.349   8.102  18.227  0.00  0.00    +0.000 N 
ATOM      4  C   UNL     1       1.599   9.277  18.602  0.00  0.00    +0.000 C 
ATOM      5  C   UNL     1       2.002   6.820  18.554  0.00  0.00    +0.000 A 
ATOM      6  C   UNL     1       2.973   5.952  18.070  0.00  0.00    +0.000 A 
ENDROOT
BRANCH   1   9
ATOM      7  C   UNL     1       6.521   5.480  15.205  0.00  0.00    +0.000 A 
ATOM      8  C   UNL     1       5.186   5.611  15.534  0.00  0.00    +0.000 A 
ATOM      9  C   UNL     1       5.171   6.361  16.731  0.00  0.00    +0.000 A 
ATOM     10  N   UNL     1       6.408   6.642  17.151  0.00  0.00    +0.000 NA
ATOM     11  N   UNL     1       7.199   6.124  16.200  0.00  0.00    +0.000 N 
ATOM     12  H   UNL     1       8.203   6.263  16.269  0.00  0.00    +0.000 HD
BRANCH   7  13
ATOM     13  C   UNL     1       7.177   4.900  14.076  0.00  0.00    +0.000 C 
ATOM     14  O   UNL     1       8.138   5.393  13.502  0.00  0.00    +0.000 OA
BRANCH  13  15
ATOM     15  O   UNL     1       6.506   3.784  13.687  0.00  0.00    +0.000 OA
BRANCH  15  17
ATOM     16  C   UNL     1       5.009   3.264  11.909  0.00  0.00    +0.000 C 
ATOM     17  C   UNL     1       6.452   3.565  12.273  0.00  0.00    +0.000 C 
ENDBRANCH  15  17
ENDBRANCH  13  15
ENDBRANCH   7  13
ENDBRANCH   1   9
BRANCH   6  18
ATOM     18  C   UNL     1       2.918   4.512  18.344  0.00  0.00    +0.000 A 
ATOM     19  C   UNL     1       1.771   3.760  18.036  0.00  0.00    +0.000 A 
ATOM     20  C   UNL     1       1.701   2.396  18.340  0.00  0.00    +0.000 A 
ATOM     21  C   UNL     1       2.786   1.756  18.935  0.00  0.00    +0.000 A 
ATOM     22  C   UNL     1       3.934   2.483  19.238  0.00  0.00    +0.000 A 
ATOM     23  C   UNL     1       3.988   3.852  18.961  0.00  0.00    +0.000 A 
ENDBRANCH   6  18
TORSDOF 5
ENDMDL
MODEL 6
REMARK VINA RESULT:      -7.9      1.170      1.323
REMARK  Name = 
REMARK  7 active torsions:
REMARK  status: ('A' for Active; 'I' for Inactive)
REMARK    1  A    between atoms: C_1  and  C_2
REMARK    2  A    between atoms: C_2  and  O_3
REMARK    3  A    between atoms: O_3  and  C_4
REMARK    4  A    between atoms: C_4  and  C_6
REMARK    5  A    between atoms: C_8  and  C_9
REMARK    6  A    between atoms: N_11  and  C_12
REMARK    7  A    between atoms: C_14  and  C_15
REMARK                            x       y       z     vdW  Elec       q    Type
REMARK                         _______ _______ _______ _____ _____    ______ ____
ROOT
ATOM      1  C   UNL     1       3.589   4.817  19.843  0.00  0.00    +0.000 A 
ATOM      2  C   UNL     1       3.306   3.579  20.394  0.00  0.00    +0.000 A 
ATOM      3  N   UNL     1       2.048   3.627  20.918  0.00  0.00    +0.000 N 
ATOM      4  C   UNL     1       1.359   2.530  21.556  0.00  0.00    +0.000 C 
ATOM      5  C   UNL     1       1.514   4.869  20.715  0.00  0.00    +0.000 A 
ATOM      6  C   UNL     1       2.438   5.653  20.035  0.00  0.00    +0.000 A 
ENDROOT
BRANCH   1   9
ATOM      7  C   UNL     1       6.257   5.818  17.588  0.00  0.00    +0.000 A 
ATOM      8  C   UNL     1       4.927   5.518  17.807  0.00  0.00    +0.000 A 
ATOM      9  C   UNL     1       4.846   5.159  19.170  0.00  0.00    +0.000 A 
ATOM     10  N   UNL     1       6.046   5.185  19.758  0.00  0.00    +0.000 NA
ATOM     11  N   UNL     1       6.871   5.610  18.790  0.00  0.00    +0.000 N 
ATOM     12  H   UNL     1       7.849   5.768  19.016  0.00  0.00    +0.000 HD
BRANCH   7  13
ATOM     13  C   UNL     1       6.953   6.315  16.443  0.00  0.00    +0.000 C 
ATOM     14  O   UNL     1       7.941   7.035  16.490  0.00  0.00    +0.000 OA
BRANCH  13  15
ATOM     15  O   UNL     1       6.288   5.949  15.316  0.00  0.00    +0.000 OA
BRANCH  15  17
ATOM     16  C   UNL     1       6.110   3.744  14.437  0.00  0.00    +0.000 C 
ATOM     17  C   UNL     1       6.964   4.998  14.488  0.00  0.00    +0.000 C 
ENDBRANCH  15  17
ENDBRANCH  13  15
ENDBRANCH   7  13
ENDBRANCH   1   9
BRANCH   6  18
ATOM     18  C   UNL     1       2.113   7.014  19.597  0.00  0.00    +0.000 A 
ATOM     19  C   UNL     1       1.570   7.952  20.493  0.00  0.00    +0.000 A 
ATOM     20  C   UNL     1       1.217   9.236  20.064  0.00  0.00    +0.000 A 
ATOM     21  C   UNL     1       1.422   9.612  18.738  0.00  0.00    +0.000 A 
ATOM     22  C   UNL     1       1.967   8.699  17.840  0.00  0.00    +0.000 A 
ATOM     23  C   UNL     1       2.290   7.407  18.265  0.00  0.00    +0.000 A 
ENDBRANCH   6  18
TORSDOF 5
ENDMDL
MODEL 7
REMARK VINA RESULT:      -7.8      1.885      2.348
REMARK  Name = 
REMARK  7 active torsions:
REMARK  status: ('A' for Active; 'I' for Inactive)
REMARK    1  A    between atoms: C_1  and  C_2
REMARK    2  A    between atoms: C_2  and  O_3
REMARK    3  A    between atoms: O_3  and  C_4
REMARK    4  A    between atoms: C_4  and  C_6
REMARK    5  A    between atoms: C_8  and  C_9
REMARK    6  A    between atoms: N_11  and  C_12
REMARK    7  A    between atoms: C_14  and  C_15
REMARK                            x       y       z     vdW  Elec       q    Type
REMARK                         _______ _______ _______ _____ _____    ______ ____
ROOT
ATOM      1  C   UNL     1       3.212   4.046  19.580  0.00  0.00    +0.000 A 
ATOM      2  C   UNL     1       2.889   2.920  20.318  0.00  0.00    +0.000 A 
ATOM      3  N   UNL     1       1.894   3.254  21.187  0.00  0.00    +0.000 N 
ATOM      4  C   UNL     1       1.249   2.356  22.115  0.00  0.00    +0.000 C 
ATOM      5  C   UNL     1       1.566   4.572  21.025  0.00  0.00    +0.000 A 
ATOM      6  C   UNL     1       2.358   5.114  20.020  0.00  0.00    +0.000 A 
ENDROOT
BRANCH   1   9
ATOM      7  C   UNL     1       6.157   4.490  17.498  0.00  0.00    +0.000 A 
ATOM      8  C   UNL     1       5.478   4.734  18.676  0.00  0.00    +0.000 A 
ATOM      9  C   UNL     1       4.232   4.087  18.528  0.00  0.00    +0.000 A 
ATOM     10  N   UNL     1       4.115   3.514  17.326  0.00  0.00    +0.000 NA
ATOM     11  N   UNL     1       5.297   3.750  16.738  0.00  0.00    +0.000 N 
ATOM     12  H   UNL     1       5.473   3.355  15.819  0.00  0.00    +0.000 HD
BRANCH   7  13
ATOM     13  C   UNL     1       7.482   4.809  17.071  0.00  0.00    +0.000 C 
ATOM     14  O   UNL     1       8.482   4.174  17.375  0.00  0.00    +0.000 OA
BRANCH  13  15
ATOM     15  O   UNL     1       7.462   5.974  16.370  0.00  0.00    +0.000 OA
BRANCH  15  17
ATOM     16  C   UNL     1       7.885   7.910  17.690  0.00  0.00    +0.000 C 
ATOM     17  C   UNL     1       6.811   7.069  17.023  0.00  0.00    +0.000 C 
ENDBRANCH  15  17
ENDBRANCH  13  15
ENDBRANCH   7  13
ENDBRANCH   1   9
BRANCH   6  18
ATOM     18  C   UNL     1       2.173   6.494  19.559  0.00  0.00    +0.000 A 
ATOM     19  C   UNL     1       1.653   7.479  20.415  0.00  0.00    +0.000 A 
ATOM     20  C   UNL     1       1.433   8.784  19.962  0.00  0.00    +0.000 A 
ATOM     21  C   UNL     1       1.752   9.132  18.651  0.00  0.00    +0.000 A 
ATOM     22  C   UNL     1       2.276   8.171  17.791  0.00  0.00    +0.000 A 
ATOM     23  C   UNL     1       2.466   6.860  18.239  0.00  0.00    +0.000 A 
ENDBRANCH   6  18
TORSDOF 5
ENDMDL
MODEL 8
REMARK VINA RESULT:      -7.8      3.976      7.034
REMARK  Name = 
REMARK  7 active torsions:
REMARK  status: ('A' for Active; 'I' for Inactive)
REMARK    1  A    between atoms: C_1  and  C_2
REMARK    2  A    between atoms: C_2  and  O_3
REMARK    3  A    between atoms: O_3  and  C_4
REMARK    4  A    between atoms: C_4  and  C_6
REMARK    5  A    between atoms: C_8  and  C_9
REMARK    6  A    between atoms: N_11  and  C_12
REMARK    7  A    between atoms: C_14  and  C_15
REMARK                            x       y       z     vdW  Elec       q    Type
REMARK                         _______ _______ _______ _____ _____    ______ ____
ROOT
ATOM      1  C   UNL     1       3.742   6.547  17.679  0.00  0.00    +0.000 A 
ATOM      2  C   UNL     1       4.827   6.664  16.827  0.00  0.00    +0.000 A 
ATOM      3  N   UNL     1       5.429   5.444  16.740  0.00  0.00    +0.000 N 
ATOM      4  C   UNL     1       6.579   5.129  15.926  0.00  0.00    +0.000 C 
ATOM      5  C   UNL     1       4.755   4.542  17.516  0.00  0.00    +0.000 A 
ATOM      6  C   UNL     1       3.680   5.182  18.121  0.00  0.00    +0.000 A 
ENDROOT
BRANCH   1   9
ATOM      7  C   UNL     1       1.439   8.917  19.189  0.00  0.00    +0.000 A 
ATOM      8  C   UNL     1       2.126   7.721  19.241  0.00  0.00    +0.000 A 
ATOM      9  C   UNL     1       2.831   7.644  18.020  0.00  0.00    +0.000 A 
ATOM     10  N   UNL     1       2.570   8.694  17.234  0.00  0.00    +0.000 NA
ATOM     11  N   UNL     1       1.752   9.456  17.974  0.00  0.00    +0.000 N 
ATOM     12  H   UNL     1       1.455  10.356  17.606  0.00  0.00    +0.000 HD
BRANCH   7  13
ATOM     13  C   UNL     1       0.618   9.594  20.143  0.00  0.00    +0.000 C 
ATOM     14  O   UNL     1       0.248  10.756  20.041  0.00  0.00    +0.000 OA
BRANCH  13  15
ATOM     15  O   UNL     1       0.406   8.783  21.213  0.00  0.00    +0.000 OA
BRANCH  15  17
ATOM     16  C   UNL     1      -0.305   9.675  23.303  0.00  0.00    +0.000 C 
ATOM     17  C   UNL     1       0.897   9.280  22.463  0.00  0.00    +0.000 C 
ENDBRANCH  15  17
ENDBRANCH  13  15
ENDBRANCH   7  13
ENDBRANCH   1   9
BRANCH   6  18
ATOM     18  C   UNL     1       2.717   4.447  18.947  0.00  0.00    +0.000 A 
ATOM     19  C   UNL     1       2.817   4.448  20.349  0.00  0.00    +0.000 A 
ATOM     20  C   UNL     1       1.927   3.709  21.136  0.00  0.00    +0.000 A 
ATOM     21  C   UNL     1       0.907   2.975  20.534  0.00  0.00    +0.000 A 
ATOM     22  C   UNL     1       0.787   2.970  19.148  0.00  0.00    +0.000 A 
ATOM     23  C   UNL     1       1.697   3.685  18.364  0.00  0.00    +0.000 A 
ENDBRANCH   6  18
TORSDOF 5
ENDMDL
MODEL 9
REMARK VINA RESULT:      -7.8      1.051      1.491
REMARK  Name = 
REMARK  7 active torsions:
REMARK  status: ('A' for Active; 'I' for Inactive)
REMARK    1  A    between atoms: C_1  and  C_2
REMARK    2  A    between atoms: C_2  and  O_3
REMARK    3  A    between atoms: O_3  and  C_4
REMARK    4  A    between atoms: C_4  and  C_6
REMARK    5  A    between atoms: C_8  and  C_9
REMARK    6  A    between atoms: N_11  and  C_12
REMARK    7  A    between atoms: C_14  and  C_15
REMARK                            x       y       z     vdW  Elec       q    Type
REMARK                         _______ _______ _______ _____ _____    ______ ____
ROOT
ATOM      1  C   UNL     1       3.918   4.938  18.993  0.00  0.00    +0.000 A 
ATOM      2  C   UNL     1       3.913   3.713  19.637  0.00  0.00    +0.000 A 
ATOM      3  N   UNL     1       2.925   3.732  20.576  0.00  0.00    +0.000 N 
ATOM      4  C   UNL     1       2.566   2.635  21.443  0.00  0.00    +0.000 C 
ATOM      5  C   UNL     1       2.291   4.943  20.550  0.00  0.00    +0.000 A 
ATOM      6  C   UNL     1       2.870   5.736  19.567  0.00  0.00    +0.000 A 
ENDROOT
BRANCH   1   9
ATOM      7  C   UNL     1       6.024   5.155  16.040  0.00  0.00    +0.000 A 
ATOM      8  C   UNL     1       5.218   4.414  16.880  0.00  0.00    +0.000 A 
ATOM      9  C   UNL     1       4.832   5.303  17.907  0.00  0.00    +0.000 A 
ATOM     10  N   UNL     1       5.393   6.507  17.751  0.00  0.00    +0.000 NA
ATOM     11  N   UNL     1       6.083   6.397  16.606  0.00  0.00    +0.000 N 
ATOM     12  H   UNL     1       6.558   7.217  16.241  0.00  0.00    +0.000 HD
BRANCH   7  13
ATOM     13  C   UNL     1       6.654   4.846  14.795  0.00  0.00    +0.000 C 
ATOM     14  O   UNL     1       7.583   5.478  14.310  0.00  0.00    +0.000 OA
BRANCH  13  15
ATOM     15  O   UNL     1       5.995   3.818  14.198  0.00  0.00    +0.000 OA
BRANCH  15  17
ATOM     16  C   UNL     1       4.907   3.495  12.105  0.00  0.00    +0.000 C 
ATOM     17  C   UNL     1       6.248   3.660  12.798  0.00  0.00    +0.000 C 
ENDBRANCH  15  17
ENDBRANCH  13  15
ENDBRANCH   7  13
ENDBRANCH   1   9
BRANCH   6  18
ATOM     18  C   UNL     1       2.342   7.065  19.244  0.00  0.00    +0.000 A 
ATOM     19  C   UNL     1       2.465   7.598  17.949  0.00  0.00    +0.000 A 
ATOM     20  C   UNL     1       2.002   8.885  17.653  0.00  0.00    +0.000 A 
ATOM     21  C   UNL     1       1.387   9.650  18.641  0.00  0.00    +0.000 A 
ATOM     22  C   UNL     1       1.247   9.135  19.926  0.00  0.00    +0.000 A 
ATOM     23  C   UNL     1       1.739   7.861  20.226  0.00  0.00    +0.000 A 
ENDBRANCH   6  18
TORSDOF 5
ENDMDL
