MODEL 1
REMARK VINA RESULT:      -7.4      0.000      0.000
REMARK  Name = 
REMARK  2 active torsions:
REMARK  status: ('A' for Active; 'I' for Inactive)
REMARK    1  A    between atoms: C_1  and  C_2
REMARK    2  A    between atoms: C_4  and  C_5
REMARK                            x       y       z     vdW  Elec       q    Type
REMARK                         _______ _______ _______ _____ _____    ______ ____
ROOT
ATOM      1  C   UNL     1       5.043   3.017  12.350  0.00  0.00    +0.000 C 
ATOM      2  C   UNL     1       6.049   3.849  13.082  0.00  0.00    +0.000 A 
ATOM      3  C   UNL     1       7.039   4.541  12.429  0.00  0.00    +0.000 A 
ATOM      4  C   UNL     1       7.890   5.283  13.223  0.00  0.00    +0.000 A 
ATOM      5  C   UNL     1       9.001   6.085  12.617  0.00  0.00    +0.000 C 
ATOM      6  N   UNL     1       7.759   5.349  14.567  0.00  0.00    +0.000 NA
ATOM      7  C   UNL     1       6.754   4.661  15.129  0.00  0.00    +0.000 A 
ATOM      8  N   UNL     1       6.600   4.813  16.504  0.00  0.00    +0.000 N 
ATOM      9  C   UNL     1       5.462   4.579  17.173  0.00  0.00    +0.000 A 
ATOM     10  N   UNL     1       5.048   5.168  18.279  0.00  0.00    +0.000 NA
ATOM     11  C   UNL     1       3.802   4.629  18.493  0.00  0.00    +0.000 A 
ATOM     12  C   UNL     1       2.833   4.881  19.472  0.00  0.00    +0.000 A 
ATOM     13  C   UNL     1       1.626   4.165  19.407  0.00  0.00    +0.000 A 
ATOM     14  C   UNL     1       1.393   3.220  18.397  0.00  0.00    +0.000 A 
ATOM     15  C   UNL     1       2.353   2.955  17.416  0.00  0.00    +0.000 A 
ATOM     16  C   UNL     1       3.528   3.688  17.518  0.00  0.00    +0.000 A 
ATOM     17  O   UNL     1       4.598   3.632  16.688  0.00  0.00    +0.000 OA
ATOM     18  N   UNL     1       5.909   3.901  14.418  0.00  0.00    +0.000 NA
ATOM     19  H   UNL     1       7.198   5.556  16.831  0.00  0.00    +0.000 HD
ENDROOT
TORSDOF 0
ENDMDL
MODEL 2
REMARK VINA RESULT:      -7.1      5.007      7.716
REMARK  Name = 
REMARK  2 active torsions:
REMARK  status: ('A' for Active; 'I' for Inactive)
REMARK    1  A    between atoms: C_1  and  C_2
REMARK    2  A    between atoms: C_4  and  C_5
REMARK                            x       y       z     vdW  Elec       q    Type
REMARK                         _______ _______ _______ _____ _____    ______ ____
ROOT
ATOM      1  C   UNL     1       1.691  10.008  17.817  0.00  0.00    +0.000 C 
ATOM      2  C   UNL     1       1.300   9.673  19.222  0.00  0.00    +0.000 A 
ATOM      3  C   UNL     1       0.601  10.550  20.014  0.00  0.00    +0.000 A 
ATOM      4  C   UNL     1       0.287  10.109  21.284  0.00  0.00    +0.000 A 
ATOM      5  C   UNL     1      -0.481  10.979  22.232  0.00  0.00    +0.000 C 
ATOM      6  N   UNL     1       0.628   8.879  21.732  0.00  0.00    +0.000 NA
ATOM      7  C   UNL     1       1.293   8.073  20.892  0.00  0.00    +0.000 A 
ATOM      8  N   UNL     1       1.558   6.787  21.356  0.00  0.00    +0.000 N 
ATOM      9  C   UNL     1       1.810   5.731  20.569  0.00  0.00    +0.000 A 
ATOM     10  N   UNL     1       1.541   4.463  20.822  0.00  0.00    +0.000 NA
ATOM     11  C   UNL     1       1.920   3.812  19.672  0.00  0.00    +0.000 A 
ATOM     12  C   UNL     1       1.840   2.466  19.295  0.00  0.00    +0.000 A 
ATOM     13  C   UNL     1       2.302   2.109  18.016  0.00  0.00    +0.000 A 
ATOM     14  C   UNL     1       2.833   3.067  17.140  0.00  0.00    +0.000 A 
ATOM     15  C   UNL     1       2.923   4.413  17.506  0.00  0.00    +0.000 A 
ATOM     16  C   UNL     1       2.451   4.720  18.775  0.00  0.00    +0.000 A 
ATOM     17  O   UNL     1       2.410   5.944  19.356  0.00  0.00    +0.000 OA
ATOM     18  N   UNL     1       1.649   8.449  19.655  0.00  0.00    +0.000 NA
ATOM     19  H   UNL     1       1.058   6.629  22.216  0.00  0.00    +0.000 HD
ENDROOT
TORSDOF 0
ENDMDL
MODEL 3
REMARK VINA RESULT:      -6.9      1.875      3.273
REMARK  Name = 
REMARK  2 active torsions:
REMARK  status: ('A' for Active; 'I' for Inactive)
REMARK    1  A    between atoms: C_1  and  C_2
REMARK    2  A    between atoms: C_4  and  C_5
REMARK                            x       y       z     vdW  Elec       q    Type
REMARK                         _______ _______ _______ _____ _____    ______ ____
ROOT
ATOM      1  C   UNL     1       7.421   6.312  17.904  0.00  0.00    +0.000 C 
ATOM      2  C   UNL     1       6.761   5.618  16.754  0.00  0.00    +0.000 A 
ATOM      3  C   UNL     1       7.412   5.393  15.566  0.00  0.00    +0.000 A 
ATOM      4  C   UNL     1       6.694   4.726  14.594  0.00  0.00    +0.000 A 
ATOM      5  C   UNL     1       7.308   4.419  13.261  0.00  0.00    +0.000 C 
ATOM      6  N   UNL     1       5.427   4.296  14.790  0.00  0.00    +0.000 NA
ATOM      7  C   UNL     1       4.868   4.536  15.985  0.00  0.00    +0.000 A 
ATOM      8  N   UNL     1       3.593   4.012  16.182  0.00  0.00    +0.000 N 
ATOM      9  C   UNL     1       3.047   3.767  17.382  0.00  0.00    +0.000 A 
ATOM     10  N   UNL     1       2.163   2.834  17.683  0.00  0.00    +0.000 NA
ATOM     11  C   UNL     1       2.005   2.959  19.043  0.00  0.00    +0.000 A 
ATOM     12  C   UNL     1       1.244   2.227  19.963  0.00  0.00    +0.000 A 
ATOM     13  C   UNL     1       1.311   2.596  21.318  0.00  0.00    +0.000 A 
ATOM     14  C   UNL     1       2.111   3.666  21.742  0.00  0.00    +0.000 A 
ATOM     15  C   UNL     1       2.871   4.408  20.834  0.00  0.00    +0.000 A 
ATOM     16  C   UNL     1       2.777   4.007  19.508  0.00  0.00    +0.000 A 
ATOM     17  O   UNL     1       3.423   4.545  18.445  0.00  0.00    +0.000 OA
ATOM     18  N   UNL     1       5.501   5.201  16.963  0.00  0.00    +0.000 NA
ATOM     19  H   UNL     1       3.360   3.394  15.420  0.00  0.00    +0.000 HD
ENDROOT
TORSDOF 0
ENDMDL
MODEL 4
REMARK VINA RESULT:      -6.9      4.707      7.316
REMARK  Name = 
REMARK  2 active torsions:
REMARK  status: ('A' for Active; 'I' for Inactive)
REMARK    1  A    between atoms: C_1  and  C_2
REMARK    2  A    between atoms: C_4  and  C_5
REMARK                            x       y       z     vdW  Elec       q    Type
REMARK                         _______ _______ _______ _____ _____    ______ ____
ROOT
ATOM      1  C   UNL     1       2.005   3.770  21.657  0.00  0.00    +0.000 C 
ATOM      2  C   UNL     1       2.342   4.357  20.323  0.00  0.00    +0.000 A 
ATOM      3  C   UNL     1       2.667   3.576  19.241  0.00  0.00    +0.000 A 
ATOM      4  C   UNL     1       2.939   4.244  18.065  0.00  0.00    +0.000 A 
ATOM      5  C   UNL     1       3.297   3.492  16.819  0.00  0.00    +0.000 C 
ATOM      6  N   UNL     1       2.877   5.591  17.962  0.00  0.00    +0.000 NA
ATOM      7  C   UNL     1       2.533   6.283  19.058  0.00  0.00    +0.000 A 
ATOM      8  N   UNL     1       2.402   7.660  18.897  0.00  0.00    +0.000 N 
ATOM      9  C   UNL     1       1.683   8.456  19.703  0.00  0.00    +0.000 A 
ATOM     10  N   UNL     1       1.064   9.575  19.377  0.00  0.00    +0.000 NA
ATOM     11  C   UNL     1       0.417   9.942  20.533  0.00  0.00    +0.000 A 
ATOM     12  C   UNL     1      -0.444  11.007  20.821  0.00  0.00    +0.000 A 
ATOM     13  C   UNL     1      -0.970  11.100  22.120  0.00  0.00    +0.000 A 
ATOM     14  C   UNL     1      -0.643  10.158  23.107  0.00  0.00    +0.000 A 
ATOM     15  C   UNL     1       0.219   9.093  22.835  0.00  0.00    +0.000 A 
ATOM     16  C   UNL     1       0.712   9.039  21.538  0.00  0.00    +0.000 A 
ATOM     17  O   UNL     1       1.544   8.103  21.019  0.00  0.00    +0.000 OA
ATOM     18  N   UNL     1       2.281   5.697  20.237  0.00  0.00    +0.000 NA
ATOM     19  H   UNL     1       2.445   7.892  17.917  0.00  0.00    +0.000 HD
ENDROOT
TORSDOF 0
ENDMDL
MODEL 5
REMARK VINA RESULT:      -6.8      3.557      5.104
REMARK  Name = 
REMARK  2 active torsions:
REMARK  status: ('A' for Active; 'I' for Inactive)
REMARK    1  A    between atoms: C_1  and  C_2
REMARK    2  A    between atoms: C_4  and  C_5
REMARK                            x       y       z     vdW  Elec       q    Type
REMARK                         _______ _______ _______ _____ _____    ______ ____
ROOT
ATOM      1  C   UNL     1       4.080   3.310  19.347  0.00  0.00    +0.000 C 
ATOM      2  C   UNL     1       4.413   4.138  18.146  0.00  0.00    +0.000 A 
ATOM      3  C   UNL     1       4.989   3.596  17.023  0.00  0.00    +0.000 A 
ATOM      4  C   UNL     1       5.228   4.467  15.979  0.00  0.00    +0.000 A 
ATOM      5  C   UNL     1       5.845   3.983  14.702  0.00  0.00    +0.000 C 
ATOM      6  N   UNL     1       4.904   5.778  16.037  0.00  0.00    +0.000 NA
ATOM      7  C   UNL     1       4.326   6.227  17.160  0.00  0.00    +0.000 A 
ATOM      8  N   UNL     1       3.933   7.563  17.157  0.00  0.00    +0.000 N 
ATOM      9  C   UNL     1       2.996   8.084  17.962  0.00  0.00    +0.000 A 
ATOM     10  N   UNL     1       2.196   9.102  17.705  0.00  0.00    +0.000 NA
ATOM     11  C   UNL     1       1.383   9.169  18.812  0.00  0.00    +0.000 A 
ATOM     12  C   UNL     1       0.301  10.000  19.124  0.00  0.00    +0.000 A 
ATOM     13  C   UNL     1      -0.352   9.803  20.352  0.00  0.00    +0.000 A 
ATOM     14  C   UNL     1       0.066   8.807  21.247  0.00  0.00    +0.000 A 
ATOM     15  C   UNL     1       1.148   7.974  20.951  0.00  0.00    +0.000 A 
ATOM     16  C   UNL     1       1.760   8.202  19.725  0.00  0.00    +0.000 A 
ATOM     17  O   UNL     1       2.809   7.524  19.199  0.00  0.00    +0.000 OA
ATOM     18  N   UNL     1       4.089   5.440  18.220  0.00  0.00    +0.000 NA
ATOM     19  H   UNL     1       4.019   7.938  16.225  0.00  0.00    +0.000 HD
ENDROOT
TORSDOF 0
ENDMDL
MODEL 6
REMARK VINA RESULT:      -6.8      3.614      7.416
REMARK  Name = 
REMARK  2 active torsions:
REMARK  status: ('A' for Active; 'I' for Inactive)
REMARK    1  A    between atoms: C_1  and  C_2
REMARK    2  A    between atoms: C_4  and  C_5
REMARK                            x       y       z     vdW  Elec       q    Type
REMARK                         _______ _______ _______ _____ _____    ______ ____
ROOT
ATOM      1  C   UNL     1       1.612  10.443  17.973  0.00  0.00    +0.000 C 
ATOM      2  C   UNL     1       1.428   9.465  19.091  0.00  0.00    +0.000 A 
ATOM      3  C   UNL     1       0.442   9.611  20.035  0.00  0.00    +0.000 A 
ATOM      4  C   UNL     1       0.371   8.628  21.001  0.00  0.00    +0.000 A 
ATOM      5  C   UNL     1      -0.672   8.681  22.076  0.00  0.00    +0.000 C 
ATOM      6  N   UNL     1       1.208   7.566  21.021  0.00  0.00    +0.000 NA
ATOM      7  C   UNL     1       2.132   7.484  20.053  0.00  0.00    +0.000 A 
ATOM      8  N   UNL     1       2.924   6.339  20.056  0.00  0.00    +0.000 N 
ATOM      9  C   UNL     1       3.582   5.864  18.988  0.00  0.00    +0.000 A 
ATOM     10  N   UNL     1       3.877   4.605  18.725  0.00  0.00    +0.000 NA
ATOM     11  C   UNL     1       4.470   4.658  17.486  0.00  0.00    +0.000 A 
ATOM     12  C   UNL     1       4.957   3.653  16.643  0.00  0.00    +0.000 A 
ATOM     13  C   UNL     1       5.499   4.034  15.403  0.00  0.00    +0.000 A 
ATOM     14  C   UNL     1       5.557   5.381  15.018  0.00  0.00    +0.000 A 
ATOM     15  C   UNL     1       5.079   6.395  15.852  0.00  0.00    +0.000 A 
ATOM     16  C   UNL     1       4.550   5.972  17.064  0.00  0.00    +0.000 A 
ATOM     17  O   UNL     1       4.009   6.750  18.034  0.00  0.00    +0.000 OA
ATOM     18  N   UNL     1       2.270   8.417  19.100  0.00  0.00    +0.000 NA
ATOM     19  H   UNL     1       2.557   5.676  20.720  0.00  0.00    +0.000 HD
ENDROOT
TORSDOF 0
ENDMDL
MODEL 7
REMARK VINA RESULT:      -6.6      4.598      6.819
REMARK  Name = 
REMARK  2 active torsions:
REMARK  status: ('A' for Active; 'I' for Inactive)
REMARK    1  A    between atoms: C_1  and  C_2
REMARK    2  A    between atoms: C_4  and  C_5
REMARK                            x       y       z     vdW  Elec       q    Type
REMARK                         _______ _______ _______ _____ _____    ______ ____
ROOT
ATOM      1  C   UNL     1       2.199   4.485  21.118  0.00  0.00    +0.000 C 
ATOM      2  C   UNL     1       2.791   4.857  19.795  0.00  0.00    +0.000 A 
ATOM      3  C   UNL     1       3.357   3.926  18.960  0.00  0.00    +0.000 A 
ATOM      4  C   UNL     1       3.849   4.400  17.761  0.00  0.00    +0.000 A 
ATOM      5  C   UNL     1       4.481   3.471  16.769  0.00  0.00    +0.000 C 
ATOM      6  N   UNL     1       3.772   5.703  17.407  0.00  0.00    +0.000 NA
ATOM      7  C   UNL     1       3.186   6.548  18.268  0.00  0.00    +0.000 A 
ATOM      8  N   UNL     1       3.052   7.865  17.839  0.00  0.00    +0.000 N 
ATOM      9  C   UNL     1       2.157   8.738  18.327  0.00  0.00    +0.000 A 
ATOM     10  N   UNL     1       1.589   9.742  17.686  0.00  0.00    +0.000 NA
ATOM     11  C   UNL     1       0.704  10.258  18.604  0.00  0.00    +0.000 A 
ATOM     12  C   UNL     1      -0.228  11.298  18.516  0.00  0.00    +0.000 A 
ATOM     13  C   UNL     1      -1.017  11.576  19.645  0.00  0.00    +0.000 A 
ATOM     14  C   UNL     1      -0.877  10.840  20.830  0.00  0.00    +0.000 A 
ATOM     15  C   UNL     1       0.053   9.802  20.934  0.00  0.00    +0.000 A 
ATOM     16  C   UNL     1       0.808   9.561  19.793  0.00  0.00    +0.000 A 
ATOM     17  O   UNL     1       1.756   8.606  19.630  0.00  0.00    +0.000 OA
ATOM     18  N   UNL     1       2.710   6.156  19.459  0.00  0.00    +0.000 NA
ATOM     19  H   UNL     1       3.292   7.929  16.862  0.00  0.00    +0.000 HD
ENDROOT
TORSDOF 0
ENDMDL
MODEL 8
REMARK VINA RESULT:      -6.6     10.571     12.640
REMARK  Name = 
REMARK  2 active torsions:
REMARK  status: ('A' for Active; 'I' for Inactive)
REMARK    1  A    between atoms: C_1  and  C_2
REMARK    2  A    between atoms: C_4  and  C_5
REMARK                            x       y       z     vdW  Elec       q    Type
REMARK                         _______ _______ _______ _____ _____    ______ ____
ROOT
ATOM      1  C   UNL     1      -0.536  10.165  18.761  0.00  0.00    +0.000 C 
ATOM      2  C   UNL     1      -1.746  10.566  17.977  0.00  0.00    +0.000 A 
ATOM      3  C   UNL     1      -1.974  10.110  16.702  0.00  0.00    +0.000 A 
ATOM      4  C   UNL     1      -3.138  10.542  16.099  0.00  0.00    +0.000 A 
ATOM      5  C   UNL     1      -3.493  10.100  14.711  0.00  0.00    +0.000 C 
ATOM      6  N   UNL     1      -4.022  11.355  16.720  0.00  0.00    +0.000 NA
ATOM      7  C   UNL     1      -3.738  11.741  17.973  0.00  0.00    +0.000 A 
ATOM      8  N   UNL     1      -4.705  12.512  18.612  0.00  0.00    +0.000 N 
ATOM      9  C   UNL     1      -4.822  12.637  19.942  0.00  0.00    +0.000 A 
ATOM     10  N   UNL     1      -5.928  12.852  20.630  0.00  0.00    +0.000 NA
ATOM     11  C   UNL     1      -5.512  12.813  21.940  0.00  0.00    +0.000 A 
ATOM     12  C   UNL     1      -6.217  12.919  23.144  0.00  0.00    +0.000 A 
ATOM     13  C   UNL     1      -5.495  12.816  24.345  0.00  0.00    +0.000 A 
ATOM     14  C   UNL     1      -4.107  12.616  24.344  0.00  0.00    +0.000 A 
ATOM     15  C   UNL     1      -3.389  12.513  23.149  0.00  0.00    +0.000 A 
ATOM     16  C   UNL     1      -4.145  12.617  21.989  0.00  0.00    +0.000 A 
ATOM     17  O   UNL     1      -3.695  12.533  20.713  0.00  0.00    +0.000 OA
ATOM     18  N   UNL     1      -2.613  11.377  18.607  0.00  0.00    +0.000 NA
ATOM     19  H   UNL     1      -5.547  12.524  18.058  0.00  0.00    +0.000 HD
ENDROOT
TORSDOF 0
ENDMDL
MODEL 9
REMARK VINA RESULT:      -6.6      4.500      6.935
REMARK  Name = 
REMARK  2 active torsions:
REMARK  status: ('A' for Active; 'I' for Inactive)
REMARK    1  A    between atoms: C_1  and  C_2
REMARK    2  A    between atoms: C_4  and  C_5
REMARK                            x       y       z     vdW  Elec       q    Type
REMARK                         _______ _______ _______ _____ _____    ______ ____
ROOT
ATOM      1  C   UNL     1       1.689   3.219  21.904  0.00  0.00    +0.000 C 
ATOM      2  C   UNL     1       2.298   3.551  20.577  0.00  0.00    +0.000 A 
ATOM      3  C   UNL     1       2.689   2.578  19.690  0.00  0.00    +0.000 A 
ATOM      4  C   UNL     1       3.219   3.020  18.495  0.00  0.00    +0.000 A 
ATOM      5  C   UNL     1       3.672   2.047  17.449  0.00  0.00    +0.000 C 
ATOM      6  N   UNL     1       3.338   4.333  18.192  0.00  0.00    +0.000 NA
ATOM      7  C   UNL     1       2.914   5.222  19.103  0.00  0.00    +0.000 A 
ATOM      8  N   UNL     1       2.976   6.561  18.728  0.00  0.00    +0.000 N 
ATOM      9  C   UNL     1       2.243   7.540  19.276  0.00  0.00    +0.000 A 
ATOM     10  N   UNL     1       1.822   8.647  18.693  0.00  0.00    +0.000 NA
ATOM     11  C   UNL     1       1.053   9.255  19.657  0.00  0.00    +0.000 A 
ATOM     12  C   UNL     1       0.293  10.430  19.638  0.00  0.00    +0.000 A 
ATOM     13  C   UNL     1      -0.413  10.780  20.801  0.00  0.00    +0.000 A 
ATOM     14  C   UNL     1      -0.359   9.982  21.953  0.00  0.00    +0.000 A 
ATOM     15  C   UNL     1       0.400   8.809  21.988  0.00  0.00    +0.000 A 
ATOM     16  C   UNL     1       1.077   8.501  20.815  0.00  0.00    +0.000 A 
ATOM     17  O   UNL     1       1.860   7.418  20.586  0.00  0.00    +0.000 OA
ATOM     18  N   UNL     1       2.413   4.859  20.293  0.00  0.00    +0.000 NA
ATOM     19  H   UNL     1       3.199   6.627  17.747  0.00  0.00    +0.000 HD
ENDROOT
TORSDOF 0
ENDMDL
