MODEL 1
REMARK VINA RESULT:      -7.0      0.000      0.000
REMARK  Name = 
REMARK  3 active torsions:
REMARK  status: ('A' for Active; 'I' for Inactive)
REMARK    1  A    between atoms: C_1  and  N_2
REMARK    2  A    between atoms: C_4  and  C_5
REMARK    3  A    between atoms: C_6  and  C_7
REMARK                            x       y       z     vdW  Elec       q    Type
REMARK                         _______ _______ _______ _____ _____    ______ ____
ROOT
ATOM      1  C   UNL     1      -0.948  13.279  20.239  0.00  0.00    +0.000 C 
ATOM      2  C   UNL     1       0.118  12.628  20.731  0.00  0.00    +0.000 C 
ATOM      3  C   UNL     1       1.155  13.635  21.026  0.00  0.00    +0.000 C 
ATOM      4  O   UNL     1       2.276  13.398  21.447  0.00  0.00    +0.000 OA
ATOM      5  N   UNL     1       0.645  14.842  20.725  0.00  0.00    +0.000 N 
ATOM      6  C   UNL     1      -0.595  14.722  20.195  0.00  0.00    +0.000 C 
ATOM      7  O   UNL     1      -1.268  15.629  19.746  0.00  0.00    +0.000 OA
ATOM      8  H   UNL     1       1.149  15.710  20.792  0.00  0.00    +0.000 HD
ENDROOT
BRANCH   1  12
ATOM      9  C   UNL     1      -5.775  12.321  19.999  0.00  0.00    +0.000 C 
ATOM     10  N   UNL     1      -4.361  12.310  19.692  0.00  0.00    +0.000 N 
ATOM     11  C   UNL     1      -3.401  12.996  20.390  0.00  0.00    +0.000 A 
ATOM     12  C   UNL     1      -2.187  12.759  19.781  0.00  0.00    +0.000 A 
ATOM     13  C   UNL     1      -2.420  11.890  18.671  0.00  0.00    +0.000 A 
ATOM     14  C   UNL     1      -1.599  11.290  17.691  0.00  0.00    +0.000 A 
ATOM     15  C   UNL     1      -2.164  10.434  16.738  0.00  0.00    +0.000 A 
ATOM     16  C   UNL     1      -3.529  10.170  16.744  0.00  0.00    +0.000 A 
ATOM     17  C   UNL     1      -4.366  10.751  17.698  0.00  0.00    +0.000 A 
ATOM     18  C   UNL     1      -3.791  11.610  18.650  0.00  0.00    +0.000 A 
ENDBRANCH   1  12
BRANCH   2  19
ATOM     19  C   UNL     1       0.291  11.184  20.912  0.00  0.00    +0.000 A 
ATOM     20  C   UNL     1      -0.283  10.525  22.017  0.00  0.00    +0.000 A 
ATOM     21 CL   UNL     1      -1.189  11.366  23.228  0.00  0.00    +0.000 Cl
ATOM     22  C   UNL     1      -0.145   9.143  22.179  0.00  0.00    +0.000 A 
ATOM     23  C   UNL     1       0.537   8.390  21.227  0.00  0.00    +0.000 A 
ATOM     24  C   UNL     1       1.119   9.022  20.126  0.00  0.00    +0.000 A 
ATOM     25 CL   UNL     1       1.942   8.013  18.986  0.00  0.00    +0.000 Cl
ATOM     26  C   UNL     1       1.023  10.416  19.979  0.00  0.00    +0.000 A 
ATOM     27 CL   UNL     1       1.851  11.196  18.660  0.00  0.00    +0.000 Cl
ENDBRANCH   2  19
TORSDOF 2
ENDMDL
MODEL 2
REMARK VINA RESULT:      -6.9      1.139      2.280
REMARK  Name = 
REMARK  3 active torsions:
REMARK  status: ('A' for Active; 'I' for Inactive)
REMARK    1  A    between atoms: C_1  and  N_2
REMARK    2  A    between atoms: C_4  and  C_5
REMARK    3  A    between atoms: C_6  and  C_7
REMARK                            x       y       z     vdW  Elec       q    Type
REMARK                         _______ _______ _______ _____ _____    ______ ____
ROOT
ATOM      1  C   UNL     1      -0.575  12.982  19.525  0.00  0.00    +0.000 C 
ATOM      2  C   UNL     1       0.232  12.507  20.487  0.00  0.00    +0.000 C 
ATOM      3  C   UNL     1       1.339  13.467  20.652  0.00  0.00    +0.000 C 
ATOM      4  O   UNL     1       2.286  13.338  21.412  0.00  0.00    +0.000 OA
ATOM      5  N   UNL     1       1.121  14.486  19.801  0.00  0.00    +0.000 N 
ATOM      6  C   UNL     1       0.023  14.256  19.046  0.00  0.00    +0.000 C 
ATOM      7  O   UNL     1      -0.372  14.953  18.132  0.00  0.00    +0.000 OA
ATOM      8  H   UNL     1       1.741  15.268  19.673  0.00  0.00    +0.000 HD
ENDROOT
BRANCH   1  12
ATOM      9  C   UNL     1      -3.615  10.717  16.379  0.00  0.00    +0.000 C 
ATOM     10  N   UNL     1      -3.130  11.416  17.549  0.00  0.00    +0.000 N 
ATOM     11  C   UNL     1      -1.832  11.809  17.746  0.00  0.00    +0.000 A 
ATOM     12  C   UNL     1      -1.758  12.415  18.982  0.00  0.00    +0.000 A 
ATOM     13  C   UNL     1      -3.065  12.391  19.557  0.00  0.00    +0.000 A 
ATOM     14  C   UNL     1      -3.627  12.855  20.767  0.00  0.00    +0.000 A 
ATOM     15  C   UNL     1      -4.997  12.696  21.006  0.00  0.00    +0.000 A 
ATOM     16  C   UNL     1      -5.814  12.082  20.062  0.00  0.00    +0.000 A 
ATOM     17  C   UNL     1      -5.287  11.611  18.858  0.00  0.00    +0.000 A 
ATOM     18  C   UNL     1      -3.911  11.773  18.628  0.00  0.00    +0.000 A 
ENDBRANCH   1  12
BRANCH   2  19
ATOM     19  C   UNL     1       0.110  11.248  21.230  0.00  0.00    +0.000 A 
ATOM     20  C   UNL     1      -0.565  11.206  22.465  0.00  0.00    +0.000 A 
ATOM     21 CL   UNL     1      -1.256  12.617  23.191  0.00  0.00    +0.000 Cl
ATOM     22  C   UNL     1      -0.709  10.003  23.163  0.00  0.00    +0.000 A 
ATOM     23  C   UNL     1      -0.213   8.818  22.626  0.00  0.00    +0.000 A 
ATOM     24  C   UNL     1       0.464   8.836  21.405  0.00  0.00    +0.000 A 
ATOM     25 CL   UNL     1       1.042   7.319  20.804  0.00  0.00    +0.000 Cl
ATOM     26  C   UNL     1       0.652  10.048  20.718  0.00  0.00    +0.000 A 
ATOM     27 CL   UNL     1       1.595  10.065  19.255  0.00  0.00    +0.000 Cl
ENDBRANCH   2  19
TORSDOF 2
ENDMDL
MODEL 3
REMARK VINA RESULT:      -6.8      0.962      2.128
REMARK  Name = 
REMARK  3 active torsions:
REMARK  status: ('A' for Active; 'I' for Inactive)
REMARK    1  A    between atoms: C_1  and  N_2
REMARK    2  A    between atoms: C_4  and  C_5
REMARK    3  A    between atoms: C_6  and  C_7
REMARK                            x       y       z     vdW  Elec       q    Type
REMARK                         _______ _______ _______ _____ _____    ______ ____
ROOT
ATOM      1  C   UNL     1      -0.443  12.932  19.467  0.00  0.00    +0.000 C 
ATOM      2  C   UNL     1       0.548  12.328  20.143  0.00  0.00    +0.000 C 
ATOM      3  C   UNL     1       1.524  13.366  20.522  0.00  0.00    +0.000 C 
ATOM      4  O   UNL     1       2.576  13.172  21.110  0.00  0.00    +0.000 OA
ATOM      5  N   UNL     1       1.053  14.545  20.080  0.00  0.00    +0.000 N 
ATOM      6  C   UNL     1      -0.098  14.376  19.389  0.00  0.00    +0.000 C 
ATOM      7  O   UNL     1      -0.707  15.245  18.796  0.00  0.00    +0.000 OA
ATOM      8  H   UNL     1       1.536  15.424  20.166  0.00  0.00    +0.000 HD
ENDROOT
BRANCH   1  12
ATOM      9  C   UNL     1      -3.339  10.672  16.185  0.00  0.00    +0.000 C 
ATOM     10  N   UNL     1      -2.907  11.369  17.376  0.00  0.00    +0.000 N 
ATOM     11  C   UNL     1      -1.618  11.762  17.632  0.00  0.00    +0.000 A 
ATOM     12  C   UNL     1      -1.601  12.367  18.870  0.00  0.00    +0.000 A 
ATOM     13  C   UNL     1      -2.932  12.344  19.385  0.00  0.00    +0.000 A 
ATOM     14  C   UNL     1      -3.547  12.807  20.569  0.00  0.00    +0.000 A 
ATOM     15  C   UNL     1      -4.927  12.650  20.746  0.00  0.00    +0.000 A 
ATOM     16  C   UNL     1      -5.701  12.037  19.766  0.00  0.00    +0.000 A 
ATOM     17  C   UNL     1      -5.121  11.566  18.586  0.00  0.00    +0.000 A 
ATOM     18  C   UNL     1      -3.735  11.727  18.419  0.00  0.00    +0.000 A 
ENDBRANCH   1  12
BRANCH   2  19
ATOM     19  C   UNL     1       0.704  10.899  20.432  0.00  0.00    +0.000 A 
ATOM     20  C   UNL     1       0.171  10.342  21.611  0.00  0.00    +0.000 A 
ATOM     21 CL   UNL     1      -0.663  11.296  22.790  0.00  0.00    +0.000 Cl
ATOM     22  C   UNL     1       0.292   8.975  21.877  0.00  0.00    +0.000 A 
ATOM     23  C   UNL     1       0.916   8.135  20.959  0.00  0.00    +0.000 A 
ATOM     24  C   UNL     1       1.456   8.664  19.786  0.00  0.00    +0.000 A 
ATOM     25 CL   UNL     1       2.207   7.551  18.694  0.00  0.00    +0.000 Cl
ATOM     26  C   UNL     1       1.378  10.044  19.531  0.00  0.00    +0.000 A 
ATOM     27 CL   UNL     1       2.156  10.699  18.117  0.00  0.00    +0.000 Cl
ENDBRANCH   2  19
TORSDOF 2
ENDMDL
MODEL 4
REMARK VINA RESULT:      -6.7      7.795     10.063
REMARK  Name = 
REMARK  3 active torsions:
REMARK  status: ('A' for Active; 'I' for Inactive)
REMARK    1  A    between atoms: C_1  and  N_2
REMARK    2  A    between atoms: C_4  and  C_5
REMARK    3  A    between atoms: C_6  and  C_7
REMARK                            x       y       z     vdW  Elec       q    Type
REMARK                         _______ _______ _______ _____ _____    ______ ____
ROOT
ATOM      1  C   UNL     1       8.565  15.768  18.884  0.00  0.00    +0.000 C 
ATOM      2  C   UNL     1       9.550  14.987  18.414  0.00  0.00    +0.000 C 
ATOM      3  C   UNL     1      10.276  15.755  17.386  0.00  0.00    +0.000 C 
ATOM      4  O   UNL     1      11.208  15.342  16.715  0.00  0.00    +0.000 OA
ATOM      5  N   UNL     1       9.707  16.972  17.314  0.00  0.00    +0.000 N 
ATOM      6  C   UNL     1       8.638  17.053  18.139  0.00  0.00    +0.000 C 
ATOM      7  O   UNL     1       7.874  17.995  18.225  0.00  0.00    +0.000 OA
ATOM      8  H   UNL     1       9.976  17.693  16.666  0.00  0.00    +0.000 HD
ENDROOT
BRANCH   1  12
ATOM      9  C   UNL     1       6.477  14.940  23.268  0.00  0.00    +0.000 C 
ATOM     10  N   UNL     1       6.645  15.084  21.838  0.00  0.00    +0.000 N 
ATOM     11  C   UNL     1       7.822  15.413  21.216  0.00  0.00    +0.000 A 
ATOM     12  C   UNL     1       7.576  15.481  19.861  0.00  0.00    +0.000 A 
ATOM     13  C   UNL     1       6.196  15.179  19.653  0.00  0.00    +0.000 A 
ATOM     14  C   UNL     1       5.362  15.077  18.518  0.00  0.00    +0.000 A 
ATOM     15  C   UNL     1       4.019  14.713  18.669  0.00  0.00    +0.000 A 
ATOM     16  C   UNL     1       3.494  14.453  19.931  0.00  0.00    +0.000 A 
ATOM     17  C   UNL     1       4.293  14.549  21.072  0.00  0.00    +0.000 A 
ATOM     18  C   UNL     1       5.640  14.917  20.910  0.00  0.00    +0.000 A 
ENDBRANCH   1  12
BRANCH   2  19
ATOM     19  C   UNL     1       9.858  13.601  18.783  0.00  0.00    +0.000 A 
ATOM     20  C   UNL     1      10.913  13.311  19.670  0.00  0.00    +0.000 A 
ATOM     21 CL   UNL     1      11.918  14.547  20.347  0.00  0.00    +0.000 Cl
ATOM     22  C   UNL     1      11.192  11.994  20.047  0.00  0.00    +0.000 A 
ATOM     23  C   UNL     1      10.404  10.948  19.574  0.00  0.00    +0.000 A 
ATOM     24  C   UNL     1       9.356  11.210  18.690  0.00  0.00    +0.000 A 
ATOM     25 CL   UNL     1       8.421   9.855  18.156  0.00  0.00    +0.000 Cl
ATOM     26  C   UNL     1       9.096  12.526  18.271  0.00  0.00    +0.000 A 
ATOM     27 CL   UNL     1       7.857  12.818  17.082  0.00  0.00    +0.000 Cl
ENDBRANCH   2  19
TORSDOF 2
ENDMDL
MODEL 5
REMARK VINA RESULT:      -6.6      0.915      2.376
REMARK  Name = 
REMARK  3 active torsions:
REMARK  status: ('A' for Active; 'I' for Inactive)
REMARK    1  A    between atoms: C_1  and  N_2
REMARK    2  A    between atoms: C_4  and  C_5
REMARK    3  A    between atoms: C_6  and  C_7
REMARK                            x       y       z     vdW  Elec       q    Type
REMARK                         _______ _______ _______ _____ _____    ______ ____
ROOT
ATOM      1  C   UNL     1      -1.502  13.291  20.533  0.00  0.00    +0.000 C 
ATOM      2  C   UNL     1      -0.374  12.719  20.983  0.00  0.00    +0.000 C 
ATOM      3  C   UNL     1       0.508  13.797  21.467  0.00  0.00    +0.000 C 
ATOM      4  O   UNL     1       1.637  13.648  21.907  0.00  0.00    +0.000 OA
ATOM      5  N   UNL     1      -0.150  14.959  21.311  0.00  0.00    +0.000 N 
ATOM      6  C   UNL     1      -1.345  14.759  20.708  0.00  0.00    +0.000 C 
ATOM      7  O   UNL     1      -2.120  15.627  20.357  0.00  0.00    +0.000 OA
ATOM      8  H   UNL     1       0.230  15.866  21.524  0.00  0.00    +0.000 HD
ENDROOT
BRANCH   1  12
ATOM      9  C   UNL     1      -4.349  10.938  17.272  0.00  0.00    +0.000 C 
ATOM     10  N   UNL     1      -3.930  11.648  18.461  0.00  0.00    +0.000 N 
ATOM     11  C   UNL     1      -2.654  12.084  18.706  0.00  0.00    +0.000 A 
ATOM     12  C   UNL     1      -2.645  12.688  19.945  0.00  0.00    +0.000 A 
ATOM     13  C   UNL     1      -3.971  12.618  20.472  0.00  0.00    +0.000 A 
ATOM     14  C   UNL     1      -4.591  13.059  21.662  0.00  0.00    +0.000 A 
ATOM     15  C   UNL     1      -5.963  12.854  21.851  0.00  0.00    +0.000 A 
ATOM     16  C   UNL     1      -6.725  12.217  20.876  0.00  0.00    +0.000 A 
ATOM     17  C   UNL     1      -6.139  11.768  19.691  0.00  0.00    +0.000 A 
ATOM     18  C   UNL     1      -4.761  11.976  19.511  0.00  0.00    +0.000 A 
ENDBRANCH   1  12
BRANCH   2  19
ATOM     19  C   UNL     1      -0.014  11.297  20.969  0.00  0.00    +0.000 A 
ATOM     20  C   UNL     1      -0.459  10.435  21.991  0.00  0.00    +0.000 A 
ATOM     21 CL   UNL     1      -1.416  10.991  23.321  0.00  0.00    +0.000 Cl
ATOM     22  C   UNL     1      -0.142   9.073  21.967  0.00  0.00    +0.000 A 
ATOM     23  C   UNL     1       0.593   8.543  20.910  0.00  0.00    +0.000 A 
ATOM     24  C   UNL     1       1.048   9.379  19.889  0.00  0.00    +0.000 A 
ATOM     25 CL   UNL     1       1.947   8.638  18.609  0.00  0.00    +0.000 Cl
ATOM     26  C   UNL     1       0.773  10.756  19.928  0.00  0.00    +0.000 A 
ATOM     27 CL   UNL     1       1.444  11.798  18.705  0.00  0.00    +0.000 Cl
ENDBRANCH   2  19
TORSDOF 2
ENDMDL
MODEL 6
REMARK VINA RESULT:      -6.5      2.177      3.361
REMARK  Name = 
REMARK  3 active torsions:
REMARK  status: ('A' for Active; 'I' for Inactive)
REMARK    1  A    between atoms: C_1  and  N_2
REMARK    2  A    between atoms: C_4  and  C_5
REMARK    3  A    between atoms: C_6  and  C_7
REMARK                            x       y       z     vdW  Elec       q    Type
REMARK                         _______ _______ _______ _____ _____    ______ ____
ROOT
ATOM      1  C   UNL     1      -3.154  14.151  20.690  0.00  0.00    +0.000 C 
ATOM      2  C   UNL     1      -1.897  13.701  20.545  0.00  0.00    +0.000 C 
ATOM      3  C   UNL     1      -1.043  14.863  20.236  0.00  0.00    +0.000 C 
ATOM      4  O   UNL     1       0.154  14.822  19.998  0.00  0.00    +0.000 OA
ATOM      5  N   UNL     1      -1.827  15.955  20.243  0.00  0.00    +0.000 N 
ATOM      6  C   UNL     1      -3.121  15.618  20.455  0.00  0.00    +0.000 C 
ATOM      7  O   UNL     1      -4.069  16.378  20.426  0.00  0.00    +0.000 OA
ATOM      8  H   UNL     1      -1.515  16.887  20.025  0.00  0.00    +0.000 HD
ENDROOT
BRANCH   1  12
ATOM      9  C   UNL     1      -7.059  12.393  23.127  0.00  0.00    +0.000 C 
ATOM     10  N   UNL     1      -6.088  12.618  22.077  0.00  0.00    +0.000 N 
ATOM     11  C   UNL     1      -5.012  13.462  22.171  0.00  0.00    +0.000 A 
ATOM     12  C   UNL     1      -4.343  13.426  20.966  0.00  0.00    +0.000 A 
ATOM     13  C   UNL     1      -5.039  12.520  20.109  0.00  0.00    +0.000 A 
ATOM     14  C   UNL     1      -4.847  12.057  18.789  0.00  0.00    +0.000 A 
ATOM     15  C   UNL     1      -5.724  11.109  18.247  0.00  0.00    +0.000 A 
ATOM     16  C   UNL     1      -6.788  10.620  18.998  0.00  0.00    +0.000 A 
ATOM     17  C   UNL     1      -7.005  11.061  20.304  0.00  0.00    +0.000 A 
ATOM     18  C   UNL     1      -6.121  12.014  20.838  0.00  0.00    +0.000 A 
ENDBRANCH   1  12
BRANCH   2  19
ATOM     19  C   UNL     1      -1.418  12.317  20.617  0.00  0.00    +0.000 A 
ATOM     20  C   UNL     1      -1.212  11.567  19.443  0.00  0.00    +0.000 A 
ATOM     21 CL   UNL     1      -1.534  12.206  17.867  0.00  0.00    +0.000 Cl
ATOM     22  C   UNL     1      -0.728  10.257  19.505  0.00  0.00    +0.000 A 
ATOM     23  C   UNL     1      -0.410   9.685  20.734  0.00  0.00    +0.000 A 
ATOM     24  C   UNL     1      -0.610  10.407  21.911  0.00  0.00    +0.000 A 
ATOM     25 CL   UNL     1      -0.181   9.626  23.395  0.00  0.00    +0.000 Cl
ATOM     26  C   UNL     1      -1.137  11.709  21.862  0.00  0.00    +0.000 A 
ATOM     27 CL   UNL     1      -1.484  12.550  23.347  0.00  0.00    +0.000 Cl
ENDBRANCH   2  19
TORSDOF 2
ENDMDL
MODEL 7
REMARK VINA RESULT:      -6.5      8.447     11.135
REMARK  Name = 
REMARK  3 active torsions:
REMARK  status: ('A' for Active; 'I' for Inactive)
REMARK    1  A    between atoms: C_1  and  N_2
REMARK    2  A    between atoms: C_4  and  C_5
REMARK    3  A    between atoms: C_6  and  C_7
REMARK                            x       y       z     vdW  Elec       q    Type
REMARK                         _______ _______ _______ _____ _____    ______ ____
ROOT
ATOM      1  C   UNL     1       8.662  15.970  19.198  0.00  0.00    +0.000 C 
ATOM      2  C   UNL     1       9.611  15.311  18.514  0.00  0.00    +0.000 C 
ATOM      3  C   UNL     1      10.059  16.188  17.418  0.00  0.00    +0.000 C 
ATOM      4  O   UNL     1      10.885  15.897  16.566  0.00  0.00    +0.000 OA
ATOM      5  N   UNL     1       9.378  17.343  17.519  0.00  0.00    +0.000 N 
ATOM      6  C   UNL     1       8.478  17.284  18.528  0.00  0.00    +0.000 C 
ATOM      7  O   UNL     1       7.660  18.140  18.804  0.00  0.00    +0.000 OA
ATOM      8  H   UNL     1       9.455  18.113  16.875  0.00  0.00    +0.000 HD
ENDROOT
BRANCH   1  12
ATOM      9  C   UNL     1       4.859  14.378  21.895  0.00  0.00    +0.000 C 
ATOM     10  N   UNL     1       6.178  14.852  21.535  0.00  0.00    +0.000 N 
ATOM     11  C   UNL     1       6.581  15.159  20.262  0.00  0.00    +0.000 A 
ATOM     12  C   UNL     1       7.902  15.547  20.321  0.00  0.00    +0.000 A 
ATOM     13  C   UNL     1       8.316  15.476  21.685  0.00  0.00    +0.000 A 
ATOM     14  C   UNL     1       9.518  15.752  22.374  0.00  0.00    +0.000 A 
ATOM     15  C   UNL     1       9.573  15.607  23.766  0.00  0.00    +0.000 A 
ATOM     16  C   UNL     1       8.454  15.191  24.480  0.00  0.00    +0.000 A 
ATOM     17  C   UNL     1       7.253  14.908  23.826  0.00  0.00    +0.000 A 
ATOM     18  C   UNL     1       7.208  15.054  22.429  0.00  0.00    +0.000 A 
ENDBRANCH   1  12
BRANCH   2  19
ATOM     19  C   UNL     1      10.107  13.949  18.742  0.00  0.00    +0.000 A 
ATOM     20  C   UNL     1      11.334  13.733  19.400  0.00  0.00    +0.000 A 
ATOM     21 CL   UNL     1      12.333  15.036  19.946  0.00  0.00    +0.000 Cl
ATOM     22  C   UNL     1      11.797  12.437  19.644  0.00  0.00    +0.000 A 
ATOM     23  C   UNL     1      11.032  11.336  19.268  0.00  0.00    +0.000 A 
ATOM     24  C   UNL     1       9.815  11.526  18.611  0.00  0.00    +0.000 A 
ATOM     25 CL   UNL     1       8.923  10.106  18.186  0.00  0.00    +0.000 Cl
ATOM     26  C   UNL     1       9.363  12.824  18.321  0.00  0.00    +0.000 A 
ATOM     27 CL   UNL     1       7.899  13.036  17.402  0.00  0.00    +0.000 Cl
ENDBRANCH   2  19
TORSDOF 2
ENDMDL
MODEL 8
REMARK VINA RESULT:      -6.5      2.243      4.145
REMARK  Name = 
REMARK  3 active torsions:
REMARK  status: ('A' for Active; 'I' for Inactive)
REMARK    1  A    between atoms: C_1  and  N_2
REMARK    2  A    between atoms: C_4  and  C_5
REMARK    3  A    between atoms: C_6  and  C_7
REMARK                            x       y       z     vdW  Elec       q    Type
REMARK                         _______ _______ _______ _____ _____    ______ ____
ROOT
ATOM      1  C   UNL     1      -3.442  13.858  20.666  0.00  0.00    +0.000 C 
ATOM      2  C   UNL     1      -2.139  13.554  20.787  0.00  0.00    +0.000 C 
ATOM      3  C   UNL     1      -1.395  14.823  20.885  0.00  0.00    +0.000 C 
ATOM      4  O   UNL     1      -0.181  14.932  20.962  0.00  0.00    +0.000 OA
ATOM      5  N   UNL     1      -2.293  15.823  20.851  0.00  0.00    +0.000 N 
ATOM      6  C   UNL     1      -3.544  15.341  20.668  0.00  0.00    +0.000 C 
ATOM      7  O   UNL     1      -4.548  16.007  20.508  0.00  0.00    +0.000 OA
ATOM      8  H   UNL     1      -2.061  16.803  20.862  0.00  0.00    +0.000 HD
ENDROOT
BRANCH   1  12
ATOM      9  C   UNL     1      -6.634  10.719  18.608  0.00  0.00    +0.000 C 
ATOM     10  N   UNL     1      -6.006  11.598  19.572  0.00  0.00    +0.000 N 
ATOM     11  C   UNL     1      -4.846  12.296  19.360  0.00  0.00    +0.000 A 
ATOM     12  C   UNL     1      -4.557  12.993  20.513  0.00  0.00    +0.000 A 
ATOM     13  C   UNL     1      -5.586  12.709  21.462  0.00  0.00    +0.000 A 
ATOM     14  C   UNL     1      -5.855  13.119  22.786  0.00  0.00    +0.000 A 
ATOM     15  C   UNL     1      -7.010  12.666  23.436  0.00  0.00    +0.000 A 
ATOM     16  C   UNL     1      -7.896  11.810  22.790  0.00  0.00    +0.000 A 
ATOM     17  C   UNL     1      -7.654  11.385  21.482  0.00  0.00    +0.000 A 
ATOM     18  C   UNL     1      -6.492  11.844  20.839  0.00  0.00    +0.000 A 
ENDBRANCH   1  12
BRANCH   2  19
ATOM     19  C   UNL     1      -1.516  12.227  20.774  0.00  0.00    +0.000 A 
ATOM     20  C   UNL     1      -1.155  11.615  19.557  0.00  0.00    +0.000 A 
ATOM     21 CL   UNL     1      -1.446  12.362  18.024  0.00  0.00    +0.000 Cl
ATOM     22  C   UNL     1      -0.534  10.363  19.542  0.00  0.00    +0.000 A 
ATOM     23  C   UNL     1      -0.232   9.715  20.737  0.00  0.00    +0.000 A 
ATOM     24  C   UNL     1      -0.584  10.299  21.954  0.00  0.00    +0.000 A 
ATOM     25 CL   UNL     1      -0.166   9.433  23.392  0.00  0.00    +0.000 Cl
ATOM     26  C   UNL     1      -1.248  11.538  21.978  0.00  0.00    +0.000 A 
ATOM     27 CL   UNL     1      -1.778  12.196  23.501  0.00  0.00    +0.000 Cl
ENDBRANCH   2  19
TORSDOF 2
ENDMDL
MODEL 9
REMARK VINA RESULT:      -6.4      2.899      4.586
REMARK  Name = 
REMARK  3 active torsions:
REMARK  status: ('A' for Active; 'I' for Inactive)
REMARK    1  A    between atoms: C_1  and  N_2
REMARK    2  A    between atoms: C_4  and  C_5
REMARK    3  A    between atoms: C_6  and  C_7
REMARK                            x       y       z     vdW  Elec       q    Type
REMARK                         _______ _______ _______ _____ _____    ______ ____
ROOT
ATOM      1  C   UNL     1      -2.203  13.152  21.581  0.00  0.00    +0.000 C 
ATOM      2  C   UNL     1      -1.256  14.098  21.694  0.00  0.00    +0.000 C 
ATOM      3  C   UNL     1      -0.995  14.296  23.131  0.00  0.00    +0.000 C 
ATOM      4  O   UNL     1      -0.222  15.112  23.608  0.00  0.00    +0.000 OA
ATOM      5  N   UNL     1      -1.776  13.435  23.807  0.00  0.00    +0.000 N 
ATOM      6  C   UNL     1      -2.575  12.744  22.962  0.00  0.00    +0.000 C 
ATOM      7  O   UNL     1      -3.446  11.961  23.285  0.00  0.00    +0.000 OA
ATOM      8  H   UNL     1      -1.832  13.378  24.811  0.00  0.00    +0.000 HD
ENDROOT
BRANCH   1  12
ATOM      9  C   UNL     1      -5.625  12.178  18.173  0.00  0.00    +0.000 C 
ATOM     10  N   UNL     1      -4.370  12.170  18.894  0.00  0.00    +0.000 N 
ATOM     11  C   UNL     1      -4.125  12.863  20.051  0.00  0.00    +0.000 A 
ATOM     12  C   UNL     1      -2.816  12.626  20.414  0.00  0.00    +0.000 A 
ATOM     13  C   UNL     1      -2.245  11.752  19.440  0.00  0.00    +0.000 A 
ATOM     14  C   UNL     1      -0.980  11.150  19.266  0.00  0.00    +0.000 A 
ATOM     15  C   UNL     1      -0.760  10.288  18.185  0.00  0.00    +0.000 A 
ATOM     16  C   UNL     1      -1.777  10.019  17.275  0.00  0.00    +0.000 A 
ATOM     17  C   UNL     1      -3.038  10.603  17.419  0.00  0.00    +0.000 A 
ATOM     18  C   UNL     1      -3.248  11.468  18.506  0.00  0.00    +0.000 A 
ENDBRANCH   1  12
BRANCH   2  19
ATOM     19  C   UNL     1      -0.609  14.861  20.622  0.00  0.00    +0.000 A 
ATOM     20  C   UNL     1       0.659  14.484  20.137  0.00  0.00    +0.000 A 
ATOM     21 CL   UNL     1       1.535  13.139  20.784  0.00  0.00    +0.000 Cl
ATOM     22  C   UNL     1       1.267  15.191  19.095  0.00  0.00    +0.000 A 
ATOM     23  C   UNL     1       0.609  16.262  18.497  0.00  0.00    +0.000 A 
ATOM     24  C   UNL     1      -0.646  16.657  18.963  0.00  0.00    +0.000 A 
ATOM     25 CL   UNL     1      -1.399  17.992  18.159  0.00  0.00    +0.000 Cl
ATOM     26  C   UNL     1      -1.246  15.980  20.039  0.00  0.00    +0.000 A 
ATOM     27 CL   UNL     1      -2.760  16.558  20.677  0.00  0.00    +0.000 Cl
ENDBRANCH   2  19
TORSDOF 2
ENDMDL
