MODEL 1
REMARK VINA RESULT:      -8.2      0.000      0.000
REMARK  Name = 
REMARK  11 active torsions:
REMARK  status: ('A' for Active; 'I' for Inactive)
REMARK    1  A    between atoms: C_1  and  C_2
REMARK    2  A    between atoms: C_2  and  O_3
REMARK    3  A    between atoms: O_3  and  C_4
REMARK    4  A    between atoms: C_4  and  C_6
REMARK    5  A    between atoms: N_12  and  C_13
REMARK    6  A    between atoms: C_13  and  C_14
REMARK    7  A    between atoms: C_14  and  C_15
REMARK    8  A    between atoms: C_15  and  O_16
REMARK    9  A    between atoms: O_16  and  C_17
REMARK   10  A    between atoms: C_19  and  C_20
REMARK   11  A    between atoms: C_23  and  C_24
REMARK                            x       y       z     vdW  Elec       q    Type
REMARK                         _______ _______ _______ _____ _____    ______ ____
ROOT
ATOM      1  C   UNL     1       2.821   5.266  18.852  0.00  0.00    +0.000 A 
ATOM      2  C   UNL     1       2.385   4.267  17.978  0.00  0.00    +0.000 A 
ATOM      3  C   UNL     1       3.248   3.743  17.010  0.00  0.00    +0.000 A 
ATOM      4  C   UNL     1       4.567   4.227  16.918  0.00  0.00    +0.000 A 
ATOM      5  C   UNL     1       5.662   3.895  16.082  0.00  0.00    +0.000 A 
ATOM      6  C   UNL     1       6.729   4.672  16.462  0.00  0.00    +0.000 A 
ATOM      7  N   UNL     1       6.321   5.487  17.492  0.00  0.00    +0.000 N 
ATOM      8  C   UNL     1       4.997   5.230  17.797  0.00  0.00    +0.000 A 
ATOM      9  C   UNL     1       4.135   5.765  18.772  0.00  0.00    +0.000 A 
ENDROOT
BRANCH   1  10
ATOM     10  C   UNL     1       1.951   5.773  19.947  0.00  0.00    +0.000 C 
ATOM     11  O   UNL     1       1.938   6.941  20.311  0.00  0.00    +0.000 OA
BRANCH  10  12
ATOM     12  O   UNL     1       1.305   4.745  20.545  0.00  0.00    +0.000 OA
BRANCH  12  14
ATOM     13  C   UNL     1       1.498   2.570  21.492  0.00  0.00    +0.000 C 
ATOM     14  C   UNL     1       2.101   3.963  21.444  0.00  0.00    +0.000 C 
ENDBRANCH  12  14
ENDBRANCH  10  12
ENDBRANCH   1  10
BRANCH   7  15
ATOM     15  C   UNL     1       7.211   6.416  18.175  0.00  0.00    +0.000 C 
BRANCH  15  16
ATOM     16  C   UNL     1       7.793   7.509  17.281  0.00  0.00    +0.000 C 
BRANCH  16  17
ATOM     17  C   UNL     1       7.735   8.897  17.906  0.00  0.00    +0.000 C 
BRANCH  17  18
ATOM     18  O   UNL     1       8.868   9.011  18.774  0.00  0.00    +0.000 OA
BRANCH  18  19
ATOM     19  C   UNL     1       9.352  10.274  18.962  0.00  0.00    +0.000 A 
ATOM     20  C   UNL     1       9.232  10.779  20.256  0.00  0.00    +0.000 A 
ATOM     21  C   UNL     1       9.689  12.068  20.575  0.00  0.00    +0.000 A 
ATOM     22  C   UNL     1       9.503  12.577  21.979  0.00  0.00    +0.000 C 
ATOM     23  C   UNL     1      10.300  12.845  19.571  0.00  0.00    +0.000 A 
ATOM     24 CL   UNL     1      10.870  14.436  19.961  0.00  0.00    +0.000 Cl
ATOM     25  C   UNL     1      10.448  12.337  18.267  0.00  0.00    +0.000 A 
ATOM     26  C   UNL     1      11.084  13.085  17.127  0.00  0.00    +0.000 C 
ATOM     27  C   UNL     1       9.969  11.046  17.981  0.00  0.00    +0.000 A 
ENDBRANCH  18  19
ENDBRANCH  17  18
ENDBRANCH  16  17
ENDBRANCH  15  16
ENDBRANCH   7  15
TORSDOF 8
ENDMDL
MODEL 2
REMARK VINA RESULT:      -8.0      3.136      7.333
REMARK  Name = 
REMARK  11 active torsions:
REMARK  status: ('A' for Active; 'I' for Inactive)
REMARK    1  A    between atoms: C_1  and  C_2
REMARK    2  A    between atoms: C_2  and  O_3
REMARK    3  A    between atoms: O_3  and  C_4
REMARK    4  A    between atoms: C_4  and  C_6
REMARK    5  A    between atoms: N_12  and  C_13
REMARK    6  A    between atoms: C_13  and  C_14
REMARK    7  A    between atoms: C_14  and  C_15
REMARK    8  A    between atoms: C_15  and  O_16
REMARK    9  A    between atoms: O_16  and  C_17
REMARK   10  A    between atoms: C_19  and  C_20
REMARK   11  A    between atoms: C_23  and  C_24
REMARK                            x       y       z     vdW  Elec       q    Type
REMARK                         _______ _______ _______ _____ _____    ______ ____
ROOT
ATOM      1  C   UNL     1       6.048   5.291  17.780  0.00  0.00    +0.000 A 
ATOM      2  C   UNL     1       5.685   5.188  16.434  0.00  0.00    +0.000 A 
ATOM      3  C   UNL     1       4.623   4.364  16.046  0.00  0.00    +0.000 A 
ATOM      4  C   UNL     1       3.916   3.634  17.020  0.00  0.00    +0.000 A 
ATOM      5  C   UNL     1       2.808   2.752  16.952  0.00  0.00    +0.000 A 
ATOM      6  C   UNL     1       2.513   2.352  18.232  0.00  0.00    +0.000 A 
ATOM      7  N   UNL     1       3.415   2.942  19.085  0.00  0.00    +0.000 N 
ATOM      8  C   UNL     1       4.287   3.741  18.367  0.00  0.00    +0.000 A 
ATOM      9  C   UNL     1       5.355   4.565  18.767  0.00  0.00    +0.000 A 
ENDROOT
BRANCH   1  10
ATOM     10  C   UNL     1       7.112   6.228  18.226  0.00  0.00    +0.000 C 
ATOM     11  O   UNL     1       8.088   5.881  18.879  0.00  0.00    +0.000 OA
BRANCH  10  12
ATOM     12  O   UNL     1       6.769   7.502  17.926  0.00  0.00    +0.000 OA
BRANCH  12  14
ATOM     13  C   UNL     1       8.402   9.181  18.356  0.00  0.00    +0.000 C 
ATOM     14  C   UNL     1       7.795   8.279  17.294  0.00  0.00    +0.000 C 
ENDBRANCH  12  14
ENDBRANCH  10  12
ENDBRANCH   1  10
BRANCH   7  15
ATOM     15  C   UNL     1       3.374   2.775  20.531  0.00  0.00    +0.000 C 
BRANCH  15  16
ATOM     16  C   UNL     1       1.985   2.924  21.147  0.00  0.00    +0.000 C 
BRANCH  16  17
ATOM     17  C   UNL     1       1.270   4.202  20.729  0.00  0.00    +0.000 C 
BRANCH  17  18
ATOM     18  O   UNL     1       2.036   5.296  21.245  0.00  0.00    +0.000 OA
BRANCH  18  19
ATOM     19  C   UNL     1       1.903   6.484  20.585  0.00  0.00    +0.000 A 
ATOM     20  C   UNL     1       2.539   6.560  19.347  0.00  0.00    +0.000 A 
ATOM     21  C   UNL     1       2.479   7.731  18.573  0.00  0.00    +0.000 A 
ATOM     22  C   UNL     1       3.212   7.772  17.260  0.00  0.00    +0.000 C 
ATOM     23  C   UNL     1       1.741   8.831  19.053  0.00  0.00    +0.000 A 
ATOM     24 CL   UNL     1       1.660  10.278  18.100  0.00  0.00    +0.000 Cl
ATOM     25  C   UNL     1       1.076   8.758  20.291  0.00  0.00    +0.000 A 
ATOM     26  C   UNL     1       0.263   9.873  20.891  0.00  0.00    +0.000 C 
ATOM     27  C   UNL     1       1.165   7.573  21.043  0.00  0.00    +0.000 A 
ENDBRANCH  18  19
ENDBRANCH  17  18
ENDBRANCH  16  17
ENDBRANCH  15  16
ENDBRANCH   7  15
TORSDOF 8
ENDMDL
MODEL 3
REMARK VINA RESULT:      -8.0      1.454      2.443
REMARK  Name = 
REMARK  11 active torsions:
REMARK  status: ('A' for Active; 'I' for Inactive)
REMARK    1  A    between atoms: C_1  and  C_2
REMARK    2  A    between atoms: C_2  and  O_3
REMARK    3  A    between atoms: O_3  and  C_4
REMARK    4  A    between atoms: C_4  and  C_6
REMARK    5  A    between atoms: N_12  and  C_13
REMARK    6  A    between atoms: C_13  and  C_14
REMARK    7  A    between atoms: C_14  and  C_15
REMARK    8  A    between atoms: C_15  and  O_16
REMARK    9  A    between atoms: O_16  and  C_17
REMARK   10  A    between atoms: C_19  and  C_20
REMARK   11  A    between atoms: C_23  and  C_24
REMARK                            x       y       z     vdW  Elec       q    Type
REMARK                         _______ _______ _______ _____ _____    ______ ____
ROOT
ATOM      1  C   UNL     1       4.243   3.081  18.980  0.00  0.00    +0.000 A 
ATOM      2  C   UNL     1       3.645   2.593  17.816  0.00  0.00    +0.000 A 
ATOM      3  C   UNL     1       3.884   3.207  16.582  0.00  0.00    +0.000 A 
ATOM      4  C   UNL     1       4.735   4.325  16.515  0.00  0.00    +0.000 A 
ATOM      5  C   UNL     1       5.184   5.136  15.441  0.00  0.00    +0.000 A 
ATOM      6  C   UNL     1       6.041   6.076  15.957  0.00  0.00    +0.000 A 
ATOM      7  N   UNL     1       6.120   5.885  17.317  0.00  0.00    +0.000 N 
ATOM      8  C   UNL     1       5.332   4.811  17.686  0.00  0.00    +0.000 A 
ATOM      9  C   UNL     1       5.095   4.201  18.932  0.00  0.00    +0.000 A 
ENDROOT
BRANCH   1  10
ATOM     10  C   UNL     1       4.078   2.391  20.286  0.00  0.00    +0.000 C 
ATOM     11  O   UNL     1       5.011   1.923  20.926  0.00  0.00    +0.000 OA
BRANCH  10  12
ATOM     12  O   UNL     1       2.764   2.245  20.575  0.00  0.00    +0.000 OA
BRANCH  12  14
ATOM     13  C   UNL     1       1.334   4.146  20.681  0.00  0.00    +0.000 C 
ATOM     14  C   UNL     1       2.226   3.214  21.484  0.00  0.00    +0.000 C 
ENDBRANCH  12  14
ENDBRANCH  10  12
ENDBRANCH   1  10
BRANCH   7  15
ATOM     15  C   UNL     1       6.978   6.679  18.186  0.00  0.00    +0.000 C 
BRANCH  15  16
ATOM     16  C   UNL     1       7.940   7.608  17.450  0.00  0.00    +0.000 C 
BRANCH  16  17
ATOM     17  C   UNL     1       7.910   9.041  17.963  0.00  0.00    +0.000 C 
BRANCH  17  18
ATOM     18  O   UNL     1       8.978   9.168  18.909  0.00  0.00    +0.000 OA
BRANCH  18  19
ATOM     19  C   UNL     1       9.401  10.440  19.167  0.00  0.00    +0.000 A 
ATOM     20  C   UNL     1       9.889  11.148  18.070  0.00  0.00    +0.000 A 
ATOM     21  C   UNL     1      10.357  12.465  18.208  0.00  0.00    +0.000 A 
ATOM     22  C   UNL     1      10.905  13.172  16.998  0.00  0.00    +0.000 C 
ATOM     23  C   UNL     1      10.306  13.080  19.475  0.00  0.00    +0.000 A 
ATOM     24 CL   UNL     1      10.879  14.707  19.651  0.00  0.00    +0.000 Cl
ATOM     25  C   UNL     1       9.794  12.383  20.586  0.00  0.00    +0.000 A 
ATOM     26  C   UNL     1       9.696  12.949  21.976  0.00  0.00    +0.000 C 
ATOM     27  C   UNL     1       9.342  11.063  20.412  0.00  0.00    +0.000 A 
ENDBRANCH  18  19
ENDBRANCH  17  18
ENDBRANCH  16  17
ENDBRANCH  15  16
ENDBRANCH   7  15
TORSDOF 8
ENDMDL
MODEL 4
REMARK VINA RESULT:      -7.9      5.916      8.919
REMARK  Name = 
REMARK  11 active torsions:
REMARK  status: ('A' for Active; 'I' for Inactive)
REMARK    1  A    between atoms: C_1  and  C_2
REMARK    2  A    between atoms: C_2  and  O_3
REMARK    3  A    between atoms: O_3  and  C_4
REMARK    4  A    between atoms: C_4  and  C_6
REMARK    5  A    between atoms: N_12  and  C_13
REMARK    6  A    between atoms: C_13  and  C_14
REMARK    7  A    between atoms: C_14  and  C_15
REMARK    8  A    between atoms: C_15  and  O_16
REMARK    9  A    between atoms: O_16  and  C_17
REMARK   10  A    between atoms: C_19  and  C_20
REMARK   11  A    between atoms: C_23  and  C_24
REMARK                            x       y       z     vdW  Elec       q    Type
REMARK                         _______ _______ _______ _____ _____    ______ ____
ROOT
ATOM      1  C   UNL     1       4.797   5.421  17.141  0.00  0.00    +0.000 A 
ATOM      2  C   UNL     1       4.837   4.076  17.516  0.00  0.00    +0.000 A 
ATOM      3  C   UNL     1       4.066   3.613  18.588  0.00  0.00    +0.000 A 
ATOM      4  C   UNL     1       3.243   4.512  19.292  0.00  0.00    +0.000 A 
ATOM      5  C   UNL     1       2.350   4.354  20.382  0.00  0.00    +0.000 A 
ATOM      6  C   UNL     1       1.782   5.578  20.637  0.00  0.00    +0.000 A 
ATOM      7  N   UNL     1       2.311   6.489  19.755  0.00  0.00    +0.000 N 
ATOM      8  C   UNL     1       3.208   5.860  18.912  0.00  0.00    +0.000 A 
ATOM      9  C   UNL     1       3.982   6.335  17.837  0.00  0.00    +0.000 A 
ENDROOT
BRANCH   1  10
ATOM     10  C   UNL     1       5.535   5.917  15.950  0.00  0.00    +0.000 C 
ATOM     11  O   UNL     1       5.133   6.828  15.238  0.00  0.00    +0.000 OA
BRANCH  10  12
ATOM     12  O   UNL     1       6.613   5.135  15.709  0.00  0.00    +0.000 OA
BRANCH  12  14
ATOM     13  C   UNL     1       6.006   3.801  13.833  0.00  0.00    +0.000 C 
ATOM     14  C   UNL     1       6.913   4.916  14.325  0.00  0.00    +0.000 C 
ENDBRANCH  12  14
ENDBRANCH  10  12
ENDBRANCH   1  10
BRANCH   7  15
ATOM     15  C   UNL     1       1.901   7.886  19.708  0.00  0.00    +0.000 C 
BRANCH  15  16
ATOM     16  C   UNL     1       1.339   8.426  21.022  0.00  0.00    +0.000 C 
BRANCH  16  17
ATOM     17  C   UNL     1       0.630   9.765  20.872  0.00  0.00    +0.000 C 
BRANCH  17  18
ATOM     18  O   UNL     1       0.547  10.039  19.470  0.00  0.00    +0.000 OA
BRANCH  18  19
ATOM     19  C   UNL     1      -0.655  10.506  19.021  0.00  0.00    +0.000 A 
ATOM     20  C   UNL     1      -1.067  10.018  17.782  0.00  0.00    +0.000 A 
ATOM     21  C   UNL     1      -2.284  10.427  17.211  0.00  0.00    +0.000 A 
ATOM     22  C   UNL     1      -2.664   9.896  15.855  0.00  0.00    +0.000 C 
ATOM     23  C   UNL     1      -3.105  11.325  17.922  0.00  0.00    +0.000 A 
ATOM     24 CL   UNL     1      -4.611  11.829  17.224  0.00  0.00    +0.000 Cl
ATOM     25  C   UNL     1      -2.711  11.806  19.184  0.00  0.00    +0.000 A 
ATOM     26  C   UNL     1      -3.514  12.763  20.021  0.00  0.00    +0.000 C 
ATOM     27  C   UNL     1      -1.481  11.382  19.720  0.00  0.00    +0.000 A 
ENDBRANCH  18  19
ENDBRANCH  17  18
ENDBRANCH  16  17
ENDBRANCH  15  16
ENDBRANCH   7  15
TORSDOF 8
ENDMDL
MODEL 5
REMARK VINA RESULT:      -7.6      1.642      2.958
REMARK  Name = 
REMARK  11 active torsions:
REMARK  status: ('A' for Active; 'I' for Inactive)
REMARK    1  A    between atoms: C_1  and  C_2
REMARK    2  A    between atoms: C_2  and  O_3
REMARK    3  A    between atoms: O_3  and  C_4
REMARK    4  A    between atoms: C_4  and  C_6
REMARK    5  A    between atoms: N_12  and  C_13
REMARK    6  A    between atoms: C_13  and  C_14
REMARK    7  A    between atoms: C_14  and  C_15
REMARK    8  A    between atoms: C_15  and  O_16
REMARK    9  A    between atoms: O_16  and  C_17
REMARK   10  A    between atoms: C_19  and  C_20
REMARK   11  A    between atoms: C_23  and  C_24
REMARK                            x       y       z     vdW  Elec       q    Type
REMARK                         _______ _______ _______ _____ _____    ______ ____
ROOT
ATOM      1  C   UNL     1       2.875   6.591  18.093  0.00  0.00    +0.000 A 
ATOM      2  C   UNL     1       2.362   5.296  17.990  0.00  0.00    +0.000 A 
ATOM      3  C   UNL     1       3.120   4.276  17.406  0.00  0.00    +0.000 A 
ATOM      4  C   UNL     1       4.410   4.558  16.919  0.00  0.00    +0.000 A 
ATOM      5  C   UNL     1       5.410   3.759  16.309  0.00  0.00    +0.000 A 
ATOM      6  C   UNL     1       6.497   4.562  16.069  0.00  0.00    +0.000 A 
ATOM      7  N   UNL     1       6.194   5.835  16.491  0.00  0.00    +0.000 N 
ATOM      8  C   UNL     1       4.918   5.860  17.025  0.00  0.00    +0.000 A 
ATOM      9  C   UNL     1       4.162   6.894  17.608  0.00  0.00    +0.000 A 
ENDROOT
BRANCH   1  10
ATOM     10  C   UNL     1       2.126   7.669  18.791  0.00  0.00    +0.000 C 
ATOM     11  O   UNL     1       1.925   7.679  19.999  0.00  0.00    +0.000 OA
BRANCH  10  12
ATOM     12  O   UNL     1       1.601   8.533  17.891  0.00  0.00    +0.000 OA
BRANCH  12  14
ATOM     13  C   UNL     1       0.634  10.587  18.606  0.00  0.00    +0.000 C 
ATOM     14  C   UNL     1       1.906   9.914  18.119  0.00  0.00    +0.000 C 
ENDBRANCH  12  14
ENDBRANCH  10  12
ENDBRANCH   1  10
BRANCH   7  15
ATOM     15  C   UNL     1       7.137   6.943  16.430  0.00  0.00    +0.000 C 
BRANCH  15  16
ATOM     16  C   UNL     1       7.642   7.421  17.790  0.00  0.00    +0.000 C 
BRANCH  16  17
ATOM     17  C   UNL     1       8.127   8.864  17.783  0.00  0.00    +0.000 C 
BRANCH  17  18
ATOM     18  O   UNL     1       8.924   9.042  18.959  0.00  0.00    +0.000 OA
BRANCH  18  19
ATOM     19  C   UNL     1       9.326  10.320  19.221  0.00  0.00    +0.000 A 
ATOM     20  C   UNL     1       9.829  11.030  18.132  0.00  0.00    +0.000 A 
ATOM     21  C   UNL     1      10.280  12.352  18.274  0.00  0.00    +0.000 A 
ATOM     22  C   UNL     1      10.845  13.060  17.073  0.00  0.00    +0.000 C 
ATOM     23  C   UNL     1      10.195  12.971  19.538  0.00  0.00    +0.000 A 
ATOM     24 CL   UNL     1      10.746  14.606  19.718  0.00  0.00    +0.000 Cl
ATOM     25  C   UNL     1       9.668  12.273  20.640  0.00  0.00    +0.000 A 
ATOM     26  C   UNL     1       9.534  12.842  22.026  0.00  0.00    +0.000 C 
ATOM     27  C   UNL     1       9.235  10.947  20.462  0.00  0.00    +0.000 A 
ENDBRANCH  18  19
ENDBRANCH  17  18
ENDBRANCH  16  17
ENDBRANCH  15  16
ENDBRANCH   7  15
TORSDOF 8
ENDMDL
MODEL 6
REMARK VINA RESULT:      -7.5      2.790      4.435
REMARK  Name = 
REMARK  11 active torsions:
REMARK  status: ('A' for Active; 'I' for Inactive)
REMARK    1  A    between atoms: C_1  and  C_2
REMARK    2  A    between atoms: C_2  and  O_3
REMARK    3  A    between atoms: O_3  and  C_4
REMARK    4  A    between atoms: C_4  and  C_6
REMARK    5  A    between atoms: N_12  and  C_13
REMARK    6  A    between atoms: C_13  and  C_14
REMARK    7  A    between atoms: C_14  and  C_15
REMARK    8  A    between atoms: C_15  and  O_16
REMARK    9  A    between atoms: O_16  and  C_17
REMARK   10  A    between atoms: C_19  and  C_20
REMARK   11  A    between atoms: C_23  and  C_24
REMARK                            x       y       z     vdW  Elec       q    Type
REMARK                         _______ _______ _______ _____ _____    ______ ____
ROOT
ATOM      1  C   UNL     1       6.199   4.219  15.140  0.00  0.00    +0.000 A 
ATOM      2  C   UNL     1       5.044   3.520  15.503  0.00  0.00    +0.000 A 
ATOM      3  C   UNL     1       4.540   3.607  16.805  0.00  0.00    +0.000 A 
ATOM      4  C   UNL     1       5.202   4.407  17.755  0.00  0.00    +0.000 A 
ATOM      5  C   UNL     1       4.938   4.712  19.115  0.00  0.00    +0.000 A 
ATOM      6  C   UNL     1       5.908   5.584  19.544  0.00  0.00    +0.000 A 
ATOM      7  N   UNL     1       6.773   5.811  18.500  0.00  0.00    +0.000 N 
ATOM      8  C   UNL     1       6.360   5.104  17.385  0.00  0.00    +0.000 A 
ATOM      9  C   UNL     1       6.876   5.021  16.079  0.00  0.00    +0.000 A 
ENDROOT
BRANCH   1  10
ATOM     10  C   UNL     1       6.701   4.215  13.741  0.00  0.00    +0.000 C 
ATOM     11  O   UNL     1       7.314   5.149  13.241  0.00  0.00    +0.000 OA
BRANCH  10  12
ATOM     12  O   UNL     1       6.265   3.111  13.091  0.00  0.00    +0.000 OA
BRANCH  12  14
ATOM     13  C   UNL     1       4.406   3.269  11.612  0.00  0.00    +0.000 C 
ATOM     14  C   UNL     1       5.921   3.308  11.713  0.00  0.00    +0.000 C 
ENDBRANCH  12  14
ENDBRANCH  10  12
ENDBRANCH   1  10
BRANCH   7  15
ATOM     15  C   UNL     1       7.903   6.726  18.584  0.00  0.00    +0.000 C 
BRANCH  15  16
ATOM     16  C   UNL     1       7.942   7.788  17.488  0.00  0.00    +0.000 C 
BRANCH  16  17
ATOM     17  C   UNL     1       7.906   9.213  18.023  0.00  0.00    +0.000 C 
BRANCH  17  18
ATOM     18  O   UNL     1       9.054   9.372  18.864  0.00  0.00    +0.000 OA
BRANCH  18  19
ATOM     19  C   UNL     1       9.553  10.639  18.963  0.00  0.00    +0.000 A 
ATOM     20  C   UNL     1       9.421  11.244  20.212  0.00  0.00    +0.000 A 
ATOM     21  C   UNL     1       9.891  12.548  20.438  0.00  0.00    +0.000 A 
ATOM     22  C   UNL     1       9.691  13.167  21.795  0.00  0.00    +0.000 C 
ATOM     23  C   UNL     1      10.528  13.237  19.386  0.00  0.00    +0.000 A 
ATOM     24 CL   UNL     1      11.114  14.846  19.662  0.00  0.00    +0.000 Cl
ATOM     25  C   UNL     1      10.688  12.628  18.128  0.00  0.00    +0.000 A 
ATOM     26  C   UNL     1      11.352  13.277  16.945  0.00  0.00    +0.000 C 
ATOM     27  C   UNL     1      10.196  11.325  17.935  0.00  0.00    +0.000 A 
ENDBRANCH  18  19
ENDBRANCH  17  18
ENDBRANCH  16  17
ENDBRANCH  15  16
ENDBRANCH   7  15
TORSDOF 8
ENDMDL
MODEL 7
REMARK VINA RESULT:      -7.4      1.043      1.721
REMARK  Name = 
REMARK  11 active torsions:
REMARK  status: ('A' for Active; 'I' for Inactive)
REMARK    1  A    between atoms: C_1  and  C_2
REMARK    2  A    between atoms: C_2  and  O_3
REMARK    3  A    between atoms: O_3  and  C_4
REMARK    4  A    between atoms: C_4  and  C_6
REMARK    5  A    between atoms: N_12  and  C_13
REMARK    6  A    between atoms: C_13  and  C_14
REMARK    7  A    between atoms: C_14  and  C_15
REMARK    8  A    between atoms: C_15  and  O_16
REMARK    9  A    between atoms: O_16  and  C_17
REMARK   10  A    between atoms: C_19  and  C_20
REMARK   11  A    between atoms: C_23  and  C_24
REMARK                            x       y       z     vdW  Elec       q    Type
REMARK                         _______ _______ _______ _____ _____    ______ ____
ROOT
ATOM      1  C   UNL     1       2.992   5.401  18.805  0.00  0.00    +0.000 A 
ATOM      2  C   UNL     1       2.517   4.436  17.913  0.00  0.00    +0.000 A 
ATOM      3  C   UNL     1       3.370   3.863  16.964  0.00  0.00    +0.000 A 
ATOM      4  C   UNL     1       4.719   4.261  16.910  0.00  0.00    +0.000 A 
ATOM      5  C   UNL     1       5.813   3.864  16.101  0.00  0.00    +0.000 A 
ATOM      6  C   UNL     1       6.916   4.569  16.514  0.00  0.00    +0.000 A 
ATOM      7  N   UNL     1       6.535   5.403  17.537  0.00  0.00    +0.000 N 
ATOM      8  C   UNL     1       5.189   5.231  17.807  0.00  0.00    +0.000 A 
ATOM      9  C   UNL     1       4.338   5.815  18.762  0.00  0.00    +0.000 A 
ENDROOT
BRANCH   1  10
ATOM     10  C   UNL     1       2.129   5.958  19.879  0.00  0.00    +0.000 C 
ATOM     11  O   UNL     1       1.470   5.264  20.643  0.00  0.00    +0.000 OA
BRANCH  10  12
ATOM     12  O   UNL     1       2.082   7.307  19.790  0.00  0.00    +0.000 OA
BRANCH  12  14
ATOM     13  C   UNL     1       0.724   9.134  20.486  0.00  0.00    +0.000 C 
ATOM     14  C   UNL     1       1.593   7.981  20.957  0.00  0.00    +0.000 C 
ENDBRANCH  12  14
ENDBRANCH  10  12
ENDBRANCH   1  10
BRANCH   7  15
ATOM     15  C   UNL     1       7.463   6.270  18.249  0.00  0.00    +0.000 C 
BRANCH  15  16
ATOM     16  C   UNL     1       7.690   7.631  17.594  0.00  0.00    +0.000 C 
BRANCH  16  17
ATOM     17  C   UNL     1       8.409   8.625  18.495  0.00  0.00    +0.000 C 
BRANCH  17  18
ATOM     18  O   UNL     1       8.824   9.716  17.665  0.00  0.00    +0.000 OA
BRANCH  18  19
ATOM     19  C   UNL     1       9.339  10.800  18.315  0.00  0.00    +0.000 A 
ATOM     20  C   UNL     1       9.038  10.888  19.674  0.00  0.00    +0.000 A 
ATOM     21  C   UNL     1       9.507  11.960  20.451  0.00  0.00    +0.000 A 
ATOM     22  C   UNL     1       9.124  12.024  21.905  0.00  0.00    +0.000 C 
ATOM     23  C   UNL     1      10.315  12.943  19.845  0.00  0.00    +0.000 A 
ATOM     24 CL   UNL     1      10.900  14.266  20.802  0.00  0.00    +0.000 Cl
ATOM     25  C   UNL     1      10.645  12.852  18.480  0.00  0.00    +0.000 A 
ATOM     26  C   UNL     1      11.498  13.846  17.741  0.00  0.00    +0.000 C 
ATOM     27  C   UNL     1      10.149  11.770  17.730  0.00  0.00    +0.000 A 
ENDBRANCH  18  19
ENDBRANCH  17  18
ENDBRANCH  16  17
ENDBRANCH  15  16
ENDBRANCH   7  15
TORSDOF 8
ENDMDL
MODEL 8
REMARK VINA RESULT:      -7.4      1.649      2.235
REMARK  Name = 
REMARK  11 active torsions:
REMARK  status: ('A' for Active; 'I' for Inactive)
REMARK    1  A    between atoms: C_1  and  C_2
REMARK    2  A    between atoms: C_2  and  O_3
REMARK    3  A    between atoms: O_3  and  C_4
REMARK    4  A    between atoms: C_4  and  C_6
REMARK    5  A    between atoms: N_12  and  C_13
REMARK    6  A    between atoms: C_13  and  C_14
REMARK    7  A    between atoms: C_14  and  C_15
REMARK    8  A    between atoms: C_15  and  O_16
REMARK    9  A    between atoms: O_16  and  C_17
REMARK   10  A    between atoms: C_19  and  C_20
REMARK   11  A    between atoms: C_23  and  C_24
REMARK                            x       y       z     vdW  Elec       q    Type
REMARK                         _______ _______ _______ _____ _____    ______ ____
ROOT
ATOM      1  C   UNL     1       2.637   7.189  17.864  0.00  0.00    +0.000 A 
ATOM      2  C   UNL     1       1.927   5.986  17.908  0.00  0.00    +0.000 A 
ATOM      3  C   UNL     1       2.557   4.777  17.592  0.00  0.00    +0.000 A 
ATOM      4  C   UNL     1       3.916   4.774  17.229  0.00  0.00    +0.000 A 
ATOM      5  C   UNL     1       4.822   3.740  16.883  0.00  0.00    +0.000 A 
ATOM      6  C   UNL     1       6.047   4.318  16.652  0.00  0.00    +0.000 A 
ATOM      7  N   UNL     1       5.921   5.676  16.824  0.00  0.00    +0.000 N 
ATOM      8  C   UNL     1       4.622   5.984  17.186  0.00  0.00    +0.000 A 
ATOM      9  C   UNL     1       3.997   7.206  17.499  0.00  0.00    +0.000 A 
ENDROOT
BRANCH   1  10
ATOM     10  C   UNL     1       2.015   8.473  18.283  0.00  0.00    +0.000 C 
ATOM     11  O   UNL     1       1.876   9.431  17.534  0.00  0.00    +0.000 OA
BRANCH  10  12
ATOM     12  O   UNL     1       1.765   8.459  19.613  0.00  0.00    +0.000 OA
BRANCH  12  14
ATOM     13  C   UNL     1       0.332   8.927  21.455  0.00  0.00    +0.000 C 
ATOM     14  C   UNL     1       0.727   9.346  20.049  0.00  0.00    +0.000 C 
ENDBRANCH  12  14
ENDBRANCH  10  12
ENDBRANCH   1  10
BRANCH   7  15
ATOM     15  C   UNL     1       7.037   6.603  16.703  0.00  0.00    +0.000 C 
BRANCH  15  16
ATOM     16  C   UNL     1       7.288   7.459  17.943  0.00  0.00    +0.000 C 
BRANCH  16  17
ATOM     17  C   UNL     1       8.183   8.662  17.678  0.00  0.00    +0.000 C 
BRANCH  17  18
ATOM     18  O   UNL     1       8.853   8.962  18.907  0.00  0.00    +0.000 OA
BRANCH  18  19
ATOM     19  C   UNL     1       9.296  10.246  19.048  0.00  0.00    +0.000 A 
ATOM     20  C   UNL     1       9.199  10.779  20.333  0.00  0.00    +0.000 A 
ATOM     21  C   UNL     1       9.618  12.092  20.605  0.00  0.00    +0.000 A 
ATOM     22  C   UNL     1       9.458  12.630  22.001  0.00  0.00    +0.000 C 
ATOM     23  C   UNL     1      10.168  12.864  19.563  0.00  0.00    +0.000 A 
ATOM     24 CL   UNL     1      10.691  14.484  19.895  0.00  0.00    +0.000 Cl
ATOM     25  C   UNL     1      10.293  12.329  18.268  0.00  0.00    +0.000 A 
ATOM     26  C   UNL     1      10.866  13.069  17.090  0.00  0.00    +0.000 C 
ATOM     27  C   UNL     1       9.854  11.014  18.030  0.00  0.00    +0.000 A 
ENDBRANCH  18  19
ENDBRANCH  17  18
ENDBRANCH  16  17
ENDBRANCH  15  16
ENDBRANCH   7  15
TORSDOF 8
ENDMDL
MODEL 9
REMARK VINA RESULT:      -7.4      5.161      8.544
REMARK  Name = 
REMARK  11 active torsions:
REMARK  status: ('A' for Active; 'I' for Inactive)
REMARK    1  A    between atoms: C_1  and  C_2
REMARK    2  A    between atoms: C_2  and  O_3
REMARK    3  A    between atoms: O_3  and  C_4
REMARK    4  A    between atoms: C_4  and  C_6
REMARK    5  A    between atoms: N_12  and  C_13
REMARK    6  A    between atoms: C_13  and  C_14
REMARK    7  A    between atoms: C_14  and  C_15
REMARK    8  A    between atoms: C_15  and  O_16
REMARK    9  A    between atoms: O_16  and  C_17
REMARK   10  A    between atoms: C_19  and  C_20
REMARK   11  A    between atoms: C_23  and  C_24
REMARK                            x       y       z     vdW  Elec       q    Type
REMARK                         _______ _______ _______ _____ _____    ______ ____
ROOT
ATOM      1  C   UNL     1       5.639   4.939  16.949  0.00  0.00    +0.000 A 
ATOM      2  C   UNL     1       5.239   3.621  16.713  0.00  0.00    +0.000 A 
ATOM      3  C   UNL     1       3.963   3.188  17.088  0.00  0.00    +0.000 A 
ATOM      4  C   UNL     1       3.076   4.088  17.707  0.00  0.00    +0.000 A 
ATOM      5  C   UNL     1       1.742   3.965  18.174  0.00  0.00    +0.000 A 
ATOM      6  C   UNL     1       1.356   5.188  18.663  0.00  0.00    +0.000 A 
ATOM      7  N   UNL     1       2.414   6.057  18.532  0.00  0.00    +0.000 N 
ATOM      8  C   UNL     1       3.483   5.408  17.941  0.00  0.00    +0.000 A 
ATOM      9  C   UNL     1       4.766   5.853  17.570  0.00  0.00    +0.000 A 
ENDROOT
BRANCH   1  10
ATOM     10  C   UNL     1       6.954   5.447  16.477  0.00  0.00    +0.000 C 
ATOM     11  O   UNL     1       7.191   5.723  15.308  0.00  0.00    +0.000 OA
BRANCH  10  12
ATOM     12  O   UNL     1       7.854   5.423  17.487  0.00  0.00    +0.000 OA
BRANCH  12  14
ATOM     13  C   UNL     1       7.897   7.785  17.782  0.00  0.00    +0.000 C 
ATOM     14  C   UNL     1       7.692   6.449  18.475  0.00  0.00    +0.000 C 
ENDBRANCH  12  14
ENDBRANCH  10  12
ENDBRANCH   1  10
BRANCH   7  15
ATOM     15  C   UNL     1       2.345   7.461  18.909  0.00  0.00    +0.000 C 
BRANCH  15  16
ATOM     16  C   UNL     1       2.669   8.438  17.781  0.00  0.00    +0.000 C 
BRANCH  16  17
ATOM     17  C   UNL     1       1.941   9.769  17.903  0.00  0.00    +0.000 C 
BRANCH  17  18
ATOM     18  O   UNL     1       1.000   9.633  18.974  0.00  0.00    +0.000 OA
BRANCH  18  19
ATOM     19  C   UNL     1      -0.227  10.194  18.766  0.00  0.00    +0.000 A 
ATOM     20  C   UNL     1      -0.902   9.762  17.626  0.00  0.00    +0.000 A 
ATOM     21  C   UNL     1      -2.172  10.268  17.301  0.00  0.00    +0.000 A 
ATOM     22  C   UNL     1      -2.841   9.794  16.039  0.00  0.00    +0.000 C 
ATOM     23  C   UNL     1      -2.775  11.207  18.162  0.00  0.00    +0.000 A 
ATOM     24 CL   UNL     1      -4.344  11.832  17.767  0.00  0.00    +0.000 Cl
ATOM     25  C   UNL     1      -2.113  11.633  19.328  0.00  0.00    +0.000 A 
ATOM     26  C   UNL     1      -2.669  12.628  20.309  0.00  0.00    +0.000 C 
ATOM     27  C   UNL     1      -0.839  11.112  19.616  0.00  0.00    +0.000 A 
ENDBRANCH  18  19
ENDBRANCH  17  18
ENDBRANCH  16  17
ENDBRANCH  15  16
ENDBRANCH   7  15
TORSDOF 8
ENDMDL
