MODEL 1
REMARK VINA RESULT:      -8.6      0.000      0.000
REMARK  Name = 
REMARK  2 active torsions:
REMARK  status: ('A' for Active; 'I' for Inactive)
REMARK    1  A    between atoms: C_4  and  O_5
REMARK    2  A    between atoms: C_8  and  C_9
REMARK                            x       y       z     vdW  Elec       q    Type
REMARK                         _______ _______ _______ _____ _____    ______ ____
ROOT
ATOM      1  N   UNL     1       4.071   0.761  18.341  0.00  0.00    +0.000 N 
ATOM      2  C   UNL     1       3.478   1.931  18.723  0.00  0.00    +0.000 A 
ATOM      3  N   UNL     1       2.356   1.863  19.453  0.00  0.00    +0.000 NA
ATOM      4  C   UNL     1       1.836   3.051  19.797  0.00  0.00    +0.000 A 
ATOM      5  C   UNL     1       2.331   4.299  19.480  0.00  0.00    +0.000 A 
ATOM      6  N   UNL     1       1.747   5.474  19.871  0.00  0.00    +0.000 NA
ATOM      7  C   UNL     1       2.328   6.619  19.465  0.00  0.00    +0.000 A 
ATOM      8  C   UNL     1       3.482   6.548  18.700  0.00  0.00    +0.000 A 
ATOM      9  N   UNL     1       4.064   5.382  18.319  0.00  0.00    +0.000 NA
ATOM     10  C   UNL     1       3.493   4.231  18.709  0.00  0.00    +0.000 A 
ATOM     11  N   UNL     1       4.055   3.071  18.343  0.00  0.00    +0.000 NA
ATOM     12  H   UNL     1       3.662  -0.114  18.632  0.00  0.00    +0.000 HD
ATOM     13  H   UNL     1       4.923   0.805  17.812  0.00  0.00    +0.000 HD
ENDROOT
BRANCH   7  14
ATOM     14  C   UNL     1       1.686   7.877  19.870  0.00  0.00    +0.000 A 
ATOM     15  C   UNL     1       1.672   8.992  19.016  0.00  0.00    +0.000 A 
ATOM     16  C   UNL     1       1.046  10.186  19.392  0.00  0.00    +0.000 A 
ATOM     17  C   UNL     1       0.427  10.304  20.642  0.00  0.00    +0.000 A 
ATOM     18  C   UNL     1      -0.202  11.498  21.037  0.00  0.00    +0.000 A 
ATOM     19  C   UNL     1      -0.807  11.602  22.290  0.00  0.00    +0.000 A 
ATOM     20  C   UNL     1      -0.791  10.516  23.162  0.00  0.00    +0.000 A 
ATOM     21  C   UNL     1      -0.172   9.324  22.782  0.00  0.00    +0.000 A 
ATOM     22  C   UNL     1       0.439   9.202  21.525  0.00  0.00    +0.000 A 
ATOM     23  C   UNL     1       1.067   8.008  21.128  0.00  0.00    +0.000 A 
ENDBRANCH   7  14
BRANCH   4  24
ATOM     24  O   UNL     1       0.680   2.976  20.538  0.00  0.00    +0.000 OA
ATOM     25  H   UNL     1       0.753   3.708  21.169  0.00  0.00    +0.000 HD
ENDBRANCH   4  24
TORSDOF 2
ENDMDL
MODEL 2
REMARK VINA RESULT:      -8.3      4.714      7.810
REMARK  Name = 
REMARK  2 active torsions:
REMARK  status: ('A' for Active; 'I' for Inactive)
REMARK    1  A    between atoms: C_4  and  O_5
REMARK    2  A    between atoms: C_8  and  C_9
REMARK                            x       y       z     vdW  Elec       q    Type
REMARK                         _______ _______ _______ _____ _____    ______ ____
ROOT
ATOM      1  N   UNL     1       1.002   2.501  22.576  0.00  0.00    +0.000 N 
ATOM      2  C   UNL     1       1.887   2.737  21.563  0.00  0.00    +0.000 A 
ATOM      3  N   UNL     1       3.082   2.132  21.613  0.00  0.00    +0.000 NA
ATOM      4  C   UNL     1       3.894   2.405  20.580  0.00  0.00    +0.000 A 
ATOM      5  C   UNL     1       3.624   3.226  19.503  0.00  0.00    +0.000 A 
ATOM      6  N   UNL     1       4.504   3.455  18.479  0.00  0.00    +0.000 NA
ATOM      7  C   UNL     1       4.114   4.301  17.507  0.00  0.00    +0.000 A 
ATOM      8  C   UNL     1       2.853   4.871  17.584  0.00  0.00    +0.000 A 
ATOM      9  N   UNL     1       1.979   4.638  18.597  0.00  0.00    +0.000 NA
ATOM     10  C   UNL     1       2.355   3.802  19.578  0.00  0.00    +0.000 A 
ATOM     11  N   UNL     1       1.505   3.559  20.585  0.00  0.00    +0.000 NA
ATOM     12  H   UNL     1       1.263   1.870  23.318  0.00  0.00    +0.000 HD
ATOM     13  H   UNL     1       0.098   2.935  22.534  0.00  0.00    +0.000 HD
ENDROOT
BRANCH   7  14
ATOM     14  C   UNL     1       5.068   4.560  16.421  0.00  0.00    +0.000 A 
ATOM     15  C   UNL     1       6.114   5.484  16.578  0.00  0.00    +0.000 A 
ATOM     16  C   UNL     1       7.035   5.719  15.552  0.00  0.00    +0.000 A 
ATOM     17  C   UNL     1       6.929   5.046  14.328  0.00  0.00    +0.000 A 
ATOM     18  C   UNL     1       7.843   5.275  13.285  0.00  0.00    +0.000 A 
ATOM     19  C   UNL     1       7.716   4.603  12.070  0.00  0.00    +0.000 A 
ATOM     20  C   UNL     1       6.677   3.695  11.881  0.00  0.00    +0.000 A 
ATOM     21  C   UNL     1       5.763   3.456  12.910  0.00  0.00    +0.000 A 
ATOM     22  C   UNL     1       5.877   4.123  14.140  0.00  0.00    +0.000 A 
ATOM     23  C   UNL     1       4.965   3.893  15.185  0.00  0.00    +0.000 A 
ENDBRANCH   7  14
BRANCH   4  24
ATOM     24  O   UNL     1       5.121   1.789  20.639  0.00  0.00    +0.000 OA
ATOM     25  H   UNL     1       4.961   0.901  20.284  0.00  0.00    +0.000 HD
ENDBRANCH   4  24
TORSDOF 2
ENDMDL
MODEL 3
REMARK VINA RESULT:      -8.1      4.848      7.853
REMARK  Name = 
REMARK  2 active torsions:
REMARK  status: ('A' for Active; 'I' for Inactive)
REMARK    1  A    between atoms: C_4  and  O_5
REMARK    2  A    between atoms: C_8  and  C_9
REMARK                            x       y       z     vdW  Elec       q    Type
REMARK                         _______ _______ _______ _____ _____    ______ ____
ROOT
ATOM      1  N   UNL     1       0.966   2.637  22.251  0.00  0.00    +0.000 N 
ATOM      2  C   UNL     1       1.674   2.834  21.099  0.00  0.00    +0.000 A 
ATOM      3  N   UNL     1       1.341   2.113  20.020  0.00  0.00    +0.000 NA
ATOM      4  C   UNL     1       2.075   2.366  18.926  0.00  0.00    +0.000 A 
ATOM      5  C   UNL     1       3.110   3.272  18.809  0.00  0.00    +0.000 A 
ATOM      6  N   UNL     1       3.814   3.481  17.654  0.00  0.00    +0.000 NA
ATOM      7  C   UNL     1       4.817   4.378  17.695  0.00  0.00    +0.000 A 
ATOM      8  C   UNL     1       5.066   5.048  18.883  0.00  0.00    +0.000 A 
ATOM      9  N   UNL     1       4.362   4.845  20.026  0.00  0.00    +0.000 NA
ATOM     10  C   UNL     1       3.363   3.947  20.004  0.00  0.00    +0.000 A 
ATOM     11  N   UNL     1       2.658   3.734  21.123  0.00  0.00    +0.000 NA
ATOM     12  H   UNL     1       0.207   1.974  22.252  0.00  0.00    +0.000 HD
ATOM     13  H   UNL     1       1.197   3.189  23.057  0.00  0.00    +0.000 HD
ENDROOT
BRANCH   7  14
ATOM     14  C   UNL     1       5.583   4.585  16.459  0.00  0.00    +0.000 A 
ATOM     15  C   UNL     1       6.662   5.483  16.414  0.00  0.00    +0.000 A 
ATOM     16  C   UNL     1       7.405   5.668  15.243  0.00  0.00    +0.000 A 
ATOM     17  C   UNL     1       7.080   4.970  14.074  0.00  0.00    +0.000 A 
ATOM     18  C   UNL     1       7.812   5.149  12.887  0.00  0.00    +0.000 A 
ATOM     19  C   UNL     1       7.470   4.452  11.729  0.00  0.00    +0.000 A 
ATOM     20  C   UNL     1       6.392   3.569  11.741  0.00  0.00    +0.000 A 
ATOM     21  C   UNL     1       5.657   3.381  12.913  0.00  0.00    +0.000 A 
ATOM     22  C   UNL     1       5.990   4.072  14.087  0.00  0.00    +0.000 A 
ATOM     23  C   UNL     1       5.259   3.893  15.275  0.00  0.00    +0.000 A 
ENDBRANCH   7  14
BRANCH   4  24
ATOM     24  O   UNL     1       1.734   1.618  17.824  0.00  0.00    +0.000 OA
ATOM     25  H   UNL     1       2.431   0.948  17.765  0.00  0.00    +0.000 HD
ENDBRANCH   4  24
TORSDOF 2
ENDMDL
MODEL 4
REMARK VINA RESULT:      -8.0      3.702      7.643
REMARK  Name = 
REMARK  2 active torsions:
REMARK  status: ('A' for Active; 'I' for Inactive)
REMARK    1  A    between atoms: C_4  and  O_5
REMARK    2  A    between atoms: C_8  and  C_9
REMARK                            x       y       z     vdW  Elec       q    Type
REMARK                         _______ _______ _______ _____ _____    ______ ____
ROOT
ATOM      1  N   UNL     1      -1.314  13.648  22.532  0.00  0.00    +0.000 N 
ATOM      2  C   UNL     1      -0.769  12.429  22.246  0.00  0.00    +0.000 A 
ATOM      3  N   UNL     1      -0.745  11.504  23.215  0.00  0.00    +0.000 NA
ATOM      4  C   UNL     1      -0.202  10.330  22.859  0.00  0.00    +0.000 A 
ATOM      5  C   UNL     1       0.320   9.995  21.626  0.00  0.00    +0.000 A 
ATOM      6  N   UNL     1       0.857   8.770  21.332  0.00  0.00    +0.000 NA
ATOM      7  C   UNL     1       1.354   8.594  20.093  0.00  0.00    +0.000 A 
ATOM      8  C   UNL     1       1.278   9.641  19.187  0.00  0.00    +0.000 A 
ATOM      9  N   UNL     1       0.739  10.853  19.478  0.00  0.00    +0.000 NA
ATOM     10  C   UNL     1       0.246  11.047  20.712  0.00  0.00    +0.000 A 
ATOM     11  N   UNL     1      -0.290  12.237  21.016  0.00  0.00    +0.000 NA
ATOM     12  H   UNL     1      -1.698  13.811  23.450  0.00  0.00    +0.000 HD
ATOM     13  H   UNL     1      -1.354  14.339  21.804  0.00  0.00    +0.000 HD
ENDROOT
BRANCH   7  14
ATOM     14  C   UNL     1       1.947   7.285  19.787  0.00  0.00    +0.000 A 
ATOM     15  C   UNL     1       2.694   7.082  18.616  0.00  0.00    +0.000 A 
ATOM     16  C   UNL     1       3.275   5.841  18.332  0.00  0.00    +0.000 A 
ATOM     17  C   UNL     1       3.114   4.760  19.206  0.00  0.00    +0.000 A 
ATOM     18  C   UNL     1       3.686   3.505  18.933  0.00  0.00    +0.000 A 
ATOM     19  C   UNL     1       3.508   2.437  19.811  0.00  0.00    +0.000 A 
ATOM     20  C   UNL     1       2.757   2.607  20.971  0.00  0.00    +0.000 A 
ATOM     21  C   UNL     1       2.184   3.848  21.256  0.00  0.00    +0.000 A 
ATOM     22  C   UNL     1       2.355   4.934  20.384  0.00  0.00    +0.000 A 
ATOM     23  C   UNL     1       1.784   6.190  20.658  0.00  0.00    +0.000 A 
ENDBRANCH   7  14
BRANCH   4  24
ATOM     24  O   UNL     1      -0.173   9.386  23.858  0.00  0.00    +0.000 OA
ATOM     25  H   UNL     1      -0.903   9.637  24.445  0.00  0.00    +0.000 HD
ENDBRANCH   4  24
TORSDOF 2
ENDMDL
MODEL 5
REMARK VINA RESULT:      -8.0      1.201      1.367
REMARK  Name = 
REMARK  2 active torsions:
REMARK  status: ('A' for Active; 'I' for Inactive)
REMARK    1  A    between atoms: C_4  and  O_5
REMARK    2  A    between atoms: C_8  and  C_9
REMARK                            x       y       z     vdW  Elec       q    Type
REMARK                         _______ _______ _______ _____ _____    ______ ____
ROOT
ATOM      1  N   UNL     1       5.214   1.013  20.145  0.00  0.00    +0.000 N 
ATOM      2  C   UNL     1       4.483   2.167  20.127  0.00  0.00    +0.000 A 
ATOM      3  N   UNL     1       3.390   2.236  20.899  0.00  0.00    +0.000 NA
ATOM      4  C   UNL     1       2.729   3.402  20.834  0.00  0.00    +0.000 A 
ATOM      5  C   UNL     1       3.058   4.504  20.071  0.00  0.00    +0.000 A 
ATOM      6  N   UNL     1       2.335   5.667  20.059  0.00  0.00    +0.000 NA
ATOM      7  C   UNL     1       2.761   6.650  19.243  0.00  0.00    +0.000 A 
ATOM      8  C   UNL     1       3.903   6.444  18.485  0.00  0.00    +0.000 A 
ATOM      9  N   UNL     1       4.622   5.292  18.503  0.00  0.00    +0.000 NA
ATOM     10  C   UNL     1       4.207   4.298  19.306  0.00  0.00    +0.000 A 
ATOM     11  N   UNL     1       4.906   3.155  19.337  0.00  0.00    +0.000 NA
ATOM     12  H   UNL     1       4.924   0.259  20.748  0.00  0.00    +0.000 HD
ATOM     13  H   UNL     1       6.045   0.962  19.585  0.00  0.00    +0.000 HD
ENDROOT
BRANCH   7  14
ATOM     14  C   UNL     1       1.971   7.889  19.218  0.00  0.00    +0.000 A 
ATOM     15  C   UNL     1       1.784   8.607  18.026  0.00  0.00    +0.000 A 
ATOM     16  C   UNL     1       1.018   9.777  17.995  0.00  0.00    +0.000 A 
ATOM     17  C   UNL     1       0.426  10.274  19.163  0.00  0.00    +0.000 A 
ATOM     18  C   UNL     1      -0.343  11.451  19.151  0.00  0.00    +0.000 A 
ATOM     19  C   UNL     1      -0.918  11.935  20.325  0.00  0.00    +0.000 A 
ATOM     20  C   UNL     1      -0.734  11.252  21.524  0.00  0.00    +0.000 A 
ATOM     21  C   UNL     1       0.026  10.081  21.551  0.00  0.00    +0.000 A 
ATOM     22  C   UNL     1       0.610   9.578  20.378  0.00  0.00    +0.000 A 
ATOM     23  C   UNL     1       1.377   8.400  20.389  0.00  0.00    +0.000 A 
ENDBRANCH   7  14
BRANCH   4  24
ATOM     24  O   UNL     1       1.604   3.466  21.622  0.00  0.00    +0.000 OA
ATOM     25  H   UNL     1       1.855   4.054  22.349  0.00  0.00    +0.000 HD
ENDBRANCH   4  24
TORSDOF 2
ENDMDL
MODEL 6
REMARK VINA RESULT:      -7.9      4.255      7.977
REMARK  Name = 
REMARK  2 active torsions:
REMARK  status: ('A' for Active; 'I' for Inactive)
REMARK    1  A    between atoms: C_4  and  O_5
REMARK    2  A    between atoms: C_8  and  C_9
REMARK                            x       y       z     vdW  Elec       q    Type
REMARK                         _______ _______ _______ _____ _____    ______ ____
ROOT
ATOM      1  N   UNL     1       0.857   2.504  22.393  0.00  0.00    +0.000 N 
ATOM      2  C   UNL     1       1.657   2.979  21.393  0.00  0.00    +0.000 A 
ATOM      3  N   UNL     1       1.979   4.280  21.405  0.00  0.00    +0.000 NA
ATOM      4  C   UNL     1       2.773   4.671  20.396  0.00  0.00    +0.000 A 
ATOM      5  C   UNL     1       3.274   3.886  19.378  0.00  0.00    +0.000 A 
ATOM      6  N   UNL     1       4.086   4.356  18.380  0.00  0.00    +0.000 NA
ATOM      7  C   UNL     1       4.477   3.478  17.437  0.00  0.00    +0.000 A 
ATOM      8  C   UNL     1       4.059   2.160  17.536  0.00  0.00    +0.000 A 
ATOM      9  N   UNL     1       3.259   1.694  18.529  0.00  0.00    +0.000 NA
ATOM     10  C   UNL     1       2.854   2.558  19.474  0.00  0.00    +0.000 A 
ATOM     11  N   UNL     1       2.065   2.115  20.463  0.00  0.00    +0.000 NA
ATOM     12  H   UNL     1       0.549   3.136  23.117  0.00  0.00    +0.000 HD
ATOM     13  H   UNL     1       0.628   1.527  22.401  0.00  0.00    +0.000 HD
ENDROOT
BRANCH   7  14
ATOM     14  C   UNL     1       5.331   3.990  16.357  0.00  0.00    +0.000 A 
ATOM     15  C   UNL     1       6.255   5.022  16.590  0.00  0.00    +0.000 A 
ATOM     16  C   UNL     1       7.083   5.499  15.568  0.00  0.00    +0.000 A 
ATOM     17  C   UNL     1       7.000   4.968  14.275  0.00  0.00    +0.000 A 
ATOM     18  C   UNL     1       7.821   5.441  13.236  0.00  0.00    +0.000 A 
ATOM     19  C   UNL     1       7.719   4.906  11.952  0.00  0.00    +0.000 A 
ATOM     20  C   UNL     1       6.798   3.895  11.690  0.00  0.00    +0.000 A 
ATOM     21  C   UNL     1       5.978   3.415  12.713  0.00  0.00    +0.000 A 
ATOM     22  C   UNL     1       6.069   3.940  14.011  0.00  0.00    +0.000 A 
ATOM     23  C   UNL     1       5.250   3.467  15.052  0.00  0.00    +0.000 A 
ENDBRANCH   7  14
BRANCH   4  24
ATOM     24  O   UNL     1       3.096   6.008  20.408  0.00  0.00    +0.000 OA
ATOM     25  H   UNL     1       3.834   6.070  21.033  0.00  0.00    +0.000 HD
ENDBRANCH   4  24
TORSDOF 2
ENDMDL
MODEL 7
REMARK VINA RESULT:      -7.8      2.568      3.266
REMARK  Name = 
REMARK  2 active torsions:
REMARK  status: ('A' for Active; 'I' for Inactive)
REMARK    1  A    between atoms: C_4  and  O_5
REMARK    2  A    between atoms: C_8  and  C_9
REMARK                            x       y       z     vdW  Elec       q    Type
REMARK                         _______ _______ _______ _____ _____    ______ ____
ROOT
ATOM      1  N   UNL     1       6.714   3.319  15.477  0.00  0.00    +0.000 N 
ATOM      2  C   UNL     1       6.023   4.329  16.085  0.00  0.00    +0.000 A 
ATOM      3  N   UNL     1       6.606   5.532  16.169  0.00  0.00    +0.000 NA
ATOM      4  C   UNL     1       5.865   6.475  16.771  0.00  0.00    +0.000 A 
ATOM      5  C   UNL     1       4.598   6.328  17.297  0.00  0.00    +0.000 A 
ATOM      6  N   UNL     1       3.897   7.340  17.895  0.00  0.00    +0.000 NA
ATOM      7  C   UNL     1       2.680   7.043  18.387  0.00  0.00    +0.000 A 
ATOM      8  C   UNL     1       2.198   5.751  18.245  0.00  0.00    +0.000 A 
ATOM      9  N   UNL     1       2.892   4.749  17.645  0.00  0.00    +0.000 NA
ATOM     10  C   UNL     1       4.111   5.027  17.155  0.00  0.00    +0.000 A 
ATOM     11  N   UNL     1       4.809   4.051  16.559  0.00  0.00    +0.000 NA
ATOM     12  H   UNL     1       7.627   3.510  15.095  0.00  0.00    +0.000 HD
ATOM     13  H   UNL     1       6.275   2.420  15.392  0.00  0.00    +0.000 HD
ENDROOT
BRANCH   7  14
ATOM     14  C   UNL     1       1.940   8.127  19.047  0.00  0.00    +0.000 A 
ATOM     15  C   UNL     1       1.607   9.304  18.356  0.00  0.00    +0.000 A 
ATOM     16  C   UNL     1       0.887  10.331  18.977  0.00  0.00    +0.000 A 
ATOM     17  C   UNL     1       0.490  10.217  20.315  0.00  0.00    +0.000 A 
ATOM     18  C   UNL     1      -0.230  11.242  20.955  0.00  0.00    +0.000 A 
ATOM     19  C   UNL     1      -0.610  11.115  22.290  0.00  0.00    +0.000 A 
ATOM     20  C   UNL     1      -0.276   9.966  23.003  0.00  0.00    +0.000 A 
ATOM     21  C   UNL     1       0.436   8.940  22.380  0.00  0.00    +0.000 A 
ATOM     22  C   UNL     1       0.824   9.050  21.036  0.00  0.00    +0.000 A 
ATOM     23  C   UNL     1       1.542   8.025  20.394  0.00  0.00    +0.000 A 
ENDBRANCH   7  14
BRANCH   4  24
ATOM     24  O   UNL     1       6.471   7.706  16.862  0.00  0.00    +0.000 OA
ATOM     25  H   UNL     1       5.748   8.338  16.730  0.00  0.00    +0.000 HD
ENDBRANCH   4  24
TORSDOF 2
ENDMDL
MODEL 8
REMARK VINA RESULT:      -7.8      0.636      1.772
REMARK  Name = 
REMARK  2 active torsions:
REMARK  status: ('A' for Active; 'I' for Inactive)
REMARK    1  A    between atoms: C_4  and  O_5
REMARK    2  A    between atoms: C_8  and  C_9
REMARK                            x       y       z     vdW  Elec       q    Type
REMARK                         _______ _______ _______ _____ _____    ______ ____
ROOT
ATOM      1  N   UNL     1       3.979   0.851  18.288  0.00  0.00    +0.000 N 
ATOM      2  C   UNL     1       3.413   2.013  18.730  0.00  0.00    +0.000 A 
ATOM      3  N   UNL     1       2.354   1.930  19.547  0.00  0.00    +0.000 NA
ATOM      4  C   UNL     1       1.857   3.111  19.946  0.00  0.00    +0.000 A 
ATOM      5  C   UNL     1       2.320   4.366  19.605  0.00  0.00    +0.000 A 
ATOM      6  N   UNL     1       1.763   5.533  20.056  0.00  0.00    +0.000 NA
ATOM      7  C   UNL     1       2.304   6.685  19.618  0.00  0.00    +0.000 A 
ATOM      8  C   UNL     1       3.393   6.630  18.762  0.00  0.00    +0.000 A 
ATOM      9  N   UNL     1       3.948   5.472  18.321  0.00  0.00    +0.000 NA
ATOM     10  C   UNL     1       3.416   4.313  18.743  0.00  0.00    +0.000 A 
ATOM     11  N   UNL     1       3.952   3.161  18.318  0.00  0.00    +0.000 NA
ATOM     12  H   UNL     1       3.599  -0.029  18.600  0.00  0.00    +0.000 HD
ATOM     13  H   UNL     1       4.785   0.906  17.692  0.00  0.00    +0.000 HD
ENDROOT
BRANCH   7  14
ATOM     14  C   UNL     1       1.691   7.935  20.088  0.00  0.00    +0.000 A 
ATOM     15  C   UNL     1       1.340   8.109  21.437  0.00  0.00    +0.000 A 
ATOM     16  C   UNL     1       0.773   9.305  21.890  0.00  0.00    +0.000 A 
ATOM     17  C   UNL     1       0.525  10.360  21.003  0.00  0.00    +0.000 A 
ATOM     18  C   UNL     1      -0.050  11.566  21.442  0.00  0.00    +0.000 A 
ATOM     19  C   UNL     1      -0.298  12.603  20.544  0.00  0.00    +0.000 A 
ATOM     20  C   UNL     1       0.024  12.449  19.197  0.00  0.00    +0.000 A 
ATOM     21  C   UNL     1       0.597  11.257  18.748  0.00  0.00    +0.000 A 
ATOM     22  C   UNL     1       0.855  10.205  19.640  0.00  0.00    +0.000 A 
ATOM     23  C   UNL     1       1.431   8.999  19.202  0.00  0.00    +0.000 A 
ENDBRANCH   7  14
BRANCH   4  24
ATOM     24  O   UNL     1       0.766   3.021  20.777  0.00  0.00    +0.000 OA
ATOM     25  H   UNL     1       0.563   3.940  21.006  0.00  0.00    +0.000 HD
ENDBRANCH   4  24
TORSDOF 2
ENDMDL
MODEL 9
REMARK VINA RESULT:      -7.8      1.550      2.447
REMARK  Name = 
REMARK  2 active torsions:
REMARK  status: ('A' for Active; 'I' for Inactive)
REMARK    1  A    between atoms: C_4  and  O_5
REMARK    2  A    between atoms: C_8  and  C_9
REMARK                            x       y       z     vdW  Elec       q    Type
REMARK                         _______ _______ _______ _____ _____    ______ ____
ROOT
ATOM      1  N   UNL     1       5.429   3.543  16.613  0.00  0.00    +0.000 N 
ATOM      2  C   UNL     1       4.657   4.306  17.441  0.00  0.00    +0.000 A 
ATOM      3  N   UNL     1       4.248   3.769  18.599  0.00  0.00    +0.000 NA
ATOM      4  C   UNL     1       3.501   4.581  19.362  0.00  0.00    +0.000 A 
ATOM      5  C   UNL     1       3.123   5.878  19.077  0.00  0.00    +0.000 A 
ATOM      6  N   UNL     1       2.360   6.651  19.911  0.00  0.00    +0.000 NA
ATOM      7  C   UNL     1       2.047   7.890  19.489  0.00  0.00    +0.000 A 
ATOM      8  C   UNL     1       2.524   8.319  18.260  0.00  0.00    +0.000 A 
ATOM      9  N   UNL     1       3.287   7.554  17.438  0.00  0.00    +0.000 NA
ATOM     10  C   UNL     1       3.602   6.312  17.841  0.00  0.00    +0.000 A 
ATOM     11  N   UNL     1       4.355   5.543  17.042  0.00  0.00    +0.000 NA
ATOM     12  H   UNL     1       5.684   2.611  16.901  0.00  0.00    +0.000 HD
ATOM     13  H   UNL     1       5.755   3.946  15.754  0.00  0.00    +0.000 HD
ENDROOT
BRANCH   7  14
ATOM     14  C   UNL     1       1.210   8.709  20.376  0.00  0.00    +0.000 A 
ATOM     15  C   UNL     1       1.190   8.489  21.763  0.00  0.00    +0.000 A 
ATOM     16  C   UNL     1       0.409   9.279  22.613  0.00  0.00    +0.000 A 
ATOM     17  C   UNL     1      -0.391  10.307  22.097  0.00  0.00    +0.000 A 
ATOM     18  C   UNL     1      -1.186  11.106  22.937  0.00  0.00    +0.000 A 
ATOM     19  C   UNL     1      -1.983  12.120  22.406  0.00  0.00    +0.000 A 
ATOM     20  C   UNL     1      -1.995  12.348  21.032  0.00  0.00    +0.000 A 
ATOM     21  C   UNL     1      -1.209  11.563  20.187  0.00  0.00    +0.000 A 
ATOM     22  C   UNL     1      -0.400  10.540  20.705  0.00  0.00    +0.000 A 
ATOM     23  C   UNL     1       0.398   9.741  19.867  0.00  0.00    +0.000 A 
ENDBRANCH   7  14
BRANCH   4  24
ATOM     24  O   UNL     1       3.078   4.023  20.546  0.00  0.00    +0.000 OA
ATOM     25  H   UNL     1       2.405   4.639  20.873  0.00  0.00    +0.000 HD
ENDBRANCH   4  24
TORSDOF 2
ENDMDL
