MODEL 1
REMARK VINA RESULT:      -6.7      0.000      0.000
REMARK  Name = 
REMARK  14 active torsions:
REMARK  status: ('A' for Active; 'I' for Inactive)
REMARK    1  A    between atoms: C_2  and  O_3
REMARK    2  A    between atoms: C_2  and  C_4
REMARK    3  A    between atoms: C_4  and  O_5
REMARK    4  A    between atoms: O_5  and  C_6
REMARK    5  A    between atoms: C_9  and  O_10
REMARK    6  A    between atoms: O_10  and  C_11
REMARK    7  A    between atoms: C_11  and  C_12
REMARK    8  A    between atoms: C_12  and  N_13
REMARK    9  A    between atoms: N_13  and  C_14
REMARK   10  A    between atoms: C_14  and  C_15
REMARK   11  A    between atoms: C_15  and  O_16
REMARK   12  A    between atoms: C_15  and  C_17
REMARK   13  A    between atoms: C_17  and  O_18
REMARK   14  A    between atoms: O_18  and  C_19
REMARK                            x       y       z     vdW  Elec       q    Type
REMARK                         _______ _______ _______ _____ _____    ______ ____
ROOT
ATOM      1  C   UNL     1       2.436   3.758  21.279  0.00  0.00    +0.000 C 
ENDROOT
BRANCH   1   2
ATOM      2  N   UNL     1       2.271   2.601  20.391  0.00  0.00    +0.000 NA
ATOM      3  H   UNL     1       1.393   2.769  19.849  0.00  0.00    +0.000 HD
BRANCH   2   4
ATOM      4  C   UNL     1       3.377   2.479  19.435  0.00  0.00    +0.000 C 
BRANCH   4   5
ATOM      5  C   UNL     1       2.944   2.961  18.029  0.00  0.00    +0.000 C 
BRANCH   5   6
ATOM      6  O   UNL     1       2.280   1.926  17.349  0.00  0.00    +0.000 OA
ATOM      7  H   UNL     1       1.373   1.841  17.746  0.00  0.00    +0.000 HD
ENDBRANCH   5   6
BRANCH   5   8
ATOM      8  C   UNL     1       4.116   3.487  17.174  0.00  0.00    +0.000 C 
BRANCH   8   9
ATOM      9  O   UNL     1       4.268   4.850  17.351  0.00  0.00    +0.000 OA
BRANCH   9  10
ATOM     10  C   UNL     1       5.429   5.465  17.704  0.00  0.00    +0.000 A 
ATOM     11  C   UNL     1       6.238   5.007  18.768  0.00  0.00    +0.000 A 
ATOM     12  C   UNL     1       7.422   5.676  19.092  0.00  0.00    +0.000 A 
ATOM     13  C   UNL     1       7.812   6.803  18.368  0.00  0.00    +0.000 A 
ATOM     14  C   UNL     1       7.017   7.264  17.315  0.00  0.00    +0.000 A 
ATOM     15  C   UNL     1       5.833   6.598  16.984  0.00  0.00    +0.000 A 
ENDBRANCH   9  10
ENDBRANCH   8   9
ENDBRANCH   5   8
ENDBRANCH   4   5
ENDBRANCH   2   4
ENDBRANCH   1   2
BRANCH   1  16
ATOM     16  C   UNL     1       1.649   4.931  20.698  0.00  0.00    +0.000 C 
BRANCH  16  17
ATOM     17  O   UNL     1       2.498   5.842  20.103  0.00  0.00    +0.000 OA
BRANCH  17  21
ATOM     18  C   UNL     1       1.256   9.665  18.968  0.00  0.00    +0.000 A 
ATOM     19  C   UNL     1       1.005   9.211  20.266  0.00  0.00    +0.000 A 
ATOM     20  C   UNL     1       1.441   7.953  20.677  0.00  0.00    +0.000 A 
ATOM     21  C   UNL     1       2.130   7.110  19.777  0.00  0.00    +0.000 A 
ATOM     22  C   UNL     1       2.402   7.570  18.487  0.00  0.00    +0.000 A 
ATOM     23  C   UNL     1       1.971   8.836  18.079  0.00  0.00    +0.000 A 
BRANCH  18  24
ATOM     24  O   UNL     1       0.780  10.886  18.616  0.00  0.00    +0.000 OA
BRANCH  24  25
ATOM     25  C   UNL     1      -0.372  11.473  19.098  0.00  0.00    +0.000 C 
BRANCH  25  27
ATOM     26  O   UNL     1      -0.349  13.734  18.429  0.00  0.00    +0.000 OA
ATOM     27  C   UNL     1      -0.768  12.610  18.201  0.00  0.00    +0.000 C 
BRANCH  27  28
ATOM     28  O   UNL     1      -1.574  12.406  17.139  0.00  0.00    +0.000 OA
ATOM     29  H   UNL     1      -2.536  12.376  17.231  0.00  0.00    +0.000 HD
ENDBRANCH  27  28
ENDBRANCH  25  27
ENDBRANCH  24  25
ENDBRANCH  18  24
ENDBRANCH  17  21
ENDBRANCH  16  17
ENDBRANCH   1  16
TORSDOF 14
ENDMDL
MODEL 2
REMARK VINA RESULT:      -6.7      2.959      6.225
REMARK  Name = 
REMARK  14 active torsions:
REMARK  status: ('A' for Active; 'I' for Inactive)
REMARK    1  A    between atoms: C_2  and  O_3
REMARK    2  A    between atoms: C_2  and  C_4
REMARK    3  A    between atoms: C_4  and  O_5
REMARK    4  A    between atoms: O_5  and  C_6
REMARK    5  A    between atoms: C_9  and  O_10
REMARK    6  A    between atoms: O_10  and  C_11
REMARK    7  A    between atoms: C_11  and  C_12
REMARK    8  A    between atoms: C_12  and  N_13
REMARK    9  A    between atoms: N_13  and  C_14
REMARK   10  A    between atoms: C_14  and  C_15
REMARK   11  A    between atoms: C_15  and  O_16
REMARK   12  A    between atoms: C_15  and  C_17
REMARK   13  A    between atoms: C_17  and  O_18
REMARK   14  A    between atoms: O_18  and  C_19
REMARK                            x       y       z     vdW  Elec       q    Type
REMARK                         _______ _______ _______ _____ _____    ______ ____
ROOT
ATOM      1  C   UNL     1       2.676   3.227  17.680  0.00  0.00    +0.000 C 
ENDROOT
BRANCH   1   2
ATOM      2  N   UNL     1       2.820   2.201  18.718  0.00  0.00    +0.000 NA
ATOM      3  H   UNL     1       3.802   2.273  19.070  0.00  0.00    +0.000 HD
BRANCH   2   4
ATOM      4  C   UNL     1       1.916   2.430  19.850  0.00  0.00    +0.000 C 
BRANCH   4   5
ATOM      5  C   UNL     1       2.534   3.434  20.854  0.00  0.00    +0.000 C 
BRANCH   5   6
ATOM      6  O   UNL     1       2.481   2.907  22.155  0.00  0.00    +0.000 OA
ATOM      7  H   UNL     1       1.528   2.726  22.366  0.00  0.00    +0.000 HD
ENDBRANCH   5   6
BRANCH   5   8
ATOM      8  C   UNL     1       1.865   4.825  20.820  0.00  0.00    +0.000 C 
BRANCH   8   9
ATOM      9  O   UNL     1       2.703   5.747  20.221  0.00  0.00    +0.000 OA
BRANCH   9  10
ATOM     10  C   UNL     1       2.298   6.918  19.660  0.00  0.00    +0.000 A 
ATOM     11  C   UNL     1       2.527   7.229  18.302  0.00  0.00    +0.000 A 
ATOM     12  C   UNL     1       2.092   8.448  17.773  0.00  0.00    +0.000 A 
ATOM     13  C   UNL     1       1.430   9.368  18.586  0.00  0.00    +0.000 A 
ATOM     14  C   UNL     1       1.200   9.071  19.933  0.00  0.00    +0.000 A 
ATOM     15  C   UNL     1       1.631   7.852  20.466  0.00  0.00    +0.000 A 
ENDBRANCH   9  10
ENDBRANCH   8   9
ENDBRANCH   5   8
ENDBRANCH   4   5
ENDBRANCH   2   4
ENDBRANCH   1   2
BRANCH   1  16
ATOM     16  C   UNL     1       4.062   3.559  17.130  0.00  0.00    +0.000 C 
BRANCH  16  17
ATOM     17  O   UNL     1       4.930   3.883  18.153  0.00  0.00    +0.000 OA
BRANCH  17  21
ATOM     18  C   UNL     1       7.549   7.135  18.064  0.00  0.00    +0.000 A 
ATOM     19  C   UNL     1       6.495   7.068  17.147  0.00  0.00    +0.000 A 
ATOM     20  C   UNL     1       5.589   6.010  17.180  0.00  0.00    +0.000 A 
ATOM     21  C   UNL     1       5.735   4.979  18.136  0.00  0.00    +0.000 A 
ATOM     22  C   UNL     1       6.772   5.056  19.067  0.00  0.00    +0.000 A 
ATOM     23  C   UNL     1       7.676   6.122  19.036  0.00  0.00    +0.000 A 
BRANCH  18  24
ATOM     24  O   UNL     1       8.418   8.173  17.962  0.00  0.00    +0.000 OA
BRANCH  24  25
ATOM     25  C   UNL     1       8.074   9.504  17.835  0.00  0.00    +0.000 C 
BRANCH  25  27
ATOM     26  O   UNL     1       9.437  10.094  19.666  0.00  0.00    +0.000 OA
ATOM     27  C   UNL     1       9.104  10.354  18.520  0.00  0.00    +0.000 C 
BRANCH  27  28
ATOM     28  O   UNL     1       9.674  11.399  17.886  0.00  0.00    +0.000 OA
ATOM     29  H   UNL     1       9.309  11.753  17.063  0.00  0.00    +0.000 HD
ENDBRANCH  27  28
ENDBRANCH  25  27
ENDBRANCH  24  25
ENDBRANCH  18  24
ENDBRANCH  17  21
ENDBRANCH  16  17
ENDBRANCH   1  16
TORSDOF 14
ENDMDL
MODEL 3
REMARK VINA RESULT:      -6.6      2.794      4.769
REMARK  Name = 
REMARK  14 active torsions:
REMARK  status: ('A' for Active; 'I' for Inactive)
REMARK    1  A    between atoms: C_2  and  O_3
REMARK    2  A    between atoms: C_2  and  C_4
REMARK    3  A    between atoms: C_4  and  O_5
REMARK    4  A    between atoms: O_5  and  C_6
REMARK    5  A    between atoms: C_9  and  O_10
REMARK    6  A    between atoms: O_10  and  C_11
REMARK    7  A    between atoms: C_11  and  C_12
REMARK    8  A    between atoms: C_12  and  N_13
REMARK    9  A    between atoms: N_13  and  C_14
REMARK   10  A    between atoms: C_14  and  C_15
REMARK   11  A    between atoms: C_15  and  O_16
REMARK   12  A    between atoms: C_15  and  C_17
REMARK   13  A    between atoms: C_17  and  O_18
REMARK   14  A    between atoms: O_18  and  C_19
REMARK                            x       y       z     vdW  Elec       q    Type
REMARK                         _______ _______ _______ _____ _____    ______ ____
ROOT
ATOM      1  C   UNL     1       5.596   5.775  16.294  0.00  0.00    +0.000 C 
ENDROOT
BRANCH   1   2
ATOM      2  N   UNL     1       6.985   6.238  16.374  0.00  0.00    +0.000 NA
ATOM      3  H   UNL     1       7.046   7.094  15.778  0.00  0.00    +0.000 HD
BRANCH   2   4
ATOM      4  C   UNL     1       7.364   6.611  17.742  0.00  0.00    +0.000 C 
BRANCH   4   5
ATOM      5  C   UNL     1       7.355   5.374  18.673  0.00  0.00    +0.000 C 
BRANCH   5   6
ATOM      6  O   UNL     1       7.816   4.245  17.975  0.00  0.00    +0.000 OA
ATOM      7  H   UNL     1       8.625   4.516  17.468  0.00  0.00    +0.000 HD
ENDBRANCH   5   6
BRANCH   5   8
ATOM      8  C   UNL     1       5.972   5.084  19.293  0.00  0.00    +0.000 C 
BRANCH   8   9
ATOM      9  O   UNL     1       5.621   3.762  19.092  0.00  0.00    +0.000 OA
BRANCH   9  10
ATOM     10  C   UNL     1       4.345   3.300  19.001  0.00  0.00    +0.000 A 
ATOM     11  C   UNL     1       3.541   3.062  20.137  0.00  0.00    +0.000 A 
ATOM     12  C   UNL     1       2.235   2.585  19.991  0.00  0.00    +0.000 A 
ATOM     13  C   UNL     1       1.718   2.337  18.719  0.00  0.00    +0.000 A 
ATOM     14  C   UNL     1       2.507   2.568  17.588  0.00  0.00    +0.000 A 
ATOM     15  C   UNL     1       3.813   3.047  17.729  0.00  0.00    +0.000 A 
ENDBRANCH   9  10
ENDBRANCH   8   9
ENDBRANCH   5   8
ENDBRANCH   4   5
ENDBRANCH   2   4
ENDBRANCH   1   2
BRANCH   1  16
ATOM     16  C   UNL     1       4.674   6.954  16.603  0.00  0.00    +0.000 C 
BRANCH  16  17
ATOM     17  O   UNL     1       3.466   6.511  17.104  0.00  0.00    +0.000 OA
BRANCH  17  21
ATOM     18  C   UNL     1       1.522   8.492  20.225  0.00  0.00    +0.000 A 
ATOM     19  C   UNL     1       1.548   9.064  18.950  0.00  0.00    +0.000 A 
ATOM     20  C   UNL     1       2.162   8.405  17.886  0.00  0.00    +0.000 A 
ATOM     21  C   UNL     1       2.781   7.152  18.089  0.00  0.00    +0.000 A 
ATOM     22  C   UNL     1       2.736   6.567  19.356  0.00  0.00    +0.000 A 
ATOM     23  C   UNL     1       2.114   7.227  20.420  0.00  0.00    +0.000 A 
BRANCH  18  24
ATOM     24  O   UNL     1       0.938   9.195  21.228  0.00  0.00    +0.000 OA
BRANCH  24  25
ATOM     25  C   UNL     1      -0.313   8.956  21.760  0.00  0.00    +0.000 C 
BRANCH  25  27
ATOM     26  O   UNL     1      -1.295  10.730  22.964  0.00  0.00    +0.000 OA
ATOM     27  C   UNL     1      -0.505   9.799  22.987  0.00  0.00    +0.000 C 
BRANCH  27  28
ATOM     28  O   UNL     1       0.178   9.538  24.121  0.00  0.00    +0.000 OA
ATOM     29  H   UNL     1       1.103   9.801  24.228  0.00  0.00    +0.000 HD
ENDBRANCH  27  28
ENDBRANCH  25  27
ENDBRANCH  24  25
ENDBRANCH  18  24
ENDBRANCH  17  21
ENDBRANCH  16  17
ENDBRANCH   1  16
TORSDOF 14
ENDMDL
MODEL 4
REMARK VINA RESULT:      -6.3      2.980      4.328
REMARK  Name = 
REMARK  14 active torsions:
REMARK  status: ('A' for Active; 'I' for Inactive)
REMARK    1  A    between atoms: C_2  and  O_3
REMARK    2  A    between atoms: C_2  and  C_4
REMARK    3  A    between atoms: C_4  and  O_5
REMARK    4  A    between atoms: O_5  and  C_6
REMARK    5  A    between atoms: C_9  and  O_10
REMARK    6  A    between atoms: O_10  and  C_11
REMARK    7  A    between atoms: C_11  and  C_12
REMARK    8  A    between atoms: C_12  and  N_13
REMARK    9  A    between atoms: N_13  and  C_14
REMARK   10  A    between atoms: C_14  and  C_15
REMARK   11  A    between atoms: C_15  and  O_16
REMARK   12  A    between atoms: C_15  and  C_17
REMARK   13  A    between atoms: C_17  and  O_18
REMARK   14  A    between atoms: O_18  and  C_19
REMARK                            x       y       z     vdW  Elec       q    Type
REMARK                         _______ _______ _______ _____ _____    ______ ____
ROOT
ATOM      1  C   UNL     1       4.440   2.745  19.372  0.00  0.00    +0.000 C 
ENDROOT
BRANCH   1   2
ATOM      2  N   UNL     1       5.602   3.624  19.204  0.00  0.00    +0.000 NA
ATOM      3  H   UNL     1       6.447   3.028  19.351  0.00  0.00    +0.000 HD
BRANCH   2   4
ATOM      4  C   UNL     1       5.675   4.188  17.851  0.00  0.00    +0.000 C 
BRANCH   4   5
ATOM      5  C   UNL     1       7.128   4.592  17.501  0.00  0.00    +0.000 C 
BRANCH   5   6
ATOM      6  O   UNL     1       7.880   4.749  18.678  0.00  0.00    +0.000 OA
ATOM      7  H   UNL     1       8.083   5.716  18.776  0.00  0.00    +0.000 HD
ENDBRANCH   5   6
BRANCH   5   8
ATOM      8  C   UNL     1       7.219   5.870  16.641  0.00  0.00    +0.000 C 
BRANCH   8   9
ATOM      9  O   UNL     1       6.301   5.822  15.608  0.00  0.00    +0.000 OA
BRANCH   9  10
ATOM     10  C   UNL     1       6.469   5.133  14.448  0.00  0.00    +0.000 A 
ATOM     11  C   UNL     1       7.562   5.360  13.582  0.00  0.00    +0.000 A 
ATOM     12  C   UNL     1       7.688   4.626  12.398  0.00  0.00    +0.000 A 
ATOM     13  C   UNL     1       6.733   3.665  12.063  0.00  0.00    +0.000 A 
ATOM     14  C   UNL     1       5.648   3.435  12.913  0.00  0.00    +0.000 A 
ATOM     15  C   UNL     1       5.517   4.165  14.099  0.00  0.00    +0.000 A 
ENDBRANCH   9  10
ENDBRANCH   8   9
ENDBRANCH   5   8
ENDBRANCH   4   5
ENDBRANCH   2   4
ENDBRANCH   1   2
BRANCH   1  16
ATOM     16  C   UNL     1       3.463   3.009  18.228  0.00  0.00    +0.000 C 
BRANCH  16  17
ATOM     17  O   UNL     1       2.276   3.526  18.707  0.00  0.00    +0.000 OA
BRANCH  17  21
ATOM     18  C   UNL     1       1.790   7.408  20.170  0.00  0.00    +0.000 A 
ATOM     19  C   UNL     1       1.436   6.316  20.969  0.00  0.00    +0.000 A 
ATOM     20  C   UNL     1       1.622   5.011  20.514  0.00  0.00    +0.000 A 
ATOM     21  C   UNL     1       2.158   4.776  19.228  0.00  0.00    +0.000 A 
ATOM     22  C   UNL     1       2.534   5.864  18.439  0.00  0.00    +0.000 A 
ATOM     23  C   UNL     1       2.353   7.172  18.900  0.00  0.00    +0.000 A 
BRANCH  18  24
ATOM     24  O   UNL     1       1.557   8.654  20.655  0.00  0.00    +0.000 OA
BRANCH  24  25
ATOM     25  C   UNL     1       1.401   8.987  21.985  0.00  0.00    +0.000 C 
BRANCH  25  27
ATOM     26  O   UNL     1      -0.373  10.539  21.930  0.00  0.00    +0.000 OA
ATOM     27  C   UNL     1      -0.018   9.410  22.231  0.00  0.00    +0.000 C 
BRANCH  27  28
ATOM     28  O   UNL     1      -0.911   8.558  22.774  0.00  0.00    +0.000 OA
ATOM     29  H   UNL     1      -1.522   8.838  23.470  0.00  0.00    +0.000 HD
ENDBRANCH  27  28
ENDBRANCH  25  27
ENDBRANCH  24  25
ENDBRANCH  18  24
ENDBRANCH  17  21
ENDBRANCH  16  17
ENDBRANCH   1  16
TORSDOF 14
ENDMDL
MODEL 5
REMARK VINA RESULT:      -6.3      1.100      1.555
REMARK  Name = 
REMARK  14 active torsions:
REMARK  status: ('A' for Active; 'I' for Inactive)
REMARK    1  A    between atoms: C_2  and  O_3
REMARK    2  A    between atoms: C_2  and  C_4
REMARK    3  A    between atoms: C_4  and  O_5
REMARK    4  A    between atoms: O_5  and  C_6
REMARK    5  A    between atoms: C_9  and  O_10
REMARK    6  A    between atoms: O_10  and  C_11
REMARK    7  A    between atoms: C_11  and  C_12
REMARK    8  A    between atoms: C_12  and  N_13
REMARK    9  A    between atoms: N_13  and  C_14
REMARK   10  A    between atoms: C_14  and  C_15
REMARK   11  A    between atoms: C_15  and  O_16
REMARK   12  A    between atoms: C_15  and  C_17
REMARK   13  A    between atoms: C_17  and  O_18
REMARK   14  A    between atoms: O_18  and  C_19
REMARK                            x       y       z     vdW  Elec       q    Type
REMARK                         _______ _______ _______ _____ _____    ______ ____
ROOT
ATOM      1  C   UNL     1       2.661   4.350  21.075  0.00  0.00    +0.000 C 
ENDROOT
BRANCH   1   2
ATOM      2  N   UNL     1       2.625   2.921  20.746  0.00  0.00    +0.000 NA
ATOM      3  H   UNL     1       1.759   2.770  20.180  0.00  0.00    +0.000 HD
BRANCH   2   4
ATOM      4  C   UNL     1       3.775   2.513  19.931  0.00  0.00    +0.000 C 
BRANCH   4   5
ATOM      5  C   UNL     1       3.314   2.013  18.540  0.00  0.00    +0.000 C 
BRANCH   5   6
ATOM      6  O   UNL     1       3.967   0.811  18.221  0.00  0.00    +0.000 OA
ATOM      7  H   UNL     1       3.277   0.097  18.182  0.00  0.00    +0.000 HD
ENDBRANCH   5   6
BRANCH   5   8
ATOM      8  C   UNL     1       3.530   3.047  17.414  0.00  0.00    +0.000 C 
BRANCH   8   9
ATOM      9  O   UNL     1       4.880   3.276  17.223  0.00  0.00    +0.000 OA
BRANCH   9  10
ATOM     10  C   UNL     1       5.475   4.498  17.260  0.00  0.00    +0.000 A 
ATOM     11  C   UNL     1       4.851   5.662  16.759  0.00  0.00    +0.000 A 
ATOM     12  C   UNL     1       5.506   6.896  16.819  0.00  0.00    +0.000 A 
ATOM     13  C   UNL     1       6.785   6.984  17.371  0.00  0.00    +0.000 A 
ATOM     14  C   UNL     1       7.411   5.838  17.867  0.00  0.00    +0.000 A 
ATOM     15  C   UNL     1       6.759   4.602  17.812  0.00  0.00    +0.000 A 
ENDBRANCH   9  10
ENDBRANCH   8   9
ENDBRANCH   5   8
ENDBRANCH   4   5
ENDBRANCH   2   4
ENDBRANCH   1   2
BRANCH   1  16
ATOM     16  C   UNL     1       1.855   5.110  20.023  0.00  0.00    +0.000 C 
BRANCH  16  17
ATOM     17  O   UNL     1       2.597   6.147  19.494  0.00  0.00    +0.000 OA
BRANCH  17  21
ATOM     18  C   UNL     1       1.025   9.977  18.938  0.00  0.00    +0.000 A 
ATOM     19  C   UNL     1       0.936   9.365  20.193  0.00  0.00    +0.000 A 
ATOM     20  C   UNL     1       1.484   8.102  20.410  0.00  0.00    +0.000 A 
ATOM     21  C   UNL     1       2.125   7.414  19.355  0.00  0.00    +0.000 A 
ATOM     22  C   UNL     1       2.235   8.032  18.108  0.00  0.00    +0.000 A 
ATOM     23  C   UNL     1       1.691   9.303  17.894  0.00  0.00    +0.000 A 
BRANCH  18  24
ATOM     24  O   UNL     1       0.445  11.193  18.779  0.00  0.00    +0.000 OA
BRANCH  24  25
ATOM     25  C   UNL     1      -0.861  11.512  19.092  0.00  0.00    +0.000 C 
BRANCH  25  27
ATOM     26  O   UNL     1      -2.013  11.656  17.040  0.00  0.00    +0.000 OA
ATOM     27  C   UNL     1      -1.775  10.978  18.027  0.00  0.00    +0.000 C 
BRANCH  27  28
ATOM     28  O   UNL     1      -2.331   9.755  18.140  0.00  0.00    +0.000 OA
ATOM     29  H   UNL     1      -2.131   9.174  18.887  0.00  0.00    +0.000 HD
ENDBRANCH  27  28
ENDBRANCH  25  27
ENDBRANCH  24  25
ENDBRANCH  18  24
ENDBRANCH  17  21
ENDBRANCH  16  17
ENDBRANCH   1  16
TORSDOF 14
ENDMDL
MODEL 6
REMARK VINA RESULT:      -6.3      1.532      2.239
REMARK  Name = 
REMARK  14 active torsions:
REMARK  status: ('A' for Active; 'I' for Inactive)
REMARK    1  A    between atoms: C_2  and  O_3
REMARK    2  A    between atoms: C_2  and  C_4
REMARK    3  A    between atoms: C_4  and  O_5
REMARK    4  A    between atoms: O_5  and  C_6
REMARK    5  A    between atoms: C_9  and  O_10
REMARK    6  A    between atoms: O_10  and  C_11
REMARK    7  A    between atoms: C_11  and  C_12
REMARK    8  A    between atoms: C_12  and  N_13
REMARK    9  A    between atoms: N_13  and  C_14
REMARK   10  A    between atoms: C_14  and  C_15
REMARK   11  A    between atoms: C_15  and  O_16
REMARK   12  A    between atoms: C_15  and  C_17
REMARK   13  A    between atoms: C_17  and  O_18
REMARK   14  A    between atoms: O_18  and  C_19
REMARK                            x       y       z     vdW  Elec       q    Type
REMARK                         _______ _______ _______ _____ _____    ______ ____
ROOT
ATOM      1  C   UNL     1       1.632   4.136  20.074  0.00  0.00    +0.000 C 
ENDROOT
BRANCH   1   2
ATOM      2  N   UNL     1       2.649   3.082  19.996  0.00  0.00    +0.000 NA
ATOM      3  H   UNL     1       2.791   2.736  20.972  0.00  0.00    +0.000 HD
BRANCH   2   4
ATOM      4  C   UNL     1       2.206   1.949  19.175  0.00  0.00    +0.000 C 
BRANCH   4   5
ATOM      5  C   UNL     1       3.143   1.751  17.959  0.00  0.00    +0.000 C 
BRANCH   5   6
ATOM      6  O   UNL     1       4.233   0.941  18.319  0.00  0.00    +0.000 OA
ATOM      7  H   UNL     1       5.035   1.525  18.373  0.00  0.00    +0.000 HD
ENDBRANCH   5   6
BRANCH   5   8
ATOM      8  C   UNL     1       3.647   3.077  17.351  0.00  0.00    +0.000 C 
BRANCH   8   9
ATOM      9  O   UNL     1       4.874   3.418  17.890  0.00  0.00    +0.000 OA
BRANCH   9  10
ATOM     10  C   UNL     1       5.494   4.616  17.717  0.00  0.00    +0.000 A 
ATOM     11  C   UNL     1       4.901   5.683  17.007  0.00  0.00    +0.000 A 
ATOM     12  C   UNL     1       5.582   6.894  16.855  0.00  0.00    +0.000 A 
ATOM     13  C   UNL     1       6.855   7.057  17.404  0.00  0.00    +0.000 A 
ATOM     14  C   UNL     1       7.451   6.006  18.106  0.00  0.00    +0.000 A 
ATOM     15  C   UNL     1       6.774   4.792  18.263  0.00  0.00    +0.000 A 
ENDBRANCH   9  10
ENDBRANCH   8   9
ENDBRANCH   5   8
ENDBRANCH   4   5
ENDBRANCH   2   4
ENDBRANCH   1   2
BRANCH   1  16
ATOM     16  C   UNL     1       2.269   5.379  20.692  0.00  0.00    +0.000 C 
BRANCH  16  17
ATOM     17  O   UNL     1       2.671   6.263  19.711  0.00  0.00    +0.000 OA
BRANCH  17  21
ATOM     18  C   UNL     1       1.113  10.118  19.320  0.00  0.00    +0.000 A 
ATOM     19  C   UNL     1       1.736   9.507  18.227  0.00  0.00    +0.000 A 
ATOM     20  C   UNL     1       2.233   8.209  18.325  0.00  0.00    +0.000 A 
ATOM     21  C   UNL     1       2.126   7.496  19.540  0.00  0.00    +0.000 A 
ATOM     22  C   UNL     1       1.483   8.095  20.625  0.00  0.00    +0.000 A 
ATOM     23  C   UNL     1       0.979   9.395  20.523  0.00  0.00    +0.000 A 
BRANCH  18  24
ATOM     24  O   UNL     1       0.677  11.395  19.174  0.00  0.00    +0.000 OA
BRANCH  24  25
ATOM     25  C   UNL     1       1.459  12.529  19.258  0.00  0.00    +0.000 C 
BRANCH  25  27
ATOM     26  O   UNL     1       0.646  12.805  21.453  0.00  0.00    +0.000 OA
ATOM     27  C   UNL     1       1.594  12.939  20.695  0.00  0.00    +0.000 C 
BRANCH  27  28
ATOM     28  O   UNL     1       2.752  13.445  21.166  0.00  0.00    +0.000 OA
ATOM     29  H   UNL     1       3.610  13.117  20.863  0.00  0.00    +0.000 HD
ENDBRANCH  27  28
ENDBRANCH  25  27
ENDBRANCH  24  25
ENDBRANCH  18  24
ENDBRANCH  17  21
ENDBRANCH  16  17
ENDBRANCH   1  16
TORSDOF 14
ENDMDL
MODEL 7
REMARK VINA RESULT:      -6.3      1.535      1.875
REMARK  Name = 
REMARK  14 active torsions:
REMARK  status: ('A' for Active; 'I' for Inactive)
REMARK    1  A    between atoms: C_2  and  O_3
REMARK    2  A    between atoms: C_2  and  C_4
REMARK    3  A    between atoms: C_4  and  O_5
REMARK    4  A    between atoms: O_5  and  C_6
REMARK    5  A    between atoms: C_9  and  O_10
REMARK    6  A    between atoms: O_10  and  C_11
REMARK    7  A    between atoms: C_11  and  C_12
REMARK    8  A    between atoms: C_12  and  N_13
REMARK    9  A    between atoms: N_13  and  C_14
REMARK   10  A    between atoms: C_14  and  C_15
REMARK   11  A    between atoms: C_15  and  O_16
REMARK   12  A    between atoms: C_15  and  C_17
REMARK   13  A    between atoms: C_17  and  O_18
REMARK   14  A    between atoms: O_18  and  C_19
REMARK                            x       y       z     vdW  Elec       q    Type
REMARK                         _______ _______ _______ _____ _____    ______ ____
ROOT
ATOM      1  C   UNL     1       1.277   4.651  19.970  0.00  0.00    +0.000 C 
ENDROOT
BRANCH   1   2
ATOM      2  N   UNL     1       1.587   3.438  19.206  0.00  0.00    +0.000 NA
ATOM      3  H   UNL     1       2.192   3.738  18.408  0.00  0.00    +0.000 HD
BRANCH   2   4
ATOM      4  C   UNL     1       2.340   2.462  20.003  0.00  0.00    +0.000 C 
BRANCH   4   5
ATOM      5  C   UNL     1       3.610   2.000  19.249  0.00  0.00    +0.000 C 
BRANCH   5   6
ATOM      6  O   UNL     1       4.757   2.505  19.886  0.00  0.00    +0.000 OA
ATOM      7  H   UNL     1       4.763   3.489  19.753  0.00  0.00    +0.000 HD
ENDBRANCH   5   6
BRANCH   5   8
ATOM      8  C   UNL     1       3.617   2.394  17.757  0.00  0.00    +0.000 C 
BRANCH   8   9
ATOM      9  O   UNL     1       4.034   3.704  17.607  0.00  0.00    +0.000 OA
BRANCH   9  10
ATOM     10  C   UNL     1       5.122   4.097  16.892  0.00  0.00    +0.000 A 
ATOM     11  C   UNL     1       6.345   4.452  17.502  0.00  0.00    +0.000 A 
ATOM     12  C   UNL     1       7.434   4.852  16.721  0.00  0.00    +0.000 A 
ATOM     13  C   UNL     1       7.318   4.905  15.331  0.00  0.00    +0.000 A 
ATOM     14  C   UNL     1       6.111   4.557  14.718  0.00  0.00    +0.000 A 
ATOM     15  C   UNL     1       5.019   4.155  15.494  0.00  0.00    +0.000 A 
ENDBRANCH   9  10
ENDBRANCH   8   9
ENDBRANCH   5   8
ENDBRANCH   4   5
ENDBRANCH   2   4
ENDBRANCH   1   2
BRANCH   1  16
ATOM     16  C   UNL     1       2.590   5.315  20.380  0.00  0.00    +0.000 C 
BRANCH  16  17
ATOM     17  O   UNL     1       2.875   6.386  19.557  0.00  0.00    +0.000 OA
BRANCH  17  21
ATOM     18  C   UNL     1       0.664   9.929  19.553  0.00  0.00    +0.000 A 
ATOM     19  C   UNL     1       0.846   9.226  20.748  0.00  0.00    +0.000 A 
ATOM     20  C   UNL     1       1.609   8.060  20.780  0.00  0.00    +0.000 A 
ATOM     21  C   UNL     1       2.196   7.563  19.594  0.00  0.00    +0.000 A 
ATOM     22  C   UNL     1       2.035   8.275  18.405  0.00  0.00    +0.000 A 
ATOM     23  C   UNL     1       1.275   9.449  18.377  0.00  0.00    +0.000 A 
BRANCH  18  24
ATOM     24  O   UNL     1      -0.115  11.040  19.579  0.00  0.00    +0.000 OA
BRANCH  24  25
ATOM     25  C   UNL     1      -0.218  11.978  18.572  0.00  0.00    +0.000 C 
BRANCH  25  27
ATOM     26  O   UNL     1      -2.570  11.964  18.739  0.00  0.00    +0.000 OA
ATOM     27  C   UNL     1      -1.603  11.941  17.994  0.00  0.00    +0.000 C 
BRANCH  27  28
ATOM     28  O   UNL     1      -1.796  11.890  16.660  0.00  0.00    +0.000 OA
ATOM     29  H   UNL     1      -2.593  11.497  16.277  0.00  0.00    +0.000 HD
ENDBRANCH  27  28
ENDBRANCH  25  27
ENDBRANCH  24  25
ENDBRANCH  18  24
ENDBRANCH  17  21
ENDBRANCH  16  17
ENDBRANCH   1  16
TORSDOF 14
ENDMDL
MODEL 8
REMARK VINA RESULT:      -6.2      4.652      7.232
REMARK  Name = 
REMARK  14 active torsions:
REMARK  status: ('A' for Active; 'I' for Inactive)
REMARK    1  A    between atoms: C_2  and  O_3
REMARK    2  A    between atoms: C_2  and  C_4
REMARK    3  A    between atoms: C_4  and  O_5
REMARK    4  A    between atoms: O_5  and  C_6
REMARK    5  A    between atoms: C_9  and  O_10
REMARK    6  A    between atoms: O_10  and  C_11
REMARK    7  A    between atoms: C_11  and  C_12
REMARK    8  A    between atoms: C_12  and  N_13
REMARK    9  A    between atoms: N_13  and  C_14
REMARK   10  A    between atoms: C_14  and  C_15
REMARK   11  A    between atoms: C_15  and  O_16
REMARK   12  A    between atoms: C_15  and  C_17
REMARK   13  A    between atoms: C_17  and  O_18
REMARK   14  A    between atoms: O_18  and  C_19
REMARK                            x       y       z     vdW  Elec       q    Type
REMARK                         _______ _______ _______ _____ _____    ______ ____
ROOT
ATOM      1  C   UNL     1       7.218   5.718  15.782  0.00  0.00    +0.000 C 
ENDROOT
BRANCH   1   2
ATOM      2  N   UNL     1       6.113   6.635  16.080  0.00  0.00    +0.000 NA
ATOM      3  H   UNL     1       5.249   6.049  16.131  0.00  0.00    +0.000 HD
BRANCH   2   4
ATOM      4  C   UNL     1       6.285   7.302  17.377  0.00  0.00    +0.000 C 
BRANCH   4   5
ATOM      5  C   UNL     1       7.778   7.608  17.645  0.00  0.00    +0.000 C 
BRANCH   5   6
ATOM      6  O   UNL     1       8.204   6.944  18.808  0.00  0.00    +0.000 OA
ATOM      7  H   UNL     1       7.393   6.634  19.289  0.00  0.00    +0.000 HD
ENDBRANCH   5   6
BRANCH   5   8
ATOM      8  C   UNL     1       8.085   9.117  17.755  0.00  0.00    +0.000 C 
BRANCH   8   9
ATOM      9  O   UNL     1       8.704   9.395  18.959  0.00  0.00    +0.000 OA
BRANCH   9  10
ATOM     10  C   UNL     1       9.482  10.485  19.200  0.00  0.00    +0.000 A 
ATOM     11  C   UNL     1       9.666  11.014  20.496  0.00  0.00    +0.000 A 
ATOM     12  C   UNL     1      10.475  12.138  20.692  0.00  0.00    +0.000 A 
ATOM     13  C   UNL     1      11.104  12.746  19.605  0.00  0.00    +0.000 A 
ATOM     14  C   UNL     1      10.926  12.231  18.318  0.00  0.00    +0.000 A 
ATOM     15  C   UNL     1      10.120  11.106  18.117  0.00  0.00    +0.000 A 
ENDBRANCH   9  10
ENDBRANCH   8   9
ENDBRANCH   5   8
ENDBRANCH   4   5
ENDBRANCH   2   4
ENDBRANCH   1   2
BRANCH   1  16
ATOM     16  C   UNL     1       6.699   4.285  15.879  0.00  0.00    +0.000 C 
BRANCH  16  17
ATOM     17  O   UNL     1       5.330   4.272  16.056  0.00  0.00    +0.000 OA
BRANCH  17  21
ATOM     18  C   UNL     1       3.497   2.719  19.472  0.00  0.00    +0.000 A 
ATOM     19  C   UNL     1       4.631   3.527  19.600  0.00  0.00    +0.000 A 
ATOM     20  C   UNL     1       5.239   4.083  18.476  0.00  0.00    +0.000 A 
ATOM     21  C   UNL     1       4.722   3.823  17.187  0.00  0.00    +0.000 A 
ATOM     22  C   UNL     1       3.576   3.037  17.058  0.00  0.00    +0.000 A 
ATOM     23  C   UNL     1       2.964   2.485  18.188  0.00  0.00    +0.000 A 
BRANCH  18  24
ATOM     24  O   UNL     1       2.968   2.180  20.600  0.00  0.00    +0.000 OA
BRANCH  24  25
ATOM     25  C   UNL     1       2.220   2.854  21.544  0.00  0.00    +0.000 C 
BRANCH  25  27
ATOM     26  O   UNL     1       1.422   4.969  20.873  0.00  0.00    +0.000 OA
ATOM     27  C   UNL     1       1.244   3.761  20.853  0.00  0.00    +0.000 C 
BRANCH  27  28
ATOM     28  O   UNL     1       0.174   3.261  20.201  0.00  0.00    +0.000 OA
ATOM     29  H   UNL     1      -0.729   3.439  20.497  0.00  0.00    +0.000 HD
ENDBRANCH  27  28
ENDBRANCH  25  27
ENDBRANCH  24  25
ENDBRANCH  18  24
ENDBRANCH  17  21
ENDBRANCH  16  17
ENDBRANCH   1  16
TORSDOF 14
ENDMDL
MODEL 9
REMARK VINA RESULT:      -6.2      5.839      8.264
REMARK  Name = 
REMARK  14 active torsions:
REMARK  status: ('A' for Active; 'I' for Inactive)
REMARK    1  A    between atoms: C_2  and  O_3
REMARK    2  A    between atoms: C_2  and  C_4
REMARK    3  A    between atoms: C_4  and  O_5
REMARK    4  A    between atoms: O_5  and  C_6
REMARK    5  A    between atoms: C_9  and  O_10
REMARK    6  A    between atoms: O_10  and  C_11
REMARK    7  A    between atoms: C_11  and  C_12
REMARK    8  A    between atoms: C_12  and  N_13
REMARK    9  A    between atoms: N_13  and  C_14
REMARK   10  A    between atoms: C_14  and  C_15
REMARK   11  A    between atoms: C_15  and  O_16
REMARK   12  A    between atoms: C_15  and  C_17
REMARK   13  A    between atoms: C_17  and  O_18
REMARK   14  A    between atoms: O_18  and  C_19
REMARK                            x       y       z     vdW  Elec       q    Type
REMARK                         _______ _______ _______ _____ _____    ______ ____
ROOT
ATOM      1  C   UNL     1       8.009   7.893  17.574  0.00  0.00    +0.000 C 
ENDROOT
BRANCH   1   2
ATOM      2  N   UNL     1       6.638   7.597  17.144  0.00  0.00    +0.000 NA
ATOM      3  H   UNL     1       6.521   8.040  16.205  0.00  0.00    +0.000 HD
BRANCH   2   4
ATOM      4  C   UNL     1       6.407   6.155  16.995  0.00  0.00    +0.000 C 
BRANCH   4   5
ATOM      5  C   UNL     1       6.619   5.422  18.342  0.00  0.00    +0.000 C 
BRANCH   5   6
ATOM      6  O   UNL     1       7.183   4.155  18.116  0.00  0.00    +0.000 OA
ATOM      7  H   UNL     1       8.160   4.281  17.989  0.00  0.00    +0.000 HD
ENDBRANCH   5   6
BRANCH   5   8
ATOM      8  C   UNL     1       5.327   5.284  19.175  0.00  0.00    +0.000 C 
BRANCH   8   9
ATOM      9  O   UNL     1       4.832   3.996  19.086  0.00  0.00    +0.000 OA
BRANCH   9  10
ATOM     10  C   UNL     1       3.525   3.653  19.236  0.00  0.00    +0.000 A 
ATOM     11  C   UNL     1       2.880   2.728  18.386  0.00  0.00    +0.000 A 
ATOM     12  C   UNL     1       1.533   2.409  18.580  0.00  0.00    +0.000 A 
ATOM     13  C   UNL     1       0.814   3.007  19.617  0.00  0.00    +0.000 A 
ATOM     14  C   UNL     1       1.443   3.925  20.462  0.00  0.00    +0.000 A 
ATOM     15  C   UNL     1       2.791   4.246  20.273  0.00  0.00    +0.000 A 
ENDBRANCH   9  10
ENDBRANCH   8   9
ENDBRANCH   5   8
ENDBRANCH   4   5
ENDBRANCH   2   4
ENDBRANCH   1   2
BRANCH   1  16
ATOM     16  C   UNL     1       8.094   9.375  17.934  0.00  0.00    +0.000 C 
BRANCH  16  17
ATOM     17  O   UNL     1       8.886   9.562  19.050  0.00  0.00    +0.000 OA
BRANCH  17  21
ATOM     18  C   UNL     1      11.240  12.984  19.487  0.00  0.00    +0.000 A 
ATOM     19  C   UNL     1      10.635  12.410  20.609  0.00  0.00    +0.000 A 
ATOM     20  C   UNL     1       9.874  11.248  20.492  0.00  0.00    +0.000 A 
ATOM     21  C   UNL     1       9.689  10.644  19.228  0.00  0.00    +0.000 A 
ATOM     22  C   UNL     1      10.311  11.202  18.110  0.00  0.00    +0.000 A 
ATOM     23  C   UNL     1      11.081  12.363  18.231  0.00  0.00    +0.000 A 
BRANCH  18  24
ATOM     24  O   UNL     1      11.943  14.132  19.659  0.00  0.00    +0.000 OA
BRANCH  24  25
ATOM     25  C   UNL     1      11.422  15.347  20.056  0.00  0.00    +0.000 C 
BRANCH  25  27
ATOM     26  O   UNL     1      10.889  16.257  17.947  0.00  0.00    +0.000 OA
ATOM     27  C   UNL     1      10.462  15.844  19.014  0.00  0.00    +0.000 C 
BRANCH  27  28
ATOM     28  O   UNL     1       9.132  15.833  19.235  0.00  0.00    +0.000 OA
ATOM     29  H   UNL     1       8.505  15.571  18.546  0.00  0.00    +0.000 HD
ENDBRANCH  27  28
ENDBRANCH  25  27
ENDBRANCH  24  25
ENDBRANCH  18  24
ENDBRANCH  17  21
ENDBRANCH  16  17
ENDBRANCH   1  16
TORSDOF 14
ENDMDL
