MODEL 1
REMARK VINA RESULT:      -7.8      0.000      0.000
REMARK  Name = 
REMARK  7 active torsions:
REMARK  status: ('A' for Active; 'I' for Inactive)
REMARK    1  A    between atoms: C_1  and  C_2
REMARK    2  A    between atoms: C_2  and  N_3
REMARK    3  A    between atoms: C_6  and  C_7
REMARK    4  A    between atoms: C_13  and  C_14
REMARK    5  A    between atoms: C_14  and  O_16
REMARK    6  A    between atoms: O_16  and  C_17
REMARK    7  A    between atoms: C_17  and  C_18
REMARK                            x       y       z     vdW  Elec       q    Type
REMARK                         _______ _______ _______ _____ _____    ______ ____
ROOT
ATOM      1  N   UNL     1       5.605   3.996  12.976  0.00  0.00    +0.000 NA
ATOM      2  C   UNL     1       7.052   4.080  13.197  0.00  0.00    +0.000 C 
ATOM      3  C   UNL     1       7.365   5.184  14.221  0.00  0.00    +0.000 C 
ATOM      4  C   UNL     1       6.544   5.027  15.482  0.00  0.00    +0.000 C 
ATOM      5  C   UNL     1       5.398   4.320  15.473  0.00  0.00    +0.000 C 
ATOM      6  C   UNL     1       4.896   3.702  14.212  0.00  0.00    +0.000 C 
ENDROOT
BRANCH   4   7
ATOM      7  C   UNL     1       7.113   5.615  16.686  0.00  0.00    +0.000 A 
ATOM      8  C   UNL     1       7.533   4.794  17.729  0.00  0.00    +0.000 A 
ATOM      9  C   UNL     1       8.056   5.363  18.888  0.00  0.00    +0.000 A 
ATOM     10  C   UNL     1       8.164   6.749  18.988  0.00  0.00    +0.000 A 
ATOM     11  C   UNL     1       7.767   7.574  17.938  0.00  0.00    +0.000 A 
ATOM     12  C   UNL     1       7.242   7.008  16.778  0.00  0.00    +0.000 A 
ENDBRANCH   4   7
BRANCH   1  14
ATOM     13  C   UNL     1       4.023   3.312  11.160  0.00  0.00    +0.000 C 
ATOM     14  C   UNL     1       5.248   2.962  12.011  0.00  0.00    +0.000 C 
ENDBRANCH   1  14
BRANCH   5  15
ATOM     15  C   UNL     1       4.563   3.901  16.633  0.00  0.00    +0.000 C 
ATOM     16  O   UNL     1       4.372   2.778  17.015  0.00  0.00    +0.000 OA
BRANCH  15  17
ATOM     17  O   UNL     1       3.845   4.985  17.024  0.00  0.00    +0.000 OA
BRANCH  17  18
ATOM     18  C   UNL     1       3.757   5.268  18.421  0.00  0.00    +0.000 C 
BRANCH  18  19
ATOM     19  C   UNL     1       2.280   5.356  18.795  0.00  0.00    +0.000 C 
ATOM     20  C   UNL     1       1.451   4.310  18.037  0.00  0.00    +0.000 C 
ATOM     21  C   UNL     1       1.348   2.974  18.760  0.00  0.00    +0.000 C 
ATOM     22  C   UNL     1       0.824   3.182  20.172  0.00  0.00    +0.000 C 
ATOM     23  C   UNL     1       1.801   4.027  20.973  0.00  0.00    +0.000 C 
ATOM     24  C   UNL     1       2.058   5.378  20.319  0.00  0.00    +0.000 C 
ENDBRANCH  18  19
ENDBRANCH  17  18
ENDBRANCH  15  17
ENDBRANCH   5  15
TORSDOF 6
ENDMDL
MODEL 2
REMARK VINA RESULT:      -7.5      2.445      5.091
REMARK  Name = 
REMARK  7 active torsions:
REMARK  status: ('A' for Active; 'I' for Inactive)
REMARK    1  A    between atoms: C_1  and  C_2
REMARK    2  A    between atoms: C_2  and  N_3
REMARK    3  A    between atoms: C_6  and  C_7
REMARK    4  A    between atoms: C_13  and  C_14
REMARK    5  A    between atoms: C_14  and  O_16
REMARK    6  A    between atoms: O_16  and  C_17
REMARK    7  A    between atoms: C_17  and  C_18
REMARK                            x       y       z     vdW  Elec       q    Type
REMARK                         _______ _______ _______ _____ _____    ______ ____
ROOT
ATOM      1  N   UNL     1       2.702   7.190  19.496  0.00  0.00    +0.000 NA
ATOM      2  C   UNL     1       2.204   6.990  18.131  0.00  0.00    +0.000 C 
ATOM      3  C   UNL     1       3.374   7.019  17.134  0.00  0.00    +0.000 C 
ATOM      4  C   UNL     1       4.482   6.073  17.544  0.00  0.00    +0.000 C 
ATOM      5  C   UNL     1       4.600   5.665  18.821  0.00  0.00    +0.000 C 
ATOM      6  C   UNL     1       3.658   6.158  19.868  0.00  0.00    +0.000 C 
ENDROOT
BRANCH   4   7
ATOM      7  C   UNL     1       5.337   5.595  16.468  0.00  0.00    +0.000 A 
ATOM      8  C   UNL     1       4.817   4.750  15.491  0.00  0.00    +0.000 A 
ATOM      9  C   UNL     1       5.645   4.277  14.475  0.00  0.00    +0.000 A 
ATOM     10  C   UNL     1       6.984   4.663  14.441  0.00  0.00    +0.000 A 
ATOM     11  C   UNL     1       7.504   5.526  15.402  0.00  0.00    +0.000 A 
ATOM     12  C   UNL     1       6.679   6.001  16.420  0.00  0.00    +0.000 A 
ENDBRANCH   4   7
BRANCH   1  14
ATOM     13  C   UNL     1       1.171   8.566  20.920  0.00  0.00    +0.000 C 
ATOM     14  C   UNL     1       1.632   7.171  20.488  0.00  0.00    +0.000 C 
ENDBRANCH   1  14
BRANCH   5  15
ATOM     15  C   UNL     1       5.493   4.608  19.374  0.00  0.00    +0.000 C 
ATOM     16  O   UNL     1       6.588   4.765  19.846  0.00  0.00    +0.000 OA
BRANCH  15  17
ATOM     17  O   UNL     1       4.968   3.410  19.015  0.00  0.00    +0.000 OA
BRANCH  17  18
ATOM     18  C   UNL     1       4.360   2.609  20.028  0.00  0.00    +0.000 C 
BRANCH  18  19
ATOM     19  C   UNL     1       3.119   1.950  19.434  0.00  0.00    +0.000 C 
ATOM     20  C   UNL     1       1.863   2.296  20.246  0.00  0.00    +0.000 C 
ATOM     21  C   UNL     1       1.166   3.567  19.778  0.00  0.00    +0.000 C 
ATOM     22  C   UNL     1       0.860   3.478  18.291  0.00  0.00    +0.000 C 
ATOM     23  C   UNL     1       2.153   3.382  17.496  0.00  0.00    +0.000 C 
ATOM     24  C   UNL     1       2.995   2.185  17.917  0.00  0.00    +0.000 C 
ENDBRANCH  18  19
ENDBRANCH  17  18
ENDBRANCH  15  17
ENDBRANCH   5  15
TORSDOF 6
ENDMDL
MODEL 3
REMARK VINA RESULT:      -7.3      3.209      5.155
REMARK  Name = 
REMARK  7 active torsions:
REMARK  status: ('A' for Active; 'I' for Inactive)
REMARK    1  A    between atoms: C_1  and  C_2
REMARK    2  A    between atoms: C_2  and  N_3
REMARK    3  A    between atoms: C_6  and  C_7
REMARK    4  A    between atoms: C_13  and  C_14
REMARK    5  A    between atoms: C_14  and  O_16
REMARK    6  A    between atoms: O_16  and  C_17
REMARK    7  A    between atoms: C_17  and  C_18
REMARK                            x       y       z     vdW  Elec       q    Type
REMARK                         _______ _______ _______ _____ _____    ______ ____
ROOT
ATOM      1  N   UNL     1       2.017   3.151  18.138  0.00  0.00    +0.000 NA
ATOM      2  C   UNL     1       3.280   2.630  18.669  0.00  0.00    +0.000 C 
ATOM      3  C   UNL     1       4.465   3.371  18.029  0.00  0.00    +0.000 C 
ATOM      4  C   UNL     1       4.310   4.873  18.133  0.00  0.00    +0.000 C 
ATOM      5  C   UNL     1       3.098   5.427  18.322  0.00  0.00    +0.000 C 
ATOM      6  C   UNL     1       1.876   4.575  18.403  0.00  0.00    +0.000 C 
ENDROOT
BRANCH   4   7
ATOM      7  C   UNL     1       5.545   5.642  18.092  0.00  0.00    +0.000 A 
ATOM      8  C   UNL     1       6.533   5.420  19.049  0.00  0.00    +0.000 A 
ATOM      9  C   UNL     1       7.705   6.174  19.018  0.00  0.00    +0.000 A 
ATOM     10  C   UNL     1       7.880   7.136  18.025  0.00  0.00    +0.000 A 
ATOM     11  C   UNL     1       6.905   7.346  17.053  0.00  0.00    +0.000 A 
ATOM     12  C   UNL     1       5.732   6.594  17.080  0.00  0.00    +0.000 A 
ENDBRANCH   4   7
BRANCH   1  14
ATOM     13  C   UNL     1       0.618   2.818  20.188  0.00  0.00    +0.000 C 
ATOM     14  C   UNL     1       0.853   2.483  18.712  0.00  0.00    +0.000 C 
ENDBRANCH   1  14
BRANCH   5  15
ATOM     15  C   UNL     1       2.770   6.846  18.634  0.00  0.00    +0.000 C 
ATOM     16  O   UNL     1       2.859   7.786  17.889  0.00  0.00    +0.000 OA
BRANCH  15  17
ATOM     17  O   UNL     1       2.605   6.935  19.977  0.00  0.00    +0.000 OA
BRANCH  17  18
ATOM     18  C   UNL     1       1.360   7.430  20.473  0.00  0.00    +0.000 C 
BRANCH  18  19
ATOM     19  C   UNL     1       1.582   8.850  20.983  0.00  0.00    +0.000 C 
ATOM     20  C   UNL     1       0.933   9.883  20.051  0.00  0.00    +0.000 C 
ATOM     21  C   UNL     1      -0.515  10.196  20.403  0.00  0.00    +0.000 C 
ATOM     22  C   UNL     1      -0.618  10.620  21.860  0.00  0.00    +0.000 C 
ATOM     23  C   UNL     1      -0.196   9.476  22.768  0.00  0.00    +0.000 C 
ATOM     24  C   UNL     1       1.222   9.005  22.472  0.00  0.00    +0.000 C 
ENDBRANCH  18  19
ENDBRANCH  17  18
ENDBRANCH  15  17
ENDBRANCH   5  15
TORSDOF 6
ENDMDL
MODEL 4
REMARK VINA RESULT:      -7.3      0.862      1.682
REMARK  Name = 
REMARK  7 active torsions:
REMARK  status: ('A' for Active; 'I' for Inactive)
REMARK    1  A    between atoms: C_1  and  C_2
REMARK    2  A    between atoms: C_2  and  N_3
REMARK    3  A    between atoms: C_6  and  C_7
REMARK    4  A    between atoms: C_13  and  C_14
REMARK    5  A    between atoms: C_14  and  O_16
REMARK    6  A    between atoms: O_16  and  C_17
REMARK    7  A    between atoms: C_17  and  C_18
REMARK                            x       y       z     vdW  Elec       q    Type
REMARK                         _______ _______ _______ _____ _____    ______ ____
ROOT
ATOM      1  N   UNL     1       5.550   4.035  13.108  0.00  0.00    +0.000 NA
ATOM      2  C   UNL     1       6.971   3.880  13.432  0.00  0.00    +0.000 C 
ATOM      3  C   UNL     1       7.427   5.020  14.357  0.00  0.00    +0.000 C 
ATOM      4  C   UNL     1       6.519   5.164  15.559  0.00  0.00    +0.000 C 
ATOM      5  C   UNL     1       5.262   4.682  15.533  0.00  0.00    +0.000 C 
ATOM      6  C   UNL     1       4.726   4.021  14.307  0.00  0.00    +0.000 C 
ENDROOT
BRANCH   4   7
ATOM      7  C   UNL     1       7.118   5.776  16.736  0.00  0.00    +0.000 A 
ATOM      8  C   UNL     1       7.554   4.976  17.789  0.00  0.00    +0.000 A 
ATOM      9  C   UNL     1       8.107   5.569  18.923  0.00  0.00    +0.000 A 
ATOM     10  C   UNL     1       8.226   6.956  18.987  0.00  0.00    +0.000 A 
ATOM     11  C   UNL     1       7.812   7.759  17.928  0.00  0.00    +0.000 A 
ATOM     12  C   UNL     1       7.259   7.170  16.793  0.00  0.00    +0.000 A 
ENDBRANCH   4   7
BRANCH   1  14
ATOM     13  C   UNL     1       3.975   3.442  11.253  0.00  0.00    +0.000 C 
ATOM     14  C   UNL     1       5.060   2.977  12.230  0.00  0.00    +0.000 C 
ENDBRANCH   1  14
BRANCH   5  15
ATOM     15  C   UNL     1       4.296   4.561  16.661  0.00  0.00    +0.000 C 
ATOM     16  O   UNL     1       3.694   5.455  17.192  0.00  0.00    +0.000 OA
BRANCH  15  17
ATOM     17  O   UNL     1       4.412   3.302  17.155  0.00  0.00    +0.000 OA
BRANCH  17  18
ATOM     18  C   UNL     1       4.590   3.144  18.563  0.00  0.00    +0.000 C 
BRANCH  18  19
ATOM     19  C   UNL     1       3.473   2.245  19.086  0.00  0.00    +0.000 C 
ATOM     20  C   UNL     1       3.158   2.551  20.556  0.00  0.00    +0.000 C 
ATOM     21  C   UNL     1       2.101   3.632  20.741  0.00  0.00    +0.000 C 
ATOM     22  C   UNL     1       0.843   3.271  19.965  0.00  0.00    +0.000 C 
ATOM     23  C   UNL     1       1.145   3.217  18.476  0.00  0.00    +0.000 C 
ATOM     24  C   UNL     1       2.249   2.220  18.152  0.00  0.00    +0.000 C 
ENDBRANCH  18  19
ENDBRANCH  17  18
ENDBRANCH  15  17
ENDBRANCH   5  15
TORSDOF 6
ENDMDL
MODEL 5
REMARK VINA RESULT:      -7.3      2.444      5.091
REMARK  Name = 
REMARK  7 active torsions:
REMARK  status: ('A' for Active; 'I' for Inactive)
REMARK    1  A    between atoms: C_1  and  C_2
REMARK    2  A    between atoms: C_2  and  N_3
REMARK    3  A    between atoms: C_6  and  C_7
REMARK    4  A    between atoms: C_13  and  C_14
REMARK    5  A    between atoms: C_14  and  O_16
REMARK    6  A    between atoms: O_16  and  C_17
REMARK    7  A    between atoms: C_17  and  C_18
REMARK                            x       y       z     vdW  Elec       q    Type
REMARK                         _______ _______ _______ _____ _____    ______ ____
ROOT
ATOM      1  N   UNL     1       2.725   7.423  19.383  0.00  0.00    +0.000 NA
ATOM      2  C   UNL     1       2.260   7.299  17.998  0.00  0.00    +0.000 C 
ATOM      3  C   UNL     1       3.464   7.201  17.046  0.00  0.00    +0.000 C 
ATOM      4  C   UNL     1       4.437   6.127  17.483  0.00  0.00    +0.000 C 
ATOM      5  C   UNL     1       4.456   5.693  18.757  0.00  0.00    +0.000 C 
ATOM      6  C   UNL     1       3.538   6.282  19.775  0.00  0.00    +0.000 C 
ENDROOT
BRANCH   4   7
ATOM      7  C   UNL     1       5.272   5.563  16.432  0.00  0.00    +0.000 A 
ATOM      8  C   UNL     1       6.617   5.915  16.350  0.00  0.00    +0.000 A 
ATOM      9  C   UNL     1       7.407   5.388  15.330  0.00  0.00    +0.000 A 
ATOM     10  C   UNL     1       6.844   4.509  14.407  0.00  0.00    +0.000 A 
ATOM     11  C   UNL     1       5.506   4.136  14.498  0.00  0.00    +0.000 A 
ATOM     12  C   UNL     1       4.713   4.660  15.517  0.00  0.00    +0.000 A 
ENDBRANCH   4   7
BRANCH   1  14
ATOM     13  C   UNL     1       1.060   8.937  20.481  0.00  0.00    +0.000 C 
ATOM     14  C   UNL     1       1.622   7.520  20.334  0.00  0.00    +0.000 C 
ENDBRANCH   1  14
BRANCH   5  15
ATOM     15  C   UNL     1       5.197   4.533  19.326  0.00  0.00    +0.000 C 
ATOM     16  O   UNL     1       6.302   4.546  19.800  0.00  0.00    +0.000 OA
BRANCH  15  17
ATOM     17  O   UNL     1       4.515   3.412  18.980  0.00  0.00    +0.000 OA
BRANCH  17  18
ATOM     18  C   UNL     1       4.385   2.374  19.952  0.00  0.00    +0.000 C 
BRANCH  18  19
ATOM     19  C   UNL     1       2.917   1.964  20.019  0.00  0.00    +0.000 C 
ATOM     20  C   UNL     1       2.253   2.486  21.300  0.00  0.00    +0.000 C 
ATOM     21  C   UNL     1       1.650   3.876  21.151  0.00  0.00    +0.000 C 
ATOM     22  C   UNL     1       0.688   3.905  19.974  0.00  0.00    +0.000 C 
ATOM     23  C   UNL     1       1.435   3.622  18.680  0.00  0.00    +0.000 C 
ATOM     24  C   UNL     1       2.156   2.282  18.718  0.00  0.00    +0.000 C 
ENDBRANCH  18  19
ENDBRANCH  17  18
ENDBRANCH  15  17
ENDBRANCH   5  15
TORSDOF 6
ENDMDL
MODEL 6
REMARK VINA RESULT:      -7.3      2.572      4.858
REMARK  Name = 
REMARK  7 active torsions:
REMARK  status: ('A' for Active; 'I' for Inactive)
REMARK    1  A    between atoms: C_1  and  C_2
REMARK    2  A    between atoms: C_2  and  N_3
REMARK    3  A    between atoms: C_6  and  C_7
REMARK    4  A    between atoms: C_13  and  C_14
REMARK    5  A    between atoms: C_14  and  O_16
REMARK    6  A    between atoms: O_16  and  C_17
REMARK    7  A    between atoms: C_17  and  C_18
REMARK                            x       y       z     vdW  Elec       q    Type
REMARK                         _______ _______ _______ _____ _____    ______ ____
ROOT
ATOM      1  N   UNL     1       5.473   5.467  16.568  0.00  0.00    +0.000 NA
ATOM      2  C   UNL     1       5.870   6.563  17.457  0.00  0.00    +0.000 C 
ATOM      3  C   UNL     1       4.763   7.628  17.508  0.00  0.00    +0.000 C 
ATOM      4  C   UNL     1       3.413   7.019  17.824  0.00  0.00    +0.000 C 
ATOM      5  C   UNL     1       3.181   5.711  17.605  0.00  0.00    +0.000 C 
ATOM      6  C   UNL     1       4.240   4.839  17.018  0.00  0.00    +0.000 C 
ENDROOT
BRANCH   4   7
ATOM      7  C   UNL     1       2.442   7.914  18.436  0.00  0.00    +0.000 A 
ATOM      8  C   UNL     1       2.156   7.804  19.794  0.00  0.00    +0.000 A 
ATOM      9  C   UNL     1       1.209   8.649  20.370  0.00  0.00    +0.000 A 
ATOM     10  C   UNL     1       0.565   9.601  19.583  0.00  0.00    +0.000 A 
ATOM     11  C   UNL     1       0.864   9.731  18.229  0.00  0.00    +0.000 A 
ATOM     12  C   UNL     1       1.810   8.888  17.650  0.00  0.00    +0.000 A 
ENDBRANCH   4   7
BRANCH   1  14
ATOM     13  C   UNL     1       7.598   4.557  17.528  0.00  0.00    +0.000 C 
ATOM     14  C   UNL     1       6.488   4.423  16.481  0.00  0.00    +0.000 C 
ENDBRANCH   1  14
BRANCH   5  15
ATOM     15  C   UNL     1       2.002   4.901  18.019  0.00  0.00    +0.000 C 
ATOM     16  O   UNL     1       1.041   4.634  17.349  0.00  0.00    +0.000 OA
BRANCH  15  17
ATOM     17  O   UNL     1       2.079   4.737  19.364  0.00  0.00    +0.000 OA
BRANCH  17  18
ATOM     18  C   UNL     1       1.059   3.977  20.011  0.00  0.00    +0.000 C 
BRANCH  18  19
ATOM     19  C   UNL     1       1.630   2.602  20.346  0.00  0.00    +0.000 C 
ATOM     20  C   UNL     1       1.529   1.651  19.146  0.00  0.00    +0.000 C 
ATOM     21  C   UNL     1       2.738   1.706  18.222  0.00  0.00    +0.000 C 
ATOM     22  C   UNL     1       4.014   1.467  19.015  0.00  0.00    +0.000 C 
ATOM     23  C   UNL     1       4.207   2.575  20.039  0.00  0.00    +0.000 C 
ATOM     24  C   UNL     1       3.026   2.685  20.993  0.00  0.00    +0.000 C 
ENDBRANCH  18  19
ENDBRANCH  17  18
ENDBRANCH  15  17
ENDBRANCH   5  15
TORSDOF 6
ENDMDL
MODEL 7
REMARK VINA RESULT:      -7.3      3.162      5.560
REMARK  Name = 
REMARK  7 active torsions:
REMARK  status: ('A' for Active; 'I' for Inactive)
REMARK    1  A    between atoms: C_1  and  C_2
REMARK    2  A    between atoms: C_2  and  N_3
REMARK    3  A    between atoms: C_6  and  C_7
REMARK    4  A    between atoms: C_13  and  C_14
REMARK    5  A    between atoms: C_14  and  O_16
REMARK    6  A    between atoms: O_16  and  C_17
REMARK    7  A    between atoms: C_17  and  C_18
REMARK                            x       y       z     vdW  Elec       q    Type
REMARK                         _______ _______ _______ _____ _____    ______ ____
ROOT
ATOM      1  N   UNL     1       1.672   3.357  19.210  0.00  0.00    +0.000 NA
ATOM      2  C   UNL     1       2.893   2.551  19.300  0.00  0.00    +0.000 C 
ATOM      3  C   UNL     1       3.689   2.651  17.988  0.00  0.00    +0.000 C 
ATOM      4  C   UNL     1       3.915   4.090  17.578  0.00  0.00    +0.000 C 
ATOM      5  C   UNL     1       3.119   5.070  18.045  0.00  0.00    +0.000 C 
ATOM      6  C   UNL     1       1.979   4.757  18.954  0.00  0.00    +0.000 C 
ENDROOT
BRANCH   4   7
ATOM      7  C   UNL     1       5.070   4.333  16.727  0.00  0.00    +0.000 A 
ATOM      8  C   UNL     1       6.331   4.493  17.297  0.00  0.00    +0.000 A 
ATOM      9  C   UNL     1       7.431   4.747  16.480  0.00  0.00    +0.000 A 
ATOM     10  C   UNL     1       7.259   4.828  15.099  0.00  0.00    +0.000 A 
ATOM     11  C   UNL     1       6.005   4.645  14.522  0.00  0.00    +0.000 A 
ATOM     12  C   UNL     1       4.903   4.391  15.336  0.00  0.00    +0.000 A 
ENDBRANCH   4   7
BRANCH   1  14
ATOM     13  C   UNL     1       1.614   2.681  21.619  0.00  0.00    +0.000 C 
ATOM     14  C   UNL     1       0.875   3.301  20.430  0.00  0.00    +0.000 C 
ENDBRANCH   1  14
BRANCH   5  15
ATOM     15  C   UNL     1       3.294   6.544  17.909  0.00  0.00    +0.000 C 
ATOM     16  O   UNL     1       4.292   7.123  17.575  0.00  0.00    +0.000 OA
BRANCH  15  17
ATOM     17  O   UNL     1       2.211   7.130  18.479  0.00  0.00    +0.000 OA
BRANCH  17  18
ATOM     18  C   UNL     1       1.728   8.349  17.914  0.00  0.00    +0.000 C 
BRANCH  18  19
ATOM     19  C   UNL     1       1.769   9.425  18.995  0.00  0.00    +0.000 C 
ATOM     20  C   UNL     1       0.907  10.634  18.609  0.00  0.00    +0.000 C 
ATOM     21  C   UNL     1      -0.543  10.518  19.060  0.00  0.00    +0.000 C 
ATOM     22  C   UNL     1      -0.605  10.246  20.555  0.00  0.00    +0.000 C 
ATOM     23  C   UNL     1       0.050   8.911  20.871  0.00  0.00    +0.000 C 
ATOM     24  C   UNL     1       1.497   8.858  20.402  0.00  0.00    +0.000 C 
ENDBRANCH  18  19
ENDBRANCH  17  18
ENDBRANCH  15  17
ENDBRANCH   5  15
TORSDOF 6
ENDMDL
MODEL 8
REMARK VINA RESULT:      -7.2      3.164      5.189
REMARK  Name = 
REMARK  7 active torsions:
REMARK  status: ('A' for Active; 'I' for Inactive)
REMARK    1  A    between atoms: C_1  and  C_2
REMARK    2  A    between atoms: C_2  and  N_3
REMARK    3  A    between atoms: C_6  and  C_7
REMARK    4  A    between atoms: C_13  and  C_14
REMARK    5  A    between atoms: C_14  and  O_16
REMARK    6  A    between atoms: O_16  and  C_17
REMARK    7  A    between atoms: C_17  and  C_18
REMARK                            x       y       z     vdW  Elec       q    Type
REMARK                         _______ _______ _______ _____ _____    ______ ____
ROOT
ATOM      1  N   UNL     1       1.917   3.153  17.953  0.00  0.00    +0.000 NA
ATOM      2  C   UNL     1       3.176   2.589  18.448  0.00  0.00    +0.000 C 
ATOM      3  C   UNL     1       4.367   3.356  17.850  0.00  0.00    +0.000 C 
ATOM      4  C   UNL     1       4.228   4.850  18.046  0.00  0.00    +0.000 C 
ATOM      5  C   UNL     1       3.021   5.403  18.272  0.00  0.00    +0.000 C 
ATOM      6  C   UNL     1       1.791   4.560  18.304  0.00  0.00    +0.000 C 
ENDROOT
BRANCH   4   7
ATOM      7  C   UNL     1       5.470   5.608  18.048  0.00  0.00    +0.000 A 
ATOM      8  C   UNL     1       5.721   6.532  17.036  0.00  0.00    +0.000 A 
ATOM      9  C   UNL     1       6.922   7.239  17.031  0.00  0.00    +0.000 A 
ATOM     10  C   UNL     1       7.854   7.023  18.043  0.00  0.00    +0.000 A 
ATOM     11  C   UNL     1       7.598   6.117  19.070  0.00  0.00    +0.000 A 
ATOM     12  C   UNL     1       6.399   5.408  19.078  0.00  0.00    +0.000 A 
ENDBRANCH   4   7
BRANCH   1  14
ATOM     13  C   UNL     1       0.465   2.786  19.960  0.00  0.00    +0.000 C 
ATOM     14  C   UNL     1       0.748   2.464  18.490  0.00  0.00    +0.000 C 
ENDBRANCH   1  14
BRANCH   5  15
ATOM     15  C   UNL     1       2.709   6.805  18.669  0.00  0.00    +0.000 C 
ATOM     16  O   UNL     1       2.814   7.788  17.986  0.00  0.00    +0.000 OA
BRANCH  15  17
ATOM     17  O   UNL     1       2.533   6.811  20.015  0.00  0.00    +0.000 OA
BRANCH  17  18
ATOM     18  C   UNL     1       1.320   7.355  20.535  0.00  0.00    +0.000 C 
BRANCH  18  19
ATOM     19  C   UNL     1       1.587   8.795  20.959  0.00  0.00    +0.000 C 
ATOM     20  C   UNL     1       0.820   9.787  20.073  0.00  0.00    +0.000 C 
ATOM     21  C   UNL     1      -0.577  10.107  20.586  0.00  0.00    +0.000 C 
ATOM     22  C   UNL     1      -0.508  10.587  22.027  0.00  0.00    +0.000 C 
ATOM     23  C   UNL     1       0.032   9.482  22.921  0.00  0.00    +0.000 C 
ATOM     24  C   UNL     1       1.408   9.007  22.474  0.00  0.00    +0.000 C 
ENDBRANCH  18  19
ENDBRANCH  17  18
ENDBRANCH  15  17
ENDBRANCH   5  15
TORSDOF 6
ENDMDL
MODEL 9
REMARK VINA RESULT:      -7.2      3.211      5.595
REMARK  Name = 
REMARK  7 active torsions:
REMARK  status: ('A' for Active; 'I' for Inactive)
REMARK    1  A    between atoms: C_1  and  C_2
REMARK    2  A    between atoms: C_2  and  N_3
REMARK    3  A    between atoms: C_6  and  C_7
REMARK    4  A    between atoms: C_13  and  C_14
REMARK    5  A    between atoms: C_14  and  O_16
REMARK    6  A    between atoms: O_16  and  C_17
REMARK    7  A    between atoms: C_17  and  C_18
REMARK                            x       y       z     vdW  Elec       q    Type
REMARK                         _______ _______ _______ _____ _____    ______ ____
ROOT
ATOM      1  N   UNL     1       1.636   3.305  18.978  0.00  0.00    +0.000 NA
ATOM      2  C   UNL     1       2.845   2.479  19.050  0.00  0.00    +0.000 C 
ATOM      3  C   UNL     1       3.667   2.635  17.760  0.00  0.00    +0.000 C 
ATOM      4  C   UNL     1       3.918   4.089  17.427  0.00  0.00    +0.000 C 
ATOM      5  C   UNL     1       3.126   5.056  17.929  0.00  0.00    +0.000 C 
ATOM      6  C   UNL     1       1.964   4.712  18.800  0.00  0.00    +0.000 C 
ENDROOT
BRANCH   4   7
ATOM      7  C   UNL     1       5.093   4.360  16.611  0.00  0.00    +0.000 A 
ATOM      8  C   UNL     1       4.969   4.460  15.228  0.00  0.00    +0.000 A 
ATOM      9  C   UNL     1       6.100   4.698  14.450  0.00  0.00    +0.000 A 
ATOM     10  C   UNL     1       7.342   4.842  15.065  0.00  0.00    +0.000 A 
ATOM     11  C   UNL     1       7.468   4.765  16.449  0.00  0.00    +0.000 A 
ATOM     12  C   UNL     1       6.339   4.528  17.231  0.00  0.00    +0.000 A 
ENDBRANCH   4   7
BRANCH   1  14
ATOM     13  C   UNL     1       1.627   3.007  21.464  0.00  0.00    +0.000 C 
ATOM     14  C   UNL     1       0.815   3.198  20.179  0.00  0.00    +0.000 C 
ENDBRANCH   1  14
BRANCH   5  15
ATOM     15  C   UNL     1       3.321   6.532  17.872  0.00  0.00    +0.000 C 
ATOM     16  O   UNL     1       4.309   7.114  17.512  0.00  0.00    +0.000 OA
BRANCH  15  17
ATOM     17  O   UNL     1       2.287   7.100  18.542  0.00  0.00    +0.000 OA
BRANCH  17  18
ATOM     18  C   UNL     1       1.683   8.268  17.985  0.00  0.00    +0.000 C 
BRANCH  18  19
ATOM     19  C   UNL     1       1.777   9.389  19.015  0.00  0.00    +0.000 C 
ATOM     20  C   UNL     1       1.221  10.706  18.455  0.00  0.00    +0.000 C 
ATOM     21  C   UNL     1      -0.272  10.886  18.692  0.00  0.00    +0.000 C 
ATOM     22  C   UNL     1      -0.589  10.733  20.171  0.00  0.00    +0.000 C 
ATOM     23  C   UNL     1      -0.250   9.326  20.636  0.00  0.00    +0.000 C 
ATOM     24  C   UNL     1       1.212   8.979  20.388  0.00  0.00    +0.000 C 
ENDBRANCH  18  19
ENDBRANCH  17  18
ENDBRANCH  15  17
ENDBRANCH   5  15
TORSDOF 6
ENDMDL
