MODEL 1
REMARK VINA RESULT:      -8.4      0.000      0.000
REMARK  Name = 
REMARK  7 active torsions:
REMARK  status: ('A' for Active; 'I' for Inactive)
REMARK    1  A    between atoms: C_1  and  C_2
REMARK    2  A    between atoms: C_5  and  N_6
REMARK    3  A    between atoms: N_6  and  S_7
REMARK    4  A    between atoms: S_7  and  C_10
REMARK    5  A    between atoms: C_15  and  C_16
REMARK    6  A    between atoms: C_19  and  C_20
REMARK    7  A    between atoms: C_27  and  C_28
REMARK                            x       y       z     vdW  Elec       q    Type
REMARK                         _______ _______ _______ _____ _____    ______ ____
ROOT
ATOM      1  C   UNL     1       4.143   3.990  18.531  0.00  0.00    +0.000 A 
ATOM      2  C   UNL     1       4.331   2.630  18.197  0.00  0.00    +0.000 A 
ATOM      3  C   UNL     1       3.262   1.750  18.093  0.00  0.00    +0.000 A 
ATOM      4  C   UNL     1       1.982   2.215  18.319  0.00  0.00    +0.000 A 
ATOM      5  C   UNL     1       1.778   3.563  18.633  0.00  0.00    +0.000 A 
ATOM      6  C   UNL     1       2.835   4.510  18.728  0.00  0.00    +0.000 A 
ENDROOT
BRANCH   6   7
ATOM      7  C   UNL     1       2.444   5.937  18.964  0.00  0.00    +0.000 A 
ATOM      8  C   UNL     1       2.017   6.440  20.197  0.00  0.00    +0.000 A 
ATOM      9  C   UNL     1       1.690   7.793  20.389  0.00  0.00    +0.000 A 
ATOM     10  C   UNL     1       1.675   8.692  19.321  0.00  0.00    +0.000 A 
ATOM     11  C   UNL     1       2.028   8.200  18.063  0.00  0.00    +0.000 A 
ATOM     12  C   UNL     1       2.428   6.862  17.897  0.00  0.00    +0.000 A 
BRANCH  10  13
ATOM     13  C   UNL     1       1.267  10.074  19.527  0.00  0.00    +0.000 A 
ATOM     14  C   UNL     1       1.051  11.167  18.713  0.00  0.00    +0.000 A 
ATOM     15  N   UNL     1       0.704  12.265  19.466  0.00  0.00    +0.000 NA
ATOM     16  C   UNL     1       0.720  11.802  20.692  0.00  0.00    +0.000 A 
ATOM     17  O   UNL     1       1.046  10.485  20.816  0.00  0.00    +0.000 OA
ENDBRANCH  10  13
ENDBRANCH   6   7
BRANCH   1  18
ATOM     18  S   UNL     1       5.615   4.988  18.662  0.00  0.00    +0.000 S 
ATOM     19  O   UNL     1       6.783   4.164  18.398  0.00  0.00    +0.000 OA
ATOM     20  O   UNL     1       5.510   5.775  19.868  0.00  0.00    +0.000 OA
BRANCH  18  21
ATOM     21  N   UNL     1       5.530   6.138  17.395  0.00  0.00    +0.000 N 
ATOM     22  H   UNL     1       5.866   7.015  17.785  0.00  0.00    +0.000 HD
BRANCH  21  27
ATOM     23  C   UNL     1       6.780   3.976  13.025  0.00  0.00    +0.000 C 
ATOM     24  C   UNL     1       6.738   4.728  14.302  0.00  0.00    +0.000 A 
ATOM     25  N   UNL     1       7.780   5.484  14.659  0.00  0.00    +0.000 NA
ATOM     26  O   UNL     1       7.410   6.093  15.837  0.00  0.00    +0.000 OA
ATOM     27  C   UNL     1       6.167   5.678  16.206  0.00  0.00    +0.000 A 
ATOM     28  C   UNL     1       5.682   4.799  15.259  0.00  0.00    +0.000 A 
ATOM     29  C   UNL     1       4.354   4.152  15.161  0.00  0.00    +0.000 C 
ENDBRANCH  21  27
ENDBRANCH  18  21
ENDBRANCH   1  18
TORSDOF 5
ENDMDL
MODEL 2
REMARK VINA RESULT:      -8.4      0.562      1.139
REMARK  Name = 
REMARK  7 active torsions:
REMARK  status: ('A' for Active; 'I' for Inactive)
REMARK    1  A    between atoms: C_1  and  C_2
REMARK    2  A    between atoms: C_5  and  N_6
REMARK    3  A    between atoms: N_6  and  S_7
REMARK    4  A    between atoms: S_7  and  C_10
REMARK    5  A    between atoms: C_15  and  C_16
REMARK    6  A    between atoms: C_19  and  C_20
REMARK    7  A    between atoms: C_27  and  C_28
REMARK                            x       y       z     vdW  Elec       q    Type
REMARK                         _______ _______ _______ _____ _____    ______ ____
ROOT
ATOM      1  C   UNL     1       4.107   3.996  18.509  0.00  0.00    +0.000 A 
ATOM      2  C   UNL     1       4.290   2.623  18.229  0.00  0.00    +0.000 A 
ATOM      3  C   UNL     1       3.214   1.749  18.133  0.00  0.00    +0.000 A 
ATOM      4  C   UNL     1       1.934   2.234  18.313  0.00  0.00    +0.000 A 
ATOM      5  C   UNL     1       1.737   3.595  18.572  0.00  0.00    +0.000 A 
ATOM      6  C   UNL     1       2.800   4.535  18.657  0.00  0.00    +0.000 A 
ENDROOT
BRANCH   6   7
ATOM      7  C   UNL     1       2.418   5.973  18.831  0.00  0.00    +0.000 A 
ATOM      8  C   UNL     1       2.448   6.923  17.806  0.00  0.00    +0.000 A 
ATOM      9  C   UNL     1       2.050   8.257  17.999  0.00  0.00    +0.000 A 
ATOM     10  C   UNL     1       1.699   8.731  19.264  0.00  0.00    +0.000 A 
ATOM     11  C   UNL     1       1.729   7.820  20.322  0.00  0.00    +0.000 A 
ATOM     12  C   UNL     1       2.055   6.469  20.102  0.00  0.00    +0.000 A 
BRANCH  10  13
ATOM     13  C   UNL     1       1.355  10.132  19.457  0.00  0.00    +0.000 A 
ATOM     14  C   UNL     1       0.760  10.869  20.460  0.00  0.00    +0.000 A 
ATOM     15  N   UNL     1       0.649  12.188  20.084  0.00  0.00    +0.000 NA
ATOM     16  C   UNL     1       1.176  12.201  18.884  0.00  0.00    +0.000 A 
ATOM     17  O   UNL     1       1.632  11.000  18.432  0.00  0.00    +0.000 OA
ENDBRANCH  10  13
ENDBRANCH   6   7
BRANCH   1  18
ATOM     18  S   UNL     1       5.586   4.985  18.636  0.00  0.00    +0.000 S 
ATOM     19  O   UNL     1       6.748   4.152  18.373  0.00  0.00    +0.000 OA
ATOM     20  O   UNL     1       5.487   5.774  19.841  0.00  0.00    +0.000 OA
BRANCH  18  21
ATOM     21  N   UNL     1       5.508   6.133  17.367  0.00  0.00    +0.000 N 
ATOM     22  H   UNL     1       5.835   7.012  17.759  0.00  0.00    +0.000 HD
BRANCH  21  27
ATOM     23  C   UNL     1       6.808   3.972  13.012  0.00  0.00    +0.000 C 
ATOM     24  C   UNL     1       6.751   4.725  14.287  0.00  0.00    +0.000 A 
ATOM     25  N   UNL     1       7.785   5.488  14.652  0.00  0.00    +0.000 NA
ATOM     26  O   UNL     1       7.402   6.096  15.826  0.00  0.00    +0.000 OA
ATOM     27  C   UNL     1       6.158   5.675  16.185  0.00  0.00    +0.000 A 
ATOM     28  C   UNL     1       5.686   4.792  15.235  0.00  0.00    +0.000 A 
ATOM     29  C   UNL     1       4.363   4.136  15.126  0.00  0.00    +0.000 C 
ENDBRANCH  21  27
ENDBRANCH  18  21
ENDBRANCH   1  18
TORSDOF 5
ENDMDL
MODEL 3
REMARK VINA RESULT:      -8.2      1.165      1.656
REMARK  Name = 
REMARK  7 active torsions:
REMARK  status: ('A' for Active; 'I' for Inactive)
REMARK    1  A    between atoms: C_1  and  C_2
REMARK    2  A    between atoms: C_5  and  N_6
REMARK    3  A    between atoms: N_6  and  S_7
REMARK    4  A    between atoms: S_7  and  C_10
REMARK    5  A    between atoms: C_15  and  C_16
REMARK    6  A    between atoms: C_19  and  C_20
REMARK    7  A    between atoms: C_27  and  C_28
REMARK                            x       y       z     vdW  Elec       q    Type
REMARK                         _______ _______ _______ _____ _____    ______ ____
ROOT
ATOM      1  C   UNL     1       3.699   4.355  17.821  0.00  0.00    +0.000 A 
ATOM      2  C   UNL     1       3.798   2.978  17.521  0.00  0.00    +0.000 A 
ATOM      3  C   UNL     1       2.769   2.092  17.816  0.00  0.00    +0.000 A 
ATOM      4  C   UNL     1       1.619   2.569  18.413  0.00  0.00    +0.000 A 
ATOM      5  C   UNL     1       1.499   3.934  18.698  0.00  0.00    +0.000 A 
ATOM      6  C   UNL     1       2.512   4.886  18.396  0.00  0.00    +0.000 A 
ENDROOT
BRANCH   6   7
ATOM      7  C   UNL     1       2.189   6.323  18.662  0.00  0.00    +0.000 A 
ATOM      8  C   UNL     1       2.124   7.310  17.673  0.00  0.00    +0.000 A 
ATOM      9  C   UNL     1       1.784   8.644  17.957  0.00  0.00    +0.000 A 
ATOM     10  C   UNL     1       1.593   9.078  19.269  0.00  0.00    +0.000 A 
ATOM     11  C   UNL     1       1.722   8.128  20.285  0.00  0.00    +0.000 A 
ATOM     12  C   UNL     1       1.987   6.780  19.983  0.00  0.00    +0.000 A 
BRANCH  10  13
ATOM     13  C   UNL     1       1.308  10.477  19.549  0.00  0.00    +0.000 A 
ATOM     14  C   UNL     1       0.919  11.199  20.658  0.00  0.00    +0.000 A 
ATOM     15  N   UNL     1       0.757  12.526  20.335  0.00  0.00    +0.000 NA
ATOM     16  C   UNL     1       1.052  12.560  19.058  0.00  0.00    +0.000 A 
ATOM     17  O   UNL     1       1.401  11.364  18.507  0.00  0.00    +0.000 OA
ENDBRANCH  10  13
ENDBRANCH   6   7
BRANCH   1  18
ATOM     18  S   UNL     1       5.115   5.360  17.416  0.00  0.00    +0.000 S 
ATOM     19  O   UNL     1       5.618   5.995  18.623  0.00  0.00    +0.000 OA
ATOM     20  O   UNL     1       4.787   6.134  16.243  0.00  0.00    +0.000 OA
BRANCH  18  21
ATOM     21  N   UNL     1       6.336   4.280  16.886  0.00  0.00    +0.000 N 
ATOM     22  H   UNL     1       5.957   3.345  17.003  0.00  0.00    +0.000 HD
BRANCH  21  27
ATOM     23  C   UNL     1       7.217   4.798  11.959  0.00  0.00    +0.000 C 
ATOM     24  C   UNL     1       7.240   4.843  13.440  0.00  0.00    +0.000 A 
ATOM     25  N   UNL     1       8.123   5.627  14.064  0.00  0.00    +0.000 NA
ATOM     26  O   UNL     1       7.849   5.499  15.407  0.00  0.00    +0.000 OA
ATOM     27  C   UNL     1       6.829   4.617  15.593  0.00  0.00    +0.000 A 
ATOM     28  C   UNL     1       6.395   4.160  14.364  0.00  0.00    +0.000 A 
ATOM     29  C   UNL     1       5.262   3.267  14.033  0.00  0.00    +0.000 C 
ENDBRANCH  21  27
ENDBRANCH  18  21
ENDBRANCH   1  18
TORSDOF 5
ENDMDL
MODEL 4
REMARK VINA RESULT:      -7.9      2.132      4.189
REMARK  Name = 
REMARK  7 active torsions:
REMARK  status: ('A' for Active; 'I' for Inactive)
REMARK    1  A    between atoms: C_1  and  C_2
REMARK    2  A    between atoms: C_5  and  N_6
REMARK    3  A    between atoms: N_6  and  S_7
REMARK    4  A    between atoms: S_7  and  C_10
REMARK    5  A    between atoms: C_15  and  C_16
REMARK    6  A    between atoms: C_19  and  C_20
REMARK    7  A    between atoms: C_27  and  C_28
REMARK                            x       y       z     vdW  Elec       q    Type
REMARK                         _______ _______ _______ _____ _____    ______ ____
ROOT
ATOM      1  C   UNL     1       5.872   5.071  17.505  0.00  0.00    +0.000 A 
ATOM      2  C   UNL     1       6.930   4.401  16.850  0.00  0.00    +0.000 A 
ATOM      3  C   UNL     1       7.082   4.454  15.471  0.00  0.00    +0.000 A 
ATOM      4  C   UNL     1       6.181   5.182  14.720  0.00  0.00    +0.000 A 
ATOM      5  C   UNL     1       5.140   5.867  15.357  0.00  0.00    +0.000 A 
ATOM      6  C   UNL     1       4.953   5.864  16.767  0.00  0.00    +0.000 A 
ENDROOT
BRANCH   6   7
ATOM      7  C   UNL     1       3.858   6.734  17.304  0.00  0.00    +0.000 A 
ATOM      8  C   UNL     1       2.643   6.251  17.801  0.00  0.00    +0.000 A 
ATOM      9  C   UNL     1       1.652   7.095  18.328  0.00  0.00    +0.000 A 
ATOM     10  C   UNL     1       1.788   8.484  18.287  0.00  0.00    +0.000 A 
ATOM     11  C   UNL     1       2.962   8.997  17.730  0.00  0.00    +0.000 A 
ATOM     12  C   UNL     1       3.981   8.140  17.276  0.00  0.00    +0.000 A 
BRANCH  10  13
ATOM     13  C   UNL     1       0.721   9.344  18.776  0.00  0.00    +0.000 A 
ATOM     14  C   UNL     1       0.357   9.859  20.003  0.00  0.00    +0.000 A 
ATOM     15  N   UNL     1      -0.793  10.605  19.888  0.00  0.00    +0.000 NA
ATOM     16  C   UNL     1      -1.079  10.518  18.612  0.00  0.00    +0.000 A 
ATOM     17  O   UNL     1      -0.210   9.778  17.868  0.00  0.00    +0.000 OA
ENDBRANCH  10  13
ENDBRANCH   6   7
BRANCH   1  18
ATOM     18  S   UNL     1       5.787   4.880  19.276  0.00  0.00    +0.000 S 
ATOM     19  O   UNL     1       4.699   5.692  19.798  0.00  0.00    +0.000 OA
ATOM     20  O   UNL     1       7.127   4.998  19.799  0.00  0.00    +0.000 OA
BRANCH  18  21
ATOM     21  N   UNL     1       5.359   3.246  19.564  0.00  0.00    +0.000 N 
ATOM     22  H   UNL     1       5.515   3.083  20.555  0.00  0.00    +0.000 HD
BRANCH  21  27
ATOM     23  C   UNL     1       0.457   2.379  18.833  0.00  0.00    +0.000 C 
ATOM     24  C   UNL     1       1.926   2.529  18.720  0.00  0.00    +0.000 A 
ATOM     25  N   UNL     1       2.521   2.349  17.537  0.00  0.00    +0.000 NA
ATOM     26  O   UNL     1       3.853   2.621  17.746  0.00  0.00    +0.000 OA
ATOM     27  C   UNL     1       4.067   2.929  19.055  0.00  0.00    +0.000 A 
ATOM     28  C   UNL     1       2.866   2.887  19.733  0.00  0.00    +0.000 A 
ATOM     29  C   UNL     1       2.561   3.229  21.141  0.00  0.00    +0.000 C 
ENDBRANCH  21  27
ENDBRANCH  18  21
ENDBRANCH   1  18
TORSDOF 5
ENDMDL
MODEL 5
REMARK VINA RESULT:      -7.8      2.135      4.289
REMARK  Name = 
REMARK  7 active torsions:
REMARK  status: ('A' for Active; 'I' for Inactive)
REMARK    1  A    between atoms: C_1  and  C_2
REMARK    2  A    between atoms: C_5  and  N_6
REMARK    3  A    between atoms: N_6  and  S_7
REMARK    4  A    between atoms: S_7  and  C_10
REMARK    5  A    between atoms: C_15  and  C_16
REMARK    6  A    between atoms: C_19  and  C_20
REMARK    7  A    between atoms: C_27  and  C_28
REMARK                            x       y       z     vdW  Elec       q    Type
REMARK                         _______ _______ _______ _____ _____    ______ ____
ROOT
ATOM      1  C   UNL     1       5.830   5.062  17.511  0.00  0.00    +0.000 A 
ATOM      2  C   UNL     1       6.876   4.392  16.838  0.00  0.00    +0.000 A 
ATOM      3  C   UNL     1       7.030   4.480  15.460  0.00  0.00    +0.000 A 
ATOM      4  C   UNL     1       6.142   5.245  14.729  0.00  0.00    +0.000 A 
ATOM      5  C   UNL     1       5.112   5.929  15.385  0.00  0.00    +0.000 A 
ATOM      6  C   UNL     1       4.924   5.891  16.795  0.00  0.00    +0.000 A 
ENDROOT
BRANCH   6   7
ATOM      7  C   UNL     1       3.844   6.764  17.355  0.00  0.00    +0.000 A 
ATOM      8  C   UNL     1       2.654   6.283  17.910  0.00  0.00    +0.000 A 
ATOM      9  C   UNL     1       1.677   7.132  18.457  0.00  0.00    +0.000 A 
ATOM     10  C   UNL     1       1.800   8.520  18.380  0.00  0.00    +0.000 A 
ATOM     11  C   UNL     1       2.947   9.030  17.766  0.00  0.00    +0.000 A 
ATOM     12  C   UNL     1       3.954   8.170  17.291  0.00  0.00    +0.000 A 
BRANCH  10  13
ATOM     13  C   UNL     1       0.746   9.383  18.891  0.00  0.00    +0.000 A 
ATOM     14  C   UNL     1       0.351   9.819  20.139  0.00  0.00    +0.000 A 
ATOM     15  N   UNL     1      -0.766  10.616  20.038  0.00  0.00    +0.000 NA
ATOM     16  C   UNL     1      -1.002  10.635  18.748  0.00  0.00    +0.000 A 
ATOM     17  O   UNL     1      -0.131   9.919  17.984  0.00  0.00    +0.000 OA
ENDBRANCH  10  13
ENDBRANCH   6   7
BRANCH   1  18
ATOM     18  S   UNL     1       5.739   4.823  19.276  0.00  0.00    +0.000 S 
ATOM     19  O   UNL     1       4.614   5.574  19.808  0.00  0.00    +0.000 OA
ATOM     20  O   UNL     1       7.070   4.987  19.812  0.00  0.00    +0.000 OA
BRANCH  18  21
ATOM     21  N   UNL     1       5.382   3.165  19.520  0.00  0.00    +0.000 N 
ATOM     22  H   UNL     1       5.982   2.856  20.280  0.00  0.00    +0.000 HD
BRANCH  21  27
ATOM     23  C   UNL     1       0.471   2.263  18.894  0.00  0.00    +0.000 C 
ATOM     24  C   UNL     1       1.829   2.552  19.412  0.00  0.00    +0.000 A 
ATOM     25  N   UNL     1       2.036   2.608  20.731  0.00  0.00    +0.000 NA
ATOM     26  O   UNL     1       3.387   2.823  20.885  0.00  0.00    +0.000 OA
ATOM     27  C   UNL     1       3.985   2.931  19.667  0.00  0.00    +0.000 A 
ATOM     28  C   UNL     1       3.035   2.766  18.679  0.00  0.00    +0.000 A 
ATOM     29  C   UNL     1       3.199   2.706  17.209  0.00  0.00    +0.000 C 
ENDBRANCH  21  27
ENDBRANCH  18  21
ENDBRANCH   1  18
TORSDOF 5
ENDMDL
MODEL 6
REMARK VINA RESULT:      -7.7      1.993      4.152
REMARK  Name = 
REMARK  7 active torsions:
REMARK  status: ('A' for Active; 'I' for Inactive)
REMARK    1  A    between atoms: C_1  and  C_2
REMARK    2  A    between atoms: C_5  and  N_6
REMARK    3  A    between atoms: N_6  and  S_7
REMARK    4  A    between atoms: S_7  and  C_10
REMARK    5  A    between atoms: C_15  and  C_16
REMARK    6  A    between atoms: C_19  and  C_20
REMARK    7  A    between atoms: C_27  and  C_28
REMARK                            x       y       z     vdW  Elec       q    Type
REMARK                         _______ _______ _______ _____ _____    ______ ____
ROOT
ATOM      1  C   UNL     1       5.892   5.063  17.378  0.00  0.00    +0.000 A 
ATOM      2  C   UNL     1       6.918   4.371  16.696  0.00  0.00    +0.000 A 
ATOM      3  C   UNL     1       7.033   4.417  15.312  0.00  0.00    +0.000 A 
ATOM      4  C   UNL     1       6.125   5.161  14.585  0.00  0.00    +0.000 A 
ATOM      5  C   UNL     1       5.115   5.866  15.249  0.00  0.00    +0.000 A 
ATOM      6  C   UNL     1       4.968   5.871  16.663  0.00  0.00    +0.000 A 
ENDROOT
BRANCH   6   7
ATOM      7  C   UNL     1       3.905   6.763  17.228  0.00  0.00    +0.000 A 
ATOM      8  C   UNL     1       3.989   8.158  17.265  0.00  0.00    +0.000 A 
ATOM      9  C   UNL     1       2.957   8.965  17.772  0.00  0.00    +0.000 A 
ATOM     10  C   UNL     1       1.826   8.403  18.366  0.00  0.00    +0.000 A 
ATOM     11  C   UNL     1       1.747   7.009  18.407  0.00  0.00    +0.000 A 
ATOM     12  C   UNL     1       2.751   6.213  17.828  0.00  0.00    +0.000 A 
BRANCH  10  13
ATOM     13  C   UNL     1       0.798   9.254  18.947  0.00  0.00    +0.000 A 
ATOM     14  C   UNL     1      -0.120  10.161  18.459  0.00  0.00    +0.000 A 
ATOM     15  N   UNL     1      -0.839  10.719  19.490  0.00  0.00    +0.000 NA
ATOM     16  C   UNL     1      -0.338  10.136  20.552  0.00  0.00    +0.000 A 
ATOM     17  O   UNL     1       0.652   9.233  20.311  0.00  0.00    +0.000 OA
ENDBRANCH  10  13
ENDBRANCH   6   7
BRANCH   1  18
ATOM     18  S   UNL     1       5.852   4.878  19.151  0.00  0.00    +0.000 S 
ATOM     19  O   UNL     1       4.802   5.719  19.701  0.00  0.00    +0.000 OA
ATOM     20  O   UNL     1       7.210   4.961  19.635  0.00  0.00    +0.000 OA
BRANCH  18  21
ATOM     21  N   UNL     1       5.390   3.256  19.456  0.00  0.00    +0.000 N 
ATOM     22  H   UNL     1       5.558   3.095  20.446  0.00  0.00    +0.000 HD
BRANCH  21  27
ATOM     23  C   UNL     1       0.462   2.463  18.822  0.00  0.00    +0.000 C 
ATOM     24  C   UNL     1       1.930   2.601  18.677  0.00  0.00    +0.000 A 
ATOM     25  N   UNL     1       2.493   2.449  17.475  0.00  0.00    +0.000 NA
ATOM     26  O   UNL     1       3.834   2.700  17.659  0.00  0.00    +0.000 OA
ATOM     27  C   UNL     1       4.083   2.968  18.970  0.00  0.00    +0.000 A 
ATOM     28  C   UNL     1       2.898   2.919  19.677  0.00  0.00    +0.000 A 
ATOM     29  C   UNL     1       2.631   3.223  21.100  0.00  0.00    +0.000 C 
ENDBRANCH  21  27
ENDBRANCH  18  21
ENDBRANCH   1  18
TORSDOF 5
ENDMDL
MODEL 7
REMARK VINA RESULT:      -7.6      4.025      6.509
REMARK  Name = 
REMARK  7 active torsions:
REMARK  status: ('A' for Active; 'I' for Inactive)
REMARK    1  A    between atoms: C_1  and  C_2
REMARK    2  A    between atoms: C_5  and  N_6
REMARK    3  A    between atoms: N_6  and  S_7
REMARK    4  A    between atoms: S_7  and  C_10
REMARK    5  A    between atoms: C_15  and  C_16
REMARK    6  A    between atoms: C_19  and  C_20
REMARK    7  A    between atoms: C_27  and  C_28
REMARK                            x       y       z     vdW  Elec       q    Type
REMARK                         _______ _______ _______ _____ _____    ______ ____
ROOT
ATOM      1  C   UNL     1       5.274   5.382  16.840  0.00  0.00    +0.000 A 
ATOM      2  C   UNL     1       4.787   4.268  16.121  0.00  0.00    +0.000 A 
ATOM      3  C   UNL     1       5.541   3.655  15.129  0.00  0.00    +0.000 A 
ATOM      4  C   UNL     1       6.800   4.144  14.840  0.00  0.00    +0.000 A 
ATOM      5  C   UNL     1       7.302   5.236  15.557  0.00  0.00    +0.000 A 
ATOM      6  C   UNL     1       6.581   5.884  16.598  0.00  0.00    +0.000 A 
ENDROOT
BRANCH   6   7
ATOM      7  C   UNL     1       7.299   6.966  17.343  0.00  0.00    +0.000 A 
ATOM      8  C   UNL     1       8.002   6.765  18.535  0.00  0.00    +0.000 A 
ATOM      9  C   UNL     1       8.692   7.799  19.190  0.00  0.00    +0.000 A 
ATOM     10  C   UNL     1       8.624   9.117  18.733  0.00  0.00    +0.000 A 
ATOM     11  C   UNL     1       7.869   9.359  17.583  0.00  0.00    +0.000 A 
ATOM     12  C   UNL     1       7.245   8.304  16.893  0.00  0.00    +0.000 A 
BRANCH  10  13
ATOM     13  C   UNL     1       9.290  10.185  19.463  0.00  0.00    +0.000 A 
ATOM     14  C   UNL     1       9.204  10.709  20.736  0.00  0.00    +0.000 A 
ATOM     15  N   UNL     1      10.069  11.768  20.879  0.00  0.00    +0.000 NA
ATOM     16  C   UNL     1      10.642  11.846  19.702  0.00  0.00    +0.000 A 
ATOM     17  O   UNL     1      10.231  10.922  18.790  0.00  0.00    +0.000 OA
ENDBRANCH  10  13
ENDBRANCH   6   7
BRANCH   1  18
ATOM     18  S   UNL     1       4.176   6.083  18.059  0.00  0.00    +0.000 S 
ATOM     19  O   UNL     1       3.980   7.495  17.777  0.00  0.00    +0.000 OA
ATOM     20  O   UNL     1       4.612   5.631  19.359  0.00  0.00    +0.000 OA
BRANCH  18  21
ATOM     21  N   UNL     1       2.657   5.323  17.832  0.00  0.00    +0.000 N 
ATOM     22  H   UNL     1       2.615   5.061  16.851  0.00  0.00    +0.000 HD
BRANCH  21  27
ATOM     23  C   UNL     1       1.428   2.532  21.835  0.00  0.00    +0.000 C 
ATOM     24  C   UNL     1       1.907   3.053  20.533  0.00  0.00    +0.000 A 
ATOM     25  N   UNL     1       2.355   2.203  19.605  0.00  0.00    +0.000 NA
ATOM     26  O   UNL     1       2.656   2.976  18.507  0.00  0.00    +0.000 OA
ATOM     27  C   UNL     1       2.424   4.289  18.783  0.00  0.00    +0.000 A 
ATOM     28  C   UNL     1       1.941   4.403  20.072  0.00  0.00    +0.000 A 
ATOM     29  C   UNL     1       1.459   5.598  20.799  0.00  0.00    +0.000 C 
ENDBRANCH  21  27
ENDBRANCH  18  21
ENDBRANCH   1  18
TORSDOF 5
ENDMDL
MODEL 8
REMARK VINA RESULT:      -7.4      2.225      7.477
REMARK  Name = 
REMARK  7 active torsions:
REMARK  status: ('A' for Active; 'I' for Inactive)
REMARK    1  A    between atoms: C_1  and  C_2
REMARK    2  A    between atoms: C_5  and  N_6
REMARK    3  A    between atoms: N_6  and  S_7
REMARK    4  A    between atoms: S_7  and  C_10
REMARK    5  A    between atoms: C_15  and  C_16
REMARK    6  A    between atoms: C_19  and  C_20
REMARK    7  A    between atoms: C_27  and  C_28
REMARK                            x       y       z     vdW  Elec       q    Type
REMARK                         _______ _______ _______ _____ _____    ______ ____
ROOT
ATOM      1  C   UNL     1       2.890   4.844  19.907  0.00  0.00    +0.000 A 
ATOM      2  C   UNL     1       2.301   4.557  21.158  0.00  0.00    +0.000 A 
ATOM      3  C   UNL     1       2.417   3.305  21.749  0.00  0.00    +0.000 A 
ATOM      4  C   UNL     1       3.129   2.317  21.099  0.00  0.00    +0.000 A 
ATOM      5  C   UNL     1       3.734   2.592  19.868  0.00  0.00    +0.000 A 
ATOM      6  C   UNL     1       3.666   3.863  19.232  0.00  0.00    +0.000 A 
ENDROOT
BRANCH   6   7
ATOM      7  C   UNL     1       4.457   4.030  17.972  0.00  0.00    +0.000 A 
ATOM      8  C   UNL     1       5.807   4.395  17.935  0.00  0.00    +0.000 A 
ATOM      9  C   UNL     1       6.527   4.510  16.733  0.00  0.00    +0.000 A 
ATOM     10  C   UNL     1       5.897   4.365  15.496  0.00  0.00    +0.000 A 
ATOM     11  C   UNL     1       4.532   4.070  15.502  0.00  0.00    +0.000 A 
ATOM     12  C   UNL     1       3.838   3.882  16.711  0.00  0.00    +0.000 A 
BRANCH  10  13
ATOM     13  C   UNL     1       6.644   4.555  14.262  0.00  0.00    +0.000 A 
ATOM     14  C   UNL     1       6.606   4.009  12.995  0.00  0.00    +0.000 A 
ATOM     15  N   UNL     1       7.597   4.549  12.210  0.00  0.00    +0.000 NA
ATOM     16  C   UNL     1       8.190   5.394  13.018  0.00  0.00    +0.000 A 
ATOM     17  O   UNL     1       7.672   5.462  14.275  0.00  0.00    +0.000 OA
ENDBRANCH  10  13
ENDBRANCH   6   7
BRANCH   1  18
ATOM     18  S   UNL     1       2.624   6.484  19.260  0.00  0.00    +0.000 S 
ATOM     19  O   UNL     1       1.548   6.450  18.283  0.00  0.00    +0.000 OA
ATOM     20  O   UNL     1       3.913   7.046  18.935  0.00  0.00    +0.000 OA
BRANCH  18  21
ATOM     21  N   UNL     1       2.064   7.434  20.572  0.00  0.00    +0.000 N 
ATOM     22  H   UNL     1       2.873   7.609  21.161  0.00  0.00    +0.000 HD
BRANCH  21  27
ATOM     23  C   UNL     1      -1.058  11.347  20.055  0.00  0.00    +0.000 C 
ATOM     24  C   UNL     1      -0.044  10.280  19.886  0.00  0.00    +0.000 A 
ATOM     25  N   UNL     1       0.726  10.267  18.795  0.00  0.00    +0.000 NA
ATOM     26  O   UNL     1       1.595   9.213  18.966  0.00  0.00    +0.000 OA
ATOM     27  C   UNL     1       1.327   8.573  20.137  0.00  0.00    +0.000 A 
ATOM     28  C   UNL     1       0.283   9.213  20.775  0.00  0.00    +0.000 A 
ATOM     29  C   UNL     1      -0.312   8.957  22.107  0.00  0.00    +0.000 C 
ENDBRANCH  21  27
ENDBRANCH  18  21
ENDBRANCH   1  18
TORSDOF 5
ENDMDL
MODEL 9
REMARK VINA RESULT:      -7.4      1.510      1.716
REMARK  Name = 
REMARK  7 active torsions:
REMARK  status: ('A' for Active; 'I' for Inactive)
REMARK    1  A    between atoms: C_1  and  C_2
REMARK    2  A    between atoms: C_5  and  N_6
REMARK    3  A    between atoms: N_6  and  S_7
REMARK    4  A    between atoms: S_7  and  C_10
REMARK    5  A    between atoms: C_15  and  C_16
REMARK    6  A    between atoms: C_19  and  C_20
REMARK    7  A    between atoms: C_27  and  C_28
REMARK                            x       y       z     vdW  Elec       q    Type
REMARK                         _______ _______ _______ _____ _____    ______ ____
ROOT
ATOM      1  C   UNL     1       4.130   5.090  18.829  0.00  0.00    +0.000 A 
ATOM      2  C   UNL     1       4.507   3.740  19.002  0.00  0.00    +0.000 A 
ATOM      3  C   UNL     1       3.806   2.890  19.848  0.00  0.00    +0.000 A 
ATOM      4  C   UNL     1       2.711   3.375  20.534  0.00  0.00    +0.000 A 
ATOM      5  C   UNL     1       2.314   4.706  20.358  0.00  0.00    +0.000 A 
ATOM      6  C   UNL     1       2.983   5.610  19.487  0.00  0.00    +0.000 A 
ENDROOT
BRANCH   6   7
ATOM      7  C   UNL     1       2.371   6.967  19.324  0.00  0.00    +0.000 A 
ATOM      8  C   UNL     1       1.833   7.717  20.375  0.00  0.00    +0.000 A 
ATOM      9  C   UNL     1       1.297   9.002  20.190  0.00  0.00    +0.000 A 
ATOM     10  C   UNL     1       1.179   9.560  18.916  0.00  0.00    +0.000 A 
ATOM     11  C   UNL     1       1.645   8.803  17.838  0.00  0.00    +0.000 A 
ATOM     12  C   UNL     1       2.249   7.550  18.044  0.00  0.00    +0.000 A 
BRANCH  10  13
ATOM     13  C   UNL     1       0.560  10.865  18.736  0.00  0.00    +0.000 A 
ATOM     14  C   UNL     1      -0.728  11.324  18.547  0.00  0.00    +0.000 A 
ATOM     15  N   UNL     1      -0.732  12.691  18.396  0.00  0.00    +0.000 NA
ATOM     16  C   UNL     1       0.537  13.006  18.500  0.00  0.00    +0.000 A 
ATOM     17  O   UNL     1       1.383  11.961  18.711  0.00  0.00    +0.000 OA
ENDBRANCH  10  13
ENDBRANCH   6   7
BRANCH   1  18
ATOM     18  S   UNL     1       5.149   6.066  17.738  0.00  0.00    +0.000 S 
ATOM     19  O   UNL     1       5.607   7.255  18.438  0.00  0.00    +0.000 OA
ATOM     20  O   UNL     1       4.472   6.159  16.466  0.00  0.00    +0.000 OA
BRANCH  18  21
ATOM     21  N   UNL     1       6.543   5.124  17.410  0.00  0.00    +0.000 N 
ATOM     22  H   UNL     1       6.437   4.266  17.944  0.00  0.00    +0.000 HD
BRANCH  21  27
ATOM     23  C   UNL     1       6.604   3.812  12.552  0.00  0.00    +0.000 C 
ATOM     24  C   UNL     1       6.837   4.416  13.885  0.00  0.00    +0.000 A 
ATOM     25  N   UNL     1       7.675   5.449  14.007  0.00  0.00    +0.000 NA
ATOM     26  O   UNL     1       7.622   5.816  15.332  0.00  0.00    +0.000 OA
ATOM     27  C   UNL     1       6.785   4.987  16.013  0.00  0.00    +0.000 A 
ATOM     28  C   UNL     1       6.249   4.064  15.137  0.00  0.00    +0.000 A 
ATOM     29  C   UNL     1       5.226   3.020  15.371  0.00  0.00    +0.000 C 
ENDBRANCH  21  27
ENDBRANCH  18  21
ENDBRANCH   1  18
TORSDOF 5
ENDMDL
