MODEL 1
REMARK VINA RESULT:      -8.3      0.000      0.000
REMARK  Name = 
REMARK  9 active torsions:
REMARK  status: ('A' for Active; 'I' for Inactive)
REMARK    1  A    between atoms: C_1  and  C_2
REMARK    2  A    between atoms: C_2  and  C_3
REMARK    3  A    between atoms: C_2  and  C_4
REMARK    4  A    between atoms: C_4  and  C_5
REMARK    5  A    between atoms: C_5  and  C_6
REMARK    6  A    between atoms: C_5  and  N_17
REMARK    7  A    between atoms: N_10  and  C_11
REMARK    8  A    between atoms: C_11  and  C_12
REMARK    9  A    between atoms: N_20  and  C_21
REMARK                            x       y       z     vdW  Elec       q    Type
REMARK                         _______ _______ _______ _____ _____    ______ ____
ROOT
ATOM      1  C   UNL     1       4.187   4.343  17.662  0.00  0.00    +0.000 C 
ENDROOT
BRANCH   1   2
ATOM      2  N   UNL     1       4.280   5.553  18.503  0.00  0.00    +0.000 NA
ATOM      3  C   UNL     1       3.994   6.852  17.844  0.00  0.00    +0.000 C 
ATOM      4  C   UNL     1       2.585   7.502  18.040  0.00  0.00    +0.000 C 
ATOM      5  N   UNL     1       2.225   7.423  19.452  0.00  0.00    +0.000 N 
ATOM      6  C   UNL     1       2.179   6.046  19.956  0.00  0.00    +0.000 C 
ATOM      7  C   UNL     1       3.588   5.423  19.811  0.00  0.00    +0.000 C 
BRANCH   5   8
ATOM      8  C   UNL     1       1.477   8.380  20.114  0.00  0.00    +0.000 A 
ATOM      9  C   UNL     1       1.230   8.223  21.491  0.00  0.00    +0.000 A 
ATOM     10  C   UNL     1       0.505   9.160  22.232  0.00  0.00    +0.000 A 
ATOM     11  C   UNL     1      -0.009  10.283  21.597  0.00  0.00    +0.000 A 
ATOM     12  C   UNL     1       0.224  10.461  20.234  0.00  0.00    +0.000 A 
ATOM     13 CL   UNL     1      -0.425  11.848  19.447  0.00  0.00    +0.000 Cl
ATOM     14  C   UNL     1       0.962   9.528  19.498  0.00  0.00    +0.000 A 
ENDBRANCH   5   8
ENDBRANCH   1   2
BRANCH   1  15
ATOM     15  C   UNL     1       5.056   4.420  16.426  0.00  0.00    +0.000 A 
ATOM     16  N   UNL     1       4.627   4.424  15.175  0.00  0.00    +0.000 NA
ATOM     17  N   UNL     1       5.708   4.184  14.376  0.00  0.00    +0.000 NA
ATOM     18  N   UNL     1       6.811   4.090  15.096  0.00  0.00    +0.000 NA
ATOM     19  N   UNL     1       6.431   4.331  16.369  0.00  0.00    +0.000 N 
BRANCH  19  20
ATOM     20  C   UNL     1       7.457   4.467  17.381  0.00  0.00    +0.000 C 
BRANCH  20  21
ATOM     21  C   UNL     1       7.697   5.895  17.745  0.00  0.00    +0.000 A 
ATOM     22  C   UNL     1       8.156   6.553  18.870  0.00  0.00    +0.000 A 
ATOM     23  C   UNL     1       8.129   7.937  18.572  0.00  0.00    +0.000 A 
ATOM     24  C   UNL     1       7.634   8.040  17.294  0.00  0.00    +0.000 A 
ATOM     25  O   UNL     1       7.370   6.812  16.783  0.00  0.00    +0.000 OA
ENDBRANCH  20  21
ENDBRANCH  19  20
ENDBRANCH   1  15
BRANCH   1  26
ATOM     26  C   UNL     1       2.722   3.950  17.320  0.00  0.00    +0.000 C 
BRANCH  26  28
ATOM     27  C   UNL     1       3.420   1.718  18.346  0.00  0.00    +0.000 C 
ATOM     28  C   UNL     1       2.278   2.522  17.720  0.00  0.00    +0.000 C 
ATOM     29  C   UNL     1       1.101   2.604  18.697  0.00  0.00    +0.000 C 
ENDBRANCH  26  28
ENDBRANCH   1  26
TORSDOF 7
ENDMDL
MODEL 2
REMARK VINA RESULT:      -7.9      0.914      1.433
REMARK  Name = 
REMARK  9 active torsions:
REMARK  status: ('A' for Active; 'I' for Inactive)
REMARK    1  A    between atoms: C_1  and  C_2
REMARK    2  A    between atoms: C_2  and  C_3
REMARK    3  A    between atoms: C_2  and  C_4
REMARK    4  A    between atoms: C_4  and  C_5
REMARK    5  A    between atoms: C_5  and  C_6
REMARK    6  A    between atoms: C_5  and  N_17
REMARK    7  A    between atoms: N_10  and  C_11
REMARK    8  A    between atoms: C_11  and  C_12
REMARK    9  A    between atoms: N_20  and  C_21
REMARK                            x       y       z     vdW  Elec       q    Type
REMARK                         _______ _______ _______ _____ _____    ______ ____
ROOT
ATOM      1  C   UNL     1       4.298   4.398  17.879  0.00  0.00    +0.000 C 
ENDROOT
BRANCH   1   2
ATOM      2  N   UNL     1       4.342   5.687  18.598  0.00  0.00    +0.000 NA
ATOM      3  C   UNL     1       4.032   6.905  17.809  0.00  0.00    +0.000 C 
ATOM      4  C   UNL     1       2.603   7.530  17.918  0.00  0.00    +0.000 C 
ATOM      5  N   UNL     1       2.219   7.580  19.325  0.00  0.00    +0.000 N 
ATOM      6  C   UNL     1       2.202   6.258  19.962  0.00  0.00    +0.000 C 
ATOM      7  C   UNL     1       3.630   5.666  19.901  0.00  0.00    +0.000 C 
BRANCH   5   8
ATOM      8  C   UNL     1       1.432   8.575  19.878  0.00  0.00    +0.000 A 
ATOM      9  C   UNL     1       1.012   9.644  19.065  0.00  0.00    +0.000 A 
ATOM     10  C   UNL     1       0.196  10.672  19.545  0.00  0.00    +0.000 A 
ATOM     11  C   UNL     1      -0.209  10.658  20.873  0.00  0.00    +0.000 A 
ATOM     12  C   UNL     1       0.194   9.609  21.697  0.00  0.00    +0.000 A 
ATOM     13 CL   UNL     1      -0.299   9.601  23.347  0.00  0.00    +0.000 Cl
ATOM     14  C   UNL     1       1.000   8.574  21.210  0.00  0.00    +0.000 A 
ENDBRANCH   5   8
ENDBRANCH   1   2
BRANCH   1  15
ATOM     15  C   UNL     1       5.075   4.423  16.580  0.00  0.00    +0.000 A 
ATOM     16  N   UNL     1       4.555   4.386  15.365  0.00  0.00    +0.000 NA
ATOM     17  N   UNL     1       5.572   4.109  14.498  0.00  0.00    +0.000 NA
ATOM     18  N   UNL     1       6.726   4.032  15.139  0.00  0.00    +0.000 NA
ATOM     19  N   UNL     1       6.441   4.322  16.426  0.00  0.00    +0.000 N 
BRANCH  19  20
ATOM     20  C   UNL     1       7.539   4.485  17.355  0.00  0.00    +0.000 C 
BRANCH  20  21
ATOM     21  C   UNL     1       7.762   5.919  17.709  0.00  0.00    +0.000 A 
ATOM     22  C   UNL     1       8.172   6.593  18.844  0.00  0.00    +0.000 A 
ATOM     23  C   UNL     1       8.155   7.972  18.527  0.00  0.00    +0.000 A 
ATOM     24  C   UNL     1       7.714   8.058  17.227  0.00  0.00    +0.000 A 
ATOM     25  O   UNL     1       7.474   6.823  16.722  0.00  0.00    +0.000 OA
ENDBRANCH  20  21
ENDBRANCH  19  20
ENDBRANCH   1  15
BRANCH   1  26
ATOM     26  C   UNL     1       2.853   3.858  17.683  0.00  0.00    +0.000 C 
BRANCH  26  28
ATOM     27  C   UNL     1       0.913   2.404  18.485  0.00  0.00    +0.000 C 
ATOM     28  C   UNL     1       2.402   2.727  18.638  0.00  0.00    +0.000 C 
ATOM     29  C   UNL     1       3.238   1.470  18.377  0.00  0.00    +0.000 C 
ENDBRANCH  26  28
ENDBRANCH   1  26
TORSDOF 7
ENDMDL
MODEL 3
REMARK VINA RESULT:      -7.5      2.036      3.015
REMARK  Name = 
REMARK  9 active torsions:
REMARK  status: ('A' for Active; 'I' for Inactive)
REMARK    1  A    between atoms: C_1  and  C_2
REMARK    2  A    between atoms: C_2  and  C_3
REMARK    3  A    between atoms: C_2  and  C_4
REMARK    4  A    between atoms: C_4  and  C_5
REMARK    5  A    between atoms: C_5  and  C_6
REMARK    6  A    between atoms: C_5  and  N_17
REMARK    7  A    between atoms: N_10  and  C_11
REMARK    8  A    between atoms: C_11  and  C_12
REMARK    9  A    between atoms: N_20  and  C_21
REMARK                            x       y       z     vdW  Elec       q    Type
REMARK                         _______ _______ _______ _____ _____    ______ ____
ROOT
ATOM      1  C   UNL     1       4.576   4.521  18.249  0.00  0.00    +0.000 C 
ENDROOT
BRANCH   1   2
ATOM      2  N   UNL     1       4.461   5.810  18.960  0.00  0.00    +0.000 NA
ATOM      3  C   UNL     1       4.316   7.027  18.122  0.00  0.00    +0.000 C 
ATOM      4  C   UNL     1       2.891   7.642  17.931  0.00  0.00    +0.000 C 
ATOM      5  N   UNL     1       2.222   7.690  19.227  0.00  0.00    +0.000 N 
ATOM      6  C   UNL     1       2.081   6.368  19.848  0.00  0.00    +0.000 C 
ATOM      7  C   UNL     1       3.494   5.785  20.087  0.00  0.00    +0.000 C 
BRANCH   5   8
ATOM      8  C   UNL     1       1.332   8.680  19.602  0.00  0.00    +0.000 A 
ATOM      9  C   UNL     1       0.861   9.581  18.629  0.00  0.00    +0.000 A 
ATOM     10  C   UNL     1      -0.058  10.590  18.926  0.00  0.00    +0.000 A 
ATOM     11  C   UNL     1      -0.519  10.731  20.228  0.00  0.00    +0.000 A 
ATOM     12  C   UNL     1      -0.067   9.850  21.210  0.00  0.00    +0.000 A 
ATOM     13 CL   UNL     1      -0.632  10.035  22.827  0.00  0.00    +0.000 Cl
ATOM     14  C   UNL     1       0.842   8.831  20.906  0.00  0.00    +0.000 A 
ENDBRANCH   5   8
ENDBRANCH   1   2
BRANCH   1  15
ATOM     15  C   UNL     1       5.942   4.309  17.634  0.00  0.00    +0.000 A 
ATOM     16  N   UNL     1       7.092   4.296  18.286  0.00  0.00    +0.000 NA
ATOM     17  N   UNL     1       8.086   4.395  17.355  0.00  0.00    +0.000 NA
ATOM     18  N   UNL     1       7.583   4.409  16.133  0.00  0.00    +0.000 NA
ATOM     19  N   UNL     1       6.251   4.258  16.291  0.00  0.00    +0.000 N 
BRANCH  19  20
ATOM     20  C   UNL     1       5.434   4.063  15.112  0.00  0.00    +0.000 C 
BRANCH  20  21
ATOM     21  C   UNL     1       6.224   4.220  13.854  0.00  0.00    +0.000 A 
ATOM     22  C   UNL     1       6.318   3.520  12.666  0.00  0.00    +0.000 A 
ATOM     23  C   UNL     1       7.282   4.188  11.875  0.00  0.00    +0.000 A 
ATOM     24  C   UNL     1       7.734   5.240  12.635  0.00  0.00    +0.000 A 
ATOM     25  O   UNL     1       7.100   5.270  13.834  0.00  0.00    +0.000 OA
ENDBRANCH  20  21
ENDBRANCH  19  20
ENDBRANCH   1  15
BRANCH   1  26
ATOM     26  C   UNL     1       3.432   4.287  17.222  0.00  0.00    +0.000 C 
BRANCH  26  28
ATOM     27  C   UNL     1       3.432   1.869  18.045  0.00  0.00    +0.000 C 
ATOM     28  C   UNL     1       2.616   2.982  17.381  0.00  0.00    +0.000 C 
ATOM     29  C   UNL     1       1.352   3.262  18.202  0.00  0.00    +0.000 C 
ENDBRANCH  26  28
ENDBRANCH   1  26
TORSDOF 7
ENDMDL
MODEL 4
REMARK VINA RESULT:      -7.4      1.265      1.834
REMARK  Name = 
REMARK  9 active torsions:
REMARK  status: ('A' for Active; 'I' for Inactive)
REMARK    1  A    between atoms: C_1  and  C_2
REMARK    2  A    between atoms: C_2  and  C_3
REMARK    3  A    between atoms: C_2  and  C_4
REMARK    4  A    between atoms: C_4  and  C_5
REMARK    5  A    between atoms: C_5  and  C_6
REMARK    6  A    between atoms: C_5  and  N_17
REMARK    7  A    between atoms: N_10  and  C_11
REMARK    8  A    between atoms: C_11  and  C_12
REMARK    9  A    between atoms: N_20  and  C_21
REMARK                            x       y       z     vdW  Elec       q    Type
REMARK                         _______ _______ _______ _____ _____    ______ ____
ROOT
ATOM      1  C   UNL     1       4.209   4.034  17.607  0.00  0.00    +0.000 C 
ENDROOT
BRANCH   1   2
ATOM      2  N   UNL     1       3.117   5.021  17.487  0.00  0.00    +0.000 NA
ATOM      3  C   UNL     1       1.955   4.849  18.394  0.00  0.00    +0.000 C 
ATOM      4  C   UNL     1       1.865   5.738  19.678  0.00  0.00    +0.000 C 
ATOM      5  N   UNL     1       2.181   7.116  19.318  0.00  0.00    +0.000 N 
ATOM      6  C   UNL     1       3.521   7.264  18.739  0.00  0.00    +0.000 C 
ATOM      7  C   UNL     1       3.590   6.428  17.439  0.00  0.00    +0.000 C 
BRANCH   5   8
ATOM      8  C   UNL     1       1.608   8.223  19.918  0.00  0.00    +0.000 A 
ATOM      9  C   UNL     1       1.386   9.380  19.148  0.00  0.00    +0.000 A 
ATOM     10  C   UNL     1       0.790  10.528  19.677  0.00  0.00    +0.000 A 
ATOM     11  C   UNL     1       0.411  10.545  21.013  0.00  0.00    +0.000 A 
ATOM     12  C   UNL     1       0.619   9.410  21.795  0.00  0.00    +0.000 A 
ATOM     13 CL   UNL     1       0.159   9.440  23.455  0.00  0.00    +0.000 Cl
ATOM     14  C   UNL     1       1.204   8.258  21.259  0.00  0.00    +0.000 A 
ENDBRANCH   5   8
ENDBRANCH   1   2
BRANCH   1  15
ATOM     15  C   UNL     1       5.373   4.332  16.688  0.00  0.00    +0.000 A 
ATOM     16  N   UNL     1       5.398   4.137  15.380  0.00  0.00    +0.000 NA
ATOM     17  N   UNL     1       6.701   4.226  14.982  0.00  0.00    +0.000 NA
ATOM     18  N   UNL     1       7.482   4.531  16.003  0.00  0.00    +0.000 NA
ATOM     19  N   UNL     1       6.652   4.695  17.055  0.00  0.00    +0.000 N 
BRANCH  19  20
ATOM     20  C   UNL     1       7.200   5.206  18.293  0.00  0.00    +0.000 C 
BRANCH  20  21
ATOM     21  C   UNL     1       7.584   6.645  18.182  0.00  0.00    +0.000 A 
ATOM     22  C   UNL     1       8.472   7.473  18.841  0.00  0.00    +0.000 A 
ATOM     23  C   UNL     1       8.339   8.757  18.261  0.00  0.00    +0.000 A 
ATOM     24  C   UNL     1       7.364   8.640  17.300  0.00  0.00    +0.000 A 
ATOM     25  O   UNL     1       6.900   7.367  17.242  0.00  0.00    +0.000 OA
ENDBRANCH  20  21
ENDBRANCH  19  20
ENDBRANCH   1  15
BRANCH   1  26
ATOM     26  C   UNL     1       3.720   2.564  17.472  0.00  0.00    +0.000 C 
BRANCH  26  28
ATOM     27  C   UNL     1       4.347   2.401  19.942  0.00  0.00    +0.000 C 
ATOM     28  C   UNL     1       3.576   1.759  18.785  0.00  0.00    +0.000 C 
ATOM     29  C   UNL     1       2.093   1.635  19.152  0.00  0.00    +0.000 C 
ENDBRANCH  26  28
ENDBRANCH   1  26
TORSDOF 7
ENDMDL
MODEL 5
REMARK VINA RESULT:      -7.1      2.292      3.379
REMARK  Name = 
REMARK  9 active torsions:
REMARK  status: ('A' for Active; 'I' for Inactive)
REMARK    1  A    between atoms: C_1  and  C_2
REMARK    2  A    between atoms: C_2  and  C_3
REMARK    3  A    between atoms: C_2  and  C_4
REMARK    4  A    between atoms: C_4  and  C_5
REMARK    5  A    between atoms: C_5  and  C_6
REMARK    6  A    between atoms: C_5  and  N_17
REMARK    7  A    between atoms: N_10  and  C_11
REMARK    8  A    between atoms: C_11  and  C_12
REMARK    9  A    between atoms: N_20  and  C_21
REMARK                            x       y       z     vdW  Elec       q    Type
REMARK                         _______ _______ _______ _____ _____    ______ ____
ROOT
ATOM      1  C   UNL     1       2.995   6.062  19.050  0.00  0.00    +0.000 C 
ENDROOT
BRANCH   1   2
ATOM      2  N   UNL     1       2.855   7.510  19.301  0.00  0.00    +0.000 NA
ATOM      3  C   UNL     1       2.535   8.365  18.131  0.00  0.00    +0.000 C 
ATOM      4  C   UNL     1       1.056   8.826  17.918  0.00  0.00    +0.000 C 
ATOM      5  N   UNL     1       0.518   9.283  19.195  0.00  0.00    +0.000 N 
ATOM      6  C   UNL     1       0.540   8.245  20.231  0.00  0.00    +0.000 C 
ATOM      7  C   UNL     1       2.009   7.831  20.480  0.00  0.00    +0.000 C 
BRANCH   5   8
ATOM      8  C   UNL     1      -0.403  10.308  19.324  0.00  0.00    +0.000 A 
ATOM      9  C   UNL     1      -0.199  11.290  20.310  0.00  0.00    +0.000 A 
ATOM     10  C   UNL     1      -1.071  12.369  20.484  0.00  0.00    +0.000 A 
ATOM     11  C   UNL     1      -2.190  12.478  19.671  0.00  0.00    +0.000 A 
ATOM     12  C   UNL     1      -2.413  11.518  18.685  0.00  0.00    +0.000 A 
ATOM     13 CL   UNL     1      -3.810  11.650  17.686  0.00  0.00    +0.000 Cl
ATOM     14  C   UNL     1      -1.531  10.447  18.505  0.00  0.00    +0.000 A 
ENDBRANCH   5   8
ENDBRANCH   1   2
BRANCH   1  15
ATOM     15  C   UNL     1       4.439   5.620  18.954  0.00  0.00    +0.000 A 
ATOM     16  N   UNL     1       5.121   4.988  19.894  0.00  0.00    +0.000 NA
ATOM     17  N   UNL     1       6.441   5.055  19.550  0.00  0.00    +0.000 NA
ATOM     18  N   UNL     1       6.592   5.662  18.386  0.00  0.00    +0.000 NA
ATOM     19  N   UNL     1       5.341   5.934  17.958  0.00  0.00    +0.000 N 
BRANCH  19  20
ATOM     20  C   UNL     1       5.168   6.451  16.618  0.00  0.00    +0.000 C 
BRANCH  20  21
ATOM     21  C   UNL     1       5.647   5.488  15.582  0.00  0.00    +0.000 A 
ATOM     22  C   UNL     1       5.179   4.294  15.066  0.00  0.00    +0.000 A 
ATOM     23  C   UNL     1       6.127   3.866  14.105  0.00  0.00    +0.000 A 
ATOM     24  C   UNL     1       7.124   4.812  14.109  0.00  0.00    +0.000 A 
ATOM     25  O   UNL     1       6.845   5.798  14.997  0.00  0.00    +0.000 OA
ENDBRANCH  20  21
ENDBRANCH  19  20
ENDBRANCH   1  15
BRANCH   1  26
ATOM     26  C   UNL     1       2.153   5.568  17.840  0.00  0.00    +0.000 C 
BRANCH  26  28
ATOM     27  C   UNL     1       2.485   3.077  17.391  0.00  0.00    +0.000 C 
ATOM     28  C   UNL     1       1.548   4.148  17.952  0.00  0.00    +0.000 C 
ATOM     29  C   UNL     1       1.223   3.842  19.418  0.00  0.00    +0.000 C 
ENDBRANCH  26  28
ENDBRANCH   1  26
TORSDOF 7
ENDMDL
MODEL 6
REMARK VINA RESULT:      -7.1      2.236      3.429
REMARK  Name = 
REMARK  9 active torsions:
REMARK  status: ('A' for Active; 'I' for Inactive)
REMARK    1  A    between atoms: C_1  and  C_2
REMARK    2  A    between atoms: C_2  and  C_3
REMARK    3  A    between atoms: C_2  and  C_4
REMARK    4  A    between atoms: C_4  and  C_5
REMARK    5  A    between atoms: C_5  and  C_6
REMARK    6  A    between atoms: C_5  and  N_17
REMARK    7  A    between atoms: N_10  and  C_11
REMARK    8  A    between atoms: C_11  and  C_12
REMARK    9  A    between atoms: N_20  and  C_21
REMARK                            x       y       z     vdW  Elec       q    Type
REMARK                         _______ _______ _______ _____ _____    ______ ____
ROOT
ATOM      1  C   UNL     1       2.975   6.096  19.038  0.00  0.00    +0.000 C 
ENDROOT
BRANCH   1   2
ATOM      2  N   UNL     1       2.853   7.548  19.276  0.00  0.00    +0.000 NA
ATOM      3  C   UNL     1       2.501   8.392  18.107  0.00  0.00    +0.000 C 
ATOM      4  C   UNL     1       1.018   8.860  17.937  0.00  0.00    +0.000 C 
ATOM      5  N   UNL     1       0.526   9.337  19.226  0.00  0.00    +0.000 N 
ATOM      6  C   UNL     1       0.575   8.311  20.273  0.00  0.00    +0.000 C 
ATOM      7  C   UNL     1       2.049   7.888  20.478  0.00  0.00    +0.000 C 
BRANCH   5   8
ATOM      8  C   UNL     1      -0.383  10.370  19.372  0.00  0.00    +0.000 A 
ATOM      9  C   UNL     1      -1.369  10.558  18.386  0.00  0.00    +0.000 A 
ATOM     10  C   UNL     1      -2.336  11.563  18.478  0.00  0.00    +0.000 A 
ATOM     11  C   UNL     1      -2.325  12.422  19.568  0.00  0.00    +0.000 A 
ATOM     12  C   UNL     1      -1.359  12.255  20.558  0.00  0.00    +0.000 A 
ATOM     13 CL   UNL     1      -1.341  13.330  21.904  0.00  0.00    +0.000 Cl
ATOM     14  C   UNL     1      -0.400  11.239  20.471  0.00  0.00    +0.000 A 
ENDBRANCH   5   8
ENDBRANCH   1   2
BRANCH   1  15
ATOM     15  C   UNL     1       4.414   5.628  18.986  0.00  0.00    +0.000 A 
ATOM     16  N   UNL     1       5.044   4.954  19.932  0.00  0.00    +0.000 NA
ATOM     17  N   UNL     1       6.378   5.005  19.644  0.00  0.00    +0.000 NA
ATOM     18  N   UNL     1       6.588   5.644  18.507  0.00  0.00    +0.000 NA
ATOM     19  N   UNL     1       5.360   5.955  18.038  0.00  0.00    +0.000 N 
BRANCH  19  20
ATOM     20  C   UNL     1       5.252   6.517  16.709  0.00  0.00    +0.000 C 
BRANCH  20  21
ATOM     21  C   UNL     1       5.693   5.552  15.657  0.00  0.00    +0.000 A 
ATOM     22  C   UNL     1       5.159   4.409  15.095  0.00  0.00    +0.000 A 
ATOM     23  C   UNL     1       6.100   3.944  14.146  0.00  0.00    +0.000 A 
ATOM     24  C   UNL     1       7.159   4.818  14.202  0.00  0.00    +0.000 A 
ATOM     25  O   UNL     1       6.924   5.796  15.111  0.00  0.00    +0.000 OA
ENDBRANCH  20  21
ENDBRANCH  19  20
ENDBRANCH   1  15
BRANCH   1  26
ATOM     26  C   UNL     1       2.159   5.609  17.807  0.00  0.00    +0.000 C 
BRANCH  26  28
ATOM     27  C   UNL     1       2.531   3.138  17.282  0.00  0.00    +0.000 C 
ATOM     28  C   UNL     1       1.580   4.176  17.884  0.00  0.00    +0.000 C 
ATOM     29  C   UNL     1       1.277   3.822  19.344  0.00  0.00    +0.000 C 
ENDBRANCH  26  28
ENDBRANCH   1  26
TORSDOF 7
ENDMDL
MODEL 7
REMARK VINA RESULT:      -6.9      1.926      2.869
REMARK  Name = 
REMARK  9 active torsions:
REMARK  status: ('A' for Active; 'I' for Inactive)
REMARK    1  A    between atoms: C_1  and  C_2
REMARK    2  A    between atoms: C_2  and  C_3
REMARK    3  A    between atoms: C_2  and  C_4
REMARK    4  A    between atoms: C_4  and  C_5
REMARK    5  A    between atoms: C_5  and  C_6
REMARK    6  A    between atoms: C_5  and  N_17
REMARK    7  A    between atoms: N_10  and  C_11
REMARK    8  A    between atoms: C_11  and  C_12
REMARK    9  A    between atoms: N_20  and  C_21
REMARK                            x       y       z     vdW  Elec       q    Type
REMARK                         _______ _______ _______ _____ _____    ______ ____
ROOT
ATOM      1  C   UNL     1       4.340   4.941  18.216  0.00  0.00    +0.000 C 
ENDROOT
BRANCH   1   2
ATOM      2  N   UNL     1       4.224   6.303  18.773  0.00  0.00    +0.000 NA
ATOM      3  C   UNL     1       3.874   7.388  17.823  0.00  0.00    +0.000 C 
ATOM      4  C   UNL     1       2.393   7.888  17.766  0.00  0.00    +0.000 C 
ATOM      5  N   UNL     1       1.904   8.066  19.129  0.00  0.00    +0.000 N 
ATOM      6  C   UNL     1       1.950   6.831  19.920  0.00  0.00    +0.000 C 
ATOM      7  C   UNL     1       3.423   6.369  20.022  0.00  0.00    +0.000 C 
BRANCH   5   8
ATOM      8  C   UNL     1       0.999   9.043  19.505  0.00  0.00    +0.000 A 
ATOM      9  C   UNL     1       0.696   9.205  20.870  0.00  0.00    +0.000 A 
ATOM     10  C   UNL     1      -0.188  10.185  21.329  0.00  0.00    +0.000 A 
ATOM     11  C   UNL     1      -0.807  11.026  20.415  0.00  0.00    +0.000 A 
ATOM     12  C   UNL     1      -0.522  10.886  19.057  0.00  0.00    +0.000 A 
ATOM     13 CL   UNL     1      -1.302  11.923  17.925  0.00  0.00    +0.000 Cl
ATOM     14  C   UNL     1       0.374   9.912  18.603  0.00  0.00    +0.000 A 
ENDBRANCH   5   8
ENDBRANCH   1   2
BRANCH   1  15
ATOM     15  C   UNL     1       5.714   4.653  17.649  0.00  0.00    +0.000 A 
ATOM     16  N   UNL     1       6.747   4.180  18.325  0.00  0.00    +0.000 NA
ATOM     17  N   UNL     1       7.856   4.362  17.548  0.00  0.00    +0.000 NA
ATOM     18  N   UNL     1       7.528   4.883  16.379  0.00  0.00    +0.000 NA
ATOM     19  N   UNL     1       6.181   4.980  16.394  0.00  0.00    +0.000 N 
BRANCH  19  20
ATOM     20  C   UNL     1       5.504   5.362  15.173  0.00  0.00    +0.000 C 
BRANCH  20  21
ATOM     21  C   UNL     1       6.126   4.733  13.969  0.00  0.00    +0.000 A 
ATOM     22  C   UNL     1       5.877   3.598  13.222  0.00  0.00    +0.000 A 
ATOM     23  C   UNL     1       6.859   3.558  12.203  0.00  0.00    +0.000 A 
ATOM     24  C   UNL     1       7.659   4.658  12.403  0.00  0.00    +0.000 A 
ATOM     25  O   UNL     1       7.224   5.376  13.468  0.00  0.00    +0.000 OA
ENDBRANCH  20  21
ENDBRANCH  19  20
ENDBRANCH   1  15
BRANCH   1  26
ATOM     26  C   UNL     1       3.210   4.597  17.205  0.00  0.00    +0.000 C 
BRANCH  26  28
ATOM     27  C   UNL     1       3.271   2.152  17.937  0.00  0.00    +0.000 C 
ATOM     28  C   UNL     1       2.386   3.320  17.496  0.00  0.00    +0.000 C 
ATOM     29  C   UNL     1       1.340   3.619  18.575  0.00  0.00    +0.000 C 
ENDBRANCH  26  28
ENDBRANCH   1  26
TORSDOF 7
ENDMDL
MODEL 8
REMARK VINA RESULT:      -6.8      2.001      3.033
REMARK  Name = 
REMARK  9 active torsions:
REMARK  status: ('A' for Active; 'I' for Inactive)
REMARK    1  A    between atoms: C_1  and  C_2
REMARK    2  A    between atoms: C_2  and  C_3
REMARK    3  A    between atoms: C_2  and  C_4
REMARK    4  A    between atoms: C_4  and  C_5
REMARK    5  A    between atoms: C_5  and  C_6
REMARK    6  A    between atoms: C_5  and  N_17
REMARK    7  A    between atoms: N_10  and  C_11
REMARK    8  A    between atoms: C_11  and  C_12
REMARK    9  A    between atoms: N_20  and  C_21
REMARK                            x       y       z     vdW  Elec       q    Type
REMARK                         _______ _______ _______ _____ _____    ______ ____
ROOT
ATOM      1  C   UNL     1       2.642   5.428  19.860  0.00  0.00    +0.000 C 
ENDROOT
BRANCH   1   2
ATOM      2  N   UNL     1       2.866   6.887  19.798  0.00  0.00    +0.000 NA
ATOM      3  C   UNL     1       2.888   7.504  18.449  0.00  0.00    +0.000 C 
ATOM      4  C   UNL     1       1.607   8.242  17.938  0.00  0.00    +0.000 C 
ATOM      5  N   UNL     1       1.097   9.092  19.009  0.00  0.00    +0.000 N 
ATOM      6  C   UNL     1       0.752   8.341  20.222  0.00  0.00    +0.000 C 
ATOM      7  C   UNL     1       2.032   7.658  20.756  0.00  0.00    +0.000 C 
BRANCH   5   8
ATOM      8  C   UNL     1       0.470  10.308  18.799  0.00  0.00    +0.000 A 
ATOM      9  C   UNL     1       1.230  11.490  18.869  0.00  0.00    +0.000 A 
ATOM     10  C   UNL     1       0.674  12.752  18.644  0.00  0.00    +0.000 A 
ATOM     11  C   UNL     1      -0.680  12.858  18.356  0.00  0.00    +0.000 A 
ATOM     12  C   UNL     1      -1.454  11.701  18.281  0.00  0.00    +0.000 A 
ATOM     13 CL   UNL     1      -3.136  11.838  17.936  0.00  0.00    +0.000 Cl
ATOM     14  C   UNL     1      -0.890  10.438  18.493  0.00  0.00    +0.000 A 
ENDBRANCH   5   8
ENDBRANCH   1   2
BRANCH   1  15
ATOM     15  C   UNL     1       2.921   4.735  18.544  0.00  0.00    +0.000 A 
ATOM     16  N   UNL     1       2.063   4.587  17.549  0.00  0.00    +0.000 NA
ATOM     17  N   UNL     1       2.586   3.654  16.700  0.00  0.00    +0.000 NA
ATOM     18  N   UNL     1       3.778   3.261  17.113  0.00  0.00    +0.000 NA
ATOM     19  N   UNL     1       4.039   4.000  18.212  0.00  0.00    +0.000 N 
BRANCH  19  20
ATOM     20  C   UNL     1       5.359   3.918  18.799  0.00  0.00    +0.000 C 
BRANCH  20  21
ATOM     21  C   UNL     1       6.211   5.087  18.425  0.00  0.00    +0.000 A 
ATOM     22  C   UNL     1       6.251   5.965  17.358  0.00  0.00    +0.000 A 
ATOM     23  C   UNL     1       7.330   6.848  17.599  0.00  0.00    +0.000 A 
ATOM     24  C   UNL     1       7.896   6.443  18.784  0.00  0.00    +0.000 A 
ATOM     25  O   UNL     1       7.227   5.379  19.293  0.00  0.00    +0.000 OA
ENDBRANCH  20  21
ENDBRANCH  19  20
ENDBRANCH   1  15
BRANCH   1  26
ATOM     26  C   UNL     1       1.248   5.050  20.434  0.00  0.00    +0.000 C 
BRANCH  26  28
ATOM     27  C   UNL     1       0.696   2.638  19.799  0.00  0.00    +0.000 C 
ATOM     28  C   UNL     1       1.077   3.594  20.932  0.00  0.00    +0.000 C 
ATOM     29  C   UNL     1       2.374   3.124  21.599  0.00  0.00    +0.000 C 
ENDBRANCH  26  28
ENDBRANCH   1  26
TORSDOF 7
ENDMDL
MODEL 9
REMARK VINA RESULT:      -6.7      4.197      8.935
REMARK  Name = 
REMARK  9 active torsions:
REMARK  status: ('A' for Active; 'I' for Inactive)
REMARK    1  A    between atoms: C_1  and  C_2
REMARK    2  A    between atoms: C_2  and  C_3
REMARK    3  A    between atoms: C_2  and  C_4
REMARK    4  A    between atoms: C_4  and  C_5
REMARK    5  A    between atoms: C_5  and  C_6
REMARK    6  A    between atoms: C_5  and  N_17
REMARK    7  A    between atoms: N_10  and  C_11
REMARK    8  A    between atoms: C_11  and  C_12
REMARK    9  A    between atoms: N_20  and  C_21
REMARK                            x       y       z     vdW  Elec       q    Type
REMARK                         _______ _______ _______ _____ _____    ______ ____
ROOT
ATOM      1  C   UNL     1       0.052   9.987  19.764  0.00  0.00    +0.000 C 
ENDROOT
BRANCH   1   2
ATOM      2  N   UNL     1       1.438   9.488  19.663  0.00  0.00    +0.000 NA
ATOM      3  C   UNL     1       1.783   8.297  20.479  0.00  0.00    +0.000 C 
ATOM      4  C   UNL     1       1.821   6.896  19.785  0.00  0.00    +0.000 C 
ATOM      5  N   UNL     1       2.537   7.018  18.519  0.00  0.00    +0.000 N 
ATOM      6  C   UNL     1       1.916   7.979  17.600  0.00  0.00    +0.000 C 
ATOM      7  C   UNL     1       1.930   9.375  18.266  0.00  0.00    +0.000 C 
BRANCH   5   8
ATOM      8  C   UNL     1       3.325   6.019  17.976  0.00  0.00    +0.000 A 
ATOM      9  C   UNL     1       4.449   6.376  17.209  0.00  0.00    +0.000 A 
ATOM     10  C   UNL     1       5.307   5.424  16.650  0.00  0.00    +0.000 A 
ATOM     11  C   UNL     1       5.043   4.075  16.839  0.00  0.00    +0.000 A 
ATOM     12  C   UNL     1       3.935   3.696  17.596  0.00  0.00    +0.000 A 
ATOM     13 CL   UNL     1       3.603   2.021  17.818  0.00  0.00    +0.000 Cl
ATOM     14  C   UNL     1       3.087   4.652  18.166  0.00  0.00    +0.000 A 
ENDBRANCH   5   8
ENDBRANCH   1   2
BRANCH   1  15
ATOM     15  C   UNL     1      -0.061  11.469  19.481  0.00  0.00    +0.000 A 
ATOM     16  N   UNL     1       0.925  12.347  19.543  0.00  0.00    +0.000 NA
ATOM     17  N   UNL     1       0.361  13.591  19.532  0.00  0.00    +0.000 NA
ATOM     18  N   UNL     1      -0.951  13.508  19.404  0.00  0.00    +0.000 NA
ATOM     19  N   UNL     1      -1.217  12.191  19.274  0.00  0.00    +0.000 N 
BRANCH  19  20
ATOM     20  C   UNL     1      -2.568  11.790  18.943  0.00  0.00    +0.000 C 
BRANCH  20  21
ATOM     21  C   UNL     1      -2.643  11.131  17.605  0.00  0.00    +0.000 A 
ATOM     22  C   UNL     1      -2.621  11.573  16.296  0.00  0.00    +0.000 A 
ATOM     23  C   UNL     1      -2.754  10.427  15.476  0.00  0.00    +0.000 A 
ATOM     24  C   UNL     1      -2.871   9.359  16.334  0.00  0.00    +0.000 A 
ATOM     25  O   UNL     1      -2.804   9.772  17.624  0.00  0.00    +0.000 OA
ENDBRANCH  20  21
ENDBRANCH  19  20
ENDBRANCH   1  15
BRANCH   1  26
ATOM     26  C   UNL     1      -0.641   9.595  21.099  0.00  0.00    +0.000 C 
BRANCH  26  28
ATOM     27  C   UNL     1      -1.405  11.356  22.783  0.00  0.00    +0.000 C 
ATOM     28  C   UNL     1      -0.266  10.432  22.346  0.00  0.00    +0.000 C 
ATOM     29  C   UNL     1       0.118   9.496  23.496  0.00  0.00    +0.000 C 
ENDBRANCH  26  28
ENDBRANCH   1  26
TORSDOF 7
ENDMDL
