MODEL 1
REMARK VINA RESULT:      -9.1      0.000      0.000
REMARK  Name = 
REMARK  3 active torsions:
REMARK  status: ('A' for Active; 'I' for Inactive)
REMARK    1  A    between atoms: C_2  and  C_18
REMARK    2  A    between atoms: N_6  and  C_7
REMARK    3  A    between atoms: C_18  and  C_19
REMARK                            x       y       z     vdW  Elec       q    Type
REMARK                         _______ _______ _______ _____ _____    ______ ____
ROOT
ATOM      1  O   UNL     1       2.011   5.120  21.149  0.00  0.00    +0.000 OA
ATOM      2  C   UNL     1       2.406   5.555  20.062  0.00  0.00    +0.000 C 
ATOM      3  N   UNL     1       2.241   6.901  19.761  0.00  0.00    +0.000 N 
ATOM      4  C   UNL     1       2.659   7.601  18.531  0.00  0.00    +0.000 C 
ATOM      5  C   UNL     1       1.568   8.526  17.982  0.00  0.00    +0.000 C 
ATOM      6  N   UNL     1       1.106   9.415  19.041  0.00  0.00    +0.000 N 
ATOM      7  C   UNL     1       0.590   8.747  20.238  0.00  0.00    +0.000 C 
ATOM      8  C   UNL     1       1.681   7.802  20.795  0.00  0.00    +0.000 C 
ENDROOT
BRANCH   6   9
ATOM      9  C   UNL     1       1.006  10.775  18.866  0.00  0.00    +0.000 A 
ATOM     10  N   UNL     1       2.119  11.485  18.513  0.00  0.00    +0.000 NA
ATOM     11  C   UNL     1       2.036  12.821  18.357  0.00  0.00    +0.000 A 
ATOM     12  N   UNL     1       0.955  13.607  18.472  0.00  0.00    +0.000 NA
ATOM     13  C   UNL     1      -0.123  12.881  18.790  0.00  0.00    +0.000 A 
ATOM     14  N   UNL     1      -1.394  13.348  18.970  0.00  0.00    +0.000 N 
ATOM     15  C   UNL     1      -2.191  12.277  19.255  0.00  0.00    +0.000 A 
ATOM     16  N   UNL     1      -1.509  11.153  19.272  0.00  0.00    +0.000 NA
ATOM     17  C   UNL     1      -0.199  11.517  18.993  0.00  0.00    +0.000 A 
ATOM     18  H   UNL     1      -1.674  14.313  18.896  0.00  0.00    +0.000 HD
ENDBRANCH   6   9
BRANCH   2  19
ATOM     19  C   UNL     1       3.007   4.551  18.994  0.00  0.00    +0.000 C 
ATOM     20  C   UNL     1       1.990   4.393  17.820  0.00  0.00    +0.000 C 
ATOM     21  C   UNL     1       0.741   3.590  18.210  0.00  0.00    +0.000 C 
ATOM     22  N   UNL     1       1.089   2.273  18.743  0.00  0.00    +0.000 NA
ATOM     23  C   UNL     1       1.897   2.419  19.949  0.00  0.00    +0.000 C 
ATOM     24  C   UNL     1       3.200   3.143  19.639  0.00  0.00    +0.000 C 
ATOM     25  H   UNL     1       1.608   1.747  18.039  0.00  0.00    +0.000 HD
BRANCH  19  26
ATOM     26  C   UNL     1       4.329   5.127  18.393  0.00  0.00    +0.000 A 
ATOM     27  C   UNL     1       4.364   5.676  17.098  0.00  0.00    +0.000 A 
ATOM     28  C   UNL     1       5.482   6.385  16.640  0.00  0.00    +0.000 A 
ATOM     29  C   UNL     1       6.624   6.492  17.433  0.00  0.00    +0.000 A 
ATOM     30 CL   UNL     1       7.935   7.450  16.845  0.00  0.00    +0.000 Cl
ATOM     31  C   UNL     1       6.663   5.839  18.662  0.00  0.00    +0.000 A 
ATOM     32 CL   UNL     1       8.070   5.839  19.668  0.00  0.00    +0.000 Cl
ATOM     33  C   UNL     1       5.528   5.164  19.133  0.00  0.00    +0.000 A 
ENDBRANCH  19  26
ENDBRANCH   2  19
TORSDOF 3
ENDMDL
MODEL 2
REMARK VINA RESULT:      -8.5      1.145      1.145
REMARK  Name = 
REMARK  3 active torsions:
REMARK  status: ('A' for Active; 'I' for Inactive)
REMARK    1  A    between atoms: C_2  and  C_18
REMARK    2  A    between atoms: N_6  and  C_7
REMARK    3  A    between atoms: C_18  and  C_19
REMARK                            x       y       z     vdW  Elec       q    Type
REMARK                         _______ _______ _______ _____ _____    ______ ____
ROOT
ATOM      1  O   UNL     1       2.076   4.708  21.140  0.00  0.00    +0.000 OA
ATOM      2  C   UNL     1       2.444   5.295  20.117  0.00  0.00    +0.000 C 
ATOM      3  N   UNL     1       2.263   6.667  20.011  0.00  0.00    +0.000 N 
ATOM      4  C   UNL     1       2.649   7.536  18.883  0.00  0.00    +0.000 C 
ATOM      5  C   UNL     1       1.540   8.518  18.490  0.00  0.00    +0.000 C 
ATOM      6  N   UNL     1       1.094   9.245  19.672  0.00  0.00    +0.000 N 
ATOM      7  C   UNL     1       0.608   8.411  20.773  0.00  0.00    +0.000 C 
ATOM      8  C   UNL     1       1.718   7.410  21.171  0.00  0.00    +0.000 C 
ENDROOT
BRANCH   6   9
ATOM      9  C   UNL     1       0.978  10.615  19.690  0.00  0.00    +0.000 A 
ATOM     10  N   UNL     1       1.495  11.340  18.652  0.00  0.00    +0.000 NA
ATOM     11  C   UNL     1       1.404  12.685  18.669  0.00  0.00    +0.000 A 
ATOM     12  N   UNL     1       0.823  13.469  19.589  0.00  0.00    +0.000 NA
ATOM     13  C   UNL     1       0.303  12.730  20.576  0.00  0.00    +0.000 A 
ATOM     14  N   UNL     1      -0.375  13.193  21.669  0.00  0.00    +0.000 N 
ATOM     15  C   UNL     1      -0.754  12.110  22.408  0.00  0.00    +0.000 A 
ATOM     16  N   UNL     1      -0.359  10.982  21.860  0.00  0.00    +0.000 NA
ATOM     17  C   UNL     1       0.322  11.355  20.709  0.00  0.00    +0.000 A 
ATOM     18  H   UNL     1      -0.557  14.163  21.871  0.00  0.00    +0.000 HD
ENDBRANCH   6   9
BRANCH   2  19
ATOM     19  C   UNL     1       3.031   4.456  18.908  0.00  0.00    +0.000 C 
ATOM     20  C   UNL     1       1.996   4.463  17.739  0.00  0.00    +0.000 C 
ATOM     21  C   UNL     1       0.755   3.608  18.029  0.00  0.00    +0.000 C 
ATOM     22  N   UNL     1       1.113   2.230  18.363  0.00  0.00    +0.000 NA
ATOM     23  C   UNL     1       1.939   2.205  19.565  0.00  0.00    +0.000 C 
ATOM     24  C   UNL     1       3.236   2.971  19.343  0.00  0.00    +0.000 C 
ATOM     25  H   UNL     1       1.622   1.811  17.583  0.00  0.00    +0.000 HD
BRANCH  19  26
ATOM     26  C   UNL     1       4.342   5.117  18.376  0.00  0.00    +0.000 A 
ATOM     27  C   UNL     1       4.369   5.802  17.147  0.00  0.00    +0.000 A 
ATOM     28  C   UNL     1       5.474   6.577  16.771  0.00  0.00    +0.000 A 
ATOM     29  C   UNL     1       6.613   6.619  17.574  0.00  0.00    +0.000 A 
ATOM     30 CL   UNL     1       7.906   7.657  17.096  0.00  0.00    +0.000 Cl
ATOM     31  C   UNL     1       6.663   5.838  18.727  0.00  0.00    +0.000 A 
ATOM     32 CL   UNL     1       8.069   5.756  19.730  0.00  0.00    +0.000 Cl
ATOM     33  C   UNL     1       5.540   5.096  19.119  0.00  0.00    +0.000 A 
ENDBRANCH  19  26
ENDBRANCH   2  19
TORSDOF 3
ENDMDL
MODEL 3
REMARK VINA RESULT:      -8.5      3.149      7.885
REMARK  Name = 
REMARK  3 active torsions:
REMARK  status: ('A' for Active; 'I' for Inactive)
REMARK    1  A    between atoms: C_2  and  C_18
REMARK    2  A    between atoms: N_6  and  C_7
REMARK    3  A    between atoms: C_18  and  C_19
REMARK                            x       y       z     vdW  Elec       q    Type
REMARK                         _______ _______ _______ _____ _____    ______ ____
ROOT
ATOM      1  O   UNL     1      -0.531  10.932  21.922  0.00  0.00    +0.000 OA
ATOM      2  C   UNL     1      -0.218  10.895  20.728  0.00  0.00    +0.000 C 
ATOM      3  N   UNL     1       0.311   9.728  20.193  0.00  0.00    +0.000 N 
ATOM      4  C   UNL     1       0.725   9.490  18.796  0.00  0.00    +0.000 C 
ATOM      5  C   UNL     1       2.084   8.790  18.697  0.00  0.00    +0.000 C 
ATOM      6  N   UNL     1       2.073   7.589  19.524  0.00  0.00    +0.000 N 
ATOM      7  C   UNL     1       1.764   7.807  20.938  0.00  0.00    +0.000 C 
ATOM      8  C   UNL     1       0.397   8.523  21.050  0.00  0.00    +0.000 C 
ENDROOT
BRANCH   6   9
ATOM      9  C   UNL     1       2.486   6.367  19.048  0.00  0.00    +0.000 A 
ATOM     10  N   UNL     1       3.383   6.323  18.017  0.00  0.00    +0.000 NA
ATOM     11  C   UNL     1       3.781   5.131  17.530  0.00  0.00    +0.000 A 
ATOM     12  N   UNL     1       3.433   3.903  17.946  0.00  0.00    +0.000 NA
ATOM     13  C   UNL     1       2.578   3.979  18.972  0.00  0.00    +0.000 A 
ATOM     14  N   UNL     1       2.030   2.930  19.654  0.00  0.00    +0.000 N 
ATOM     15  C   UNL     1       1.237   3.445  20.639  0.00  0.00    +0.000 A 
ATOM     16  N   UNL     1       1.240   4.761  20.628  0.00  0.00    +0.000 NA
ATOM     17  C   UNL     1       2.071   5.115  19.574  0.00  0.00    +0.000 A 
ATOM     18  H   UNL     1       2.198   1.956  19.455  0.00  0.00    +0.000 HD
ENDBRANCH   6   9
BRANCH   2  19
ATOM     19  C   UNL     1      -0.340  12.209  19.851  0.00  0.00    +0.000 C 
ATOM     20  C   UNL     1      -1.209  13.252  20.622  0.00  0.00    +0.000 C 
ATOM     21  C   UNL     1      -2.696  12.875  20.677  0.00  0.00    +0.000 C 
ATOM     22  N   UNL     1      -3.251  12.663  19.341  0.00  0.00    +0.000 NA
ATOM     23  C   UNL     1      -2.556  11.565  18.679  0.00  0.00    +0.000 C 
ATOM     24  C   UNL     1      -1.077  11.886  18.512  0.00  0.00    +0.000 C 
ATOM     25  H   UNL     1      -3.151  13.518  18.792  0.00  0.00    +0.000 HD
BRANCH  19  26
ATOM     26  C   UNL     1       1.068  12.845  19.628  0.00  0.00    +0.000 A 
ATOM     27  C   UNL     1       1.572  13.071  18.334  0.00  0.00    +0.000 A 
ATOM     28  C   UNL     1       2.728  13.835  18.129  0.00  0.00    +0.000 A 
ATOM     29  C   UNL     1       3.457  14.320  19.214  0.00  0.00    +0.000 A 
ATOM     30 CL   UNL     1       4.825  15.323  18.892  0.00  0.00    +0.000 Cl
ATOM     31  C   UNL     1       3.054  13.991  20.506  0.00  0.00    +0.000 A 
ATOM     32 CL   UNL     1       3.949  14.469  21.906  0.00  0.00    +0.000 Cl
ATOM     33  C   UNL     1       1.874  13.260  20.708  0.00  0.00    +0.000 A 
ENDBRANCH  19  26
ENDBRANCH   2  19
TORSDOF 3
ENDMDL
MODEL 4
REMARK VINA RESULT:      -8.5      3.308      8.132
REMARK  Name = 
REMARK  3 active torsions:
REMARK  status: ('A' for Active; 'I' for Inactive)
REMARK    1  A    between atoms: C_2  and  C_18
REMARK    2  A    between atoms: N_6  and  C_7
REMARK    3  A    between atoms: C_18  and  C_19
REMARK                            x       y       z     vdW  Elec       q    Type
REMARK                         _______ _______ _______ _____ _____    ______ ____
ROOT
ATOM      1  O   UNL     1      -0.683  11.273  21.556  0.00  0.00    +0.000 OA
ATOM      2  C   UNL     1      -0.477  11.123  20.347  0.00  0.00    +0.000 C 
ATOM      3  N   UNL     1       0.118   9.954  19.892  0.00  0.00    +0.000 N 
ATOM      4  C   UNL     1       0.426   9.592  18.495  0.00  0.00    +0.000 C 
ATOM      5  C   UNL     1       1.836   9.012  18.335  0.00  0.00    +0.000 C 
ATOM      6  N   UNL     1       2.023   7.922  19.285  0.00  0.00    +0.000 N 
ATOM      7  C   UNL     1       1.823   8.276  20.691  0.00  0.00    +0.000 C 
ATOM      8  C   UNL     1       0.405   8.872  20.862  0.00  0.00    +0.000 C 
ENDROOT
BRANCH   6   9
ATOM      9  C   UNL     1       2.515   6.695  18.905  0.00  0.00    +0.000 A 
ATOM     10  N   UNL     1       3.420   6.628  17.883  0.00  0.00    +0.000 NA
ATOM     11  C   UNL     1       3.894   5.429  17.490  0.00  0.00    +0.000 A 
ATOM     12  N   UNL     1       3.621   4.218  17.999  0.00  0.00    +0.000 NA
ATOM     13  C   UNL     1       2.756   4.319  19.015  0.00  0.00    +0.000 A 
ATOM     14  N   UNL     1       2.270   3.293  19.775  0.00  0.00    +0.000 N 
ATOM     15  C   UNL     1       1.441   3.832  20.716  0.00  0.00    +0.000 A 
ATOM     16  N   UNL     1       1.361   5.140  20.604  0.00  0.00    +0.000 NA
ATOM     17  C   UNL     1       2.176   5.464  19.527  0.00  0.00    +0.000 A 
ATOM     18  H   UNL     1       2.500   2.319  19.652  0.00  0.00    +0.000 HD
ENDBRANCH   6   9
BRANCH   2  19
ATOM     19  C   UNL     1      -0.812  12.307  19.349  0.00  0.00    +0.000 C 
ATOM     20  C   UNL     1      -1.884  13.233  20.006  0.00  0.00    +0.000 C 
ATOM     21  C   UNL     1      -3.276  12.590  20.073  0.00  0.00    +0.000 C 
ATOM     22  N   UNL     1      -3.738  12.159  18.755  0.00  0.00    +0.000 NA
ATOM     23  C   UNL     1      -2.830  11.157  18.209  0.00  0.00    +0.000 C 
ATOM     24  C   UNL     1      -1.432  11.734  18.035  0.00  0.00    +0.000 C 
ATOM     25  H   UNL     1      -3.781  12.965  18.129  0.00  0.00    +0.000 HD
BRANCH  19  26
ATOM     26  C   UNL     1       0.460  13.174  19.090  0.00  0.00    +0.000 A 
ATOM     27  C   UNL     1       1.658  12.596  18.632  0.00  0.00    +0.000 A 
ATOM     28  C   UNL     1       2.726  13.389  18.193  0.00  0.00    +0.000 A 
ATOM     29  C   UNL     1       2.656  14.778  18.278  0.00  0.00    +0.000 A 
ATOM     30 CL   UNL     1       3.970  15.700  17.643  0.00  0.00    +0.000 Cl
ATOM     31  C   UNL     1       1.535  15.369  18.857  0.00  0.00    +0.000 A 
ATOM     32 CL   UNL     1       1.403  17.078  19.090  0.00  0.00    +0.000 Cl
ATOM     33  C   UNL     1       0.452  14.574  19.259  0.00  0.00    +0.000 A 
ENDBRANCH  19  26
ENDBRANCH   2  19
TORSDOF 3
ENDMDL
MODEL 5
REMARK VINA RESULT:      -8.4      0.779      1.691
REMARK  Name = 
REMARK  3 active torsions:
REMARK  status: ('A' for Active; 'I' for Inactive)
REMARK    1  A    between atoms: C_2  and  C_18
REMARK    2  A    between atoms: N_6  and  C_7
REMARK    3  A    between atoms: C_18  and  C_19
REMARK                            x       y       z     vdW  Elec       q    Type
REMARK                         _______ _______ _______ _____ _____    ______ ____
ROOT
ATOM      1  O   UNL     1       2.259   4.830  21.182  0.00  0.00    +0.000 OA
ATOM      2  C   UNL     1       2.507   5.432  20.132  0.00  0.00    +0.000 C 
ATOM      3  N   UNL     1       2.197   6.781  20.024  0.00  0.00    +0.000 N 
ATOM      4  C   UNL     1       2.432   7.663  18.865  0.00  0.00    +0.000 C 
ATOM      5  C   UNL     1       1.216   8.536  18.536  0.00  0.00    +0.000 C 
ATOM      6  N   UNL     1       0.784   9.239  19.737  0.00  0.00    +0.000 N 
ATOM      7  C   UNL     1       0.446   8.383  20.876  0.00  0.00    +0.000 C 
ATOM      8  C   UNL     1       1.664   7.490  21.210  0.00  0.00    +0.000 C 
ENDROOT
BRANCH   6   9
ATOM      9  C   UNL     1       0.548  10.594  19.749  0.00  0.00    +0.000 A 
ATOM     10  N   UNL     1      -0.468  11.086  20.521  0.00  0.00    +0.000 NA
ATOM     11  C   UNL     1      -0.720  12.411  20.526  0.00  0.00    +0.000 A 
ATOM     12  N   UNL     1      -0.067  13.385  19.873  0.00  0.00    +0.000 NA
ATOM     13  C   UNL     1       0.937  12.876  19.150  0.00  0.00    +0.000 A 
ATOM     14  N   UNL     1       1.819  13.576  18.376  0.00  0.00    +0.000 N 
ATOM     15  C   UNL     1       2.697  12.680  17.836  0.00  0.00    +0.000 A 
ATOM     16  N   UNL     1       2.430  11.449  18.213  0.00  0.00    +0.000 NA
ATOM     17  C   UNL     1       1.315  11.552  19.033  0.00  0.00    +0.000 A 
ATOM     18  H   UNL     1       1.810  14.575  18.245  0.00  0.00    +0.000 HD
ENDBRANCH   6   9
BRANCH   2  19
ATOM     19  C   UNL     1       3.088   4.630  18.896  0.00  0.00    +0.000 C 
ATOM     20  C   UNL     1       2.055   4.688  17.726  0.00  0.00    +0.000 C 
ATOM     21  C   UNL     1       0.805   3.836  17.983  0.00  0.00    +0.000 C 
ATOM     22  N   UNL     1       1.147   2.444  18.269  0.00  0.00    +0.000 NA
ATOM     23  C   UNL     1       1.971   2.368  19.471  0.00  0.00    +0.000 C 
ATOM     24  C   UNL     1       3.276   3.128  19.278  0.00  0.00    +0.000 C 
ATOM     25  H   UNL     1       1.655   2.048  17.476  0.00  0.00    +0.000 HD
BRANCH  19  26
ATOM     26  C   UNL     1       4.407   5.295  18.389  0.00  0.00    +0.000 A 
ATOM     27  C   UNL     1       4.431   6.067  17.213  0.00  0.00    +0.000 A 
ATOM     28  C   UNL     1       5.550   6.840  16.875  0.00  0.00    +0.000 A 
ATOM     29  C   UNL     1       6.703   6.794  17.658  0.00  0.00    +0.000 A 
ATOM     30 CL   UNL     1       8.015   7.832  17.234  0.00  0.00    +0.000 Cl
ATOM     31  C   UNL     1       6.751   5.930  18.749  0.00  0.00    +0.000 A 
ATOM     32 CL   UNL     1       8.170   5.739  19.719  0.00  0.00    +0.000 Cl
ATOM     33  C   UNL     1       5.616   5.189  19.107  0.00  0.00    +0.000 A 
ENDBRANCH  19  26
ENDBRANCH   2  19
TORSDOF 3
ENDMDL
MODEL 6
REMARK VINA RESULT:      -8.4      3.149      7.913
REMARK  Name = 
REMARK  3 active torsions:
REMARK  status: ('A' for Active; 'I' for Inactive)
REMARK    1  A    between atoms: C_2  and  C_18
REMARK    2  A    between atoms: N_6  and  C_7
REMARK    3  A    between atoms: C_18  and  C_19
REMARK                            x       y       z     vdW  Elec       q    Type
REMARK                         _______ _______ _______ _____ _____    ______ ____
ROOT
ATOM      1  O   UNL     1       0.034  10.620  21.639  0.00  0.00    +0.000 OA
ATOM      2  C   UNL     1       0.251  10.669  20.424  0.00  0.00    +0.000 C 
ATOM      3  N   UNL     1       0.725   9.542  19.766  0.00  0.00    +0.000 N 
ATOM      4  C   UNL     1       1.025   9.405  18.328  0.00  0.00    +0.000 C 
ATOM      5  C   UNL     1       2.365   8.708  18.070  0.00  0.00    +0.000 C 
ATOM      6  N   UNL     1       2.408   7.451  18.807  0.00  0.00    +0.000 N 
ATOM      7  C   UNL     1       2.214   7.566  20.253  0.00  0.00    +0.000 C 
ATOM      8  C   UNL     1       0.867   8.277  20.524  0.00  0.00    +0.000 C 
ENDROOT
BRANCH   6   9
ATOM      9  C   UNL     1       2.770   6.265  18.212  0.00  0.00    +0.000 A 
ATOM     10  N   UNL     1       1.876   5.231  18.190  0.00  0.00    +0.000 NA
ATOM     11  C   UNL     1       2.228   4.058  17.627  0.00  0.00    +0.000 A 
ATOM     12  N   UNL     1       3.381   3.738  17.020  0.00  0.00    +0.000 NA
ATOM     13  C   UNL     1       4.224   4.777  17.033  0.00  0.00    +0.000 A 
ATOM     14  N   UNL     1       5.478   4.815  16.492  0.00  0.00    +0.000 N 
ATOM     15  C   UNL     1       5.980   6.067  16.701  0.00  0.00    +0.000 A 
ATOM     16  N   UNL     1       5.128   6.833  17.345  0.00  0.00    +0.000 NA
ATOM     17  C   UNL     1       4.018   6.031  17.574  0.00  0.00    +0.000 A 
ATOM     18  H   UNL     1       5.931   4.047  16.021  0.00  0.00    +0.000 HD
ENDBRANCH   6   9
BRANCH   2  19
ATOM     19  C   UNL     1       0.073  12.043  19.657  0.00  0.00    +0.000 C 
ATOM     20  C   UNL     1      -0.865  12.971  20.493  0.00  0.00    +0.000 C 
ATOM     21  C   UNL     1      -2.330  12.512  20.484  0.00  0.00    +0.000 C 
ATOM     22  N   UNL     1      -2.849  12.385  19.123  0.00  0.00    +0.000 NA
ATOM     23  C   UNL     1      -2.083  11.385  18.387  0.00  0.00    +0.000 C 
ATOM     24  C   UNL     1      -0.621  11.797  18.280  0.00  0.00    +0.000 C 
ATOM     25  H   UNL     1      -2.786  13.287  18.648  0.00  0.00    +0.000 HD
BRANCH  19  26
ATOM     26  C   UNL     1       1.448  12.770  19.519  0.00  0.00    +0.000 A 
ATOM     27  C   UNL     1       2.050  12.964  18.262  0.00  0.00    +0.000 A 
ATOM     28  C   UNL     1       3.164  13.799  18.112  0.00  0.00    +0.000 A 
ATOM     29  C   UNL     1       3.757  14.394  19.225  0.00  0.00    +0.000 A 
ATOM     30 CL   UNL     1       5.075  15.477  18.963  0.00  0.00    +0.000 Cl
ATOM     31  C   UNL     1       3.263  14.105  20.495  0.00  0.00    +0.000 A 
ATOM     32 CL   UNL     1       3.993  14.722  21.936  0.00  0.00    +0.000 Cl
ATOM     33  C   UNL     1       2.123  13.301  20.638  0.00  0.00    +0.000 A 
ENDBRANCH  19  26
ENDBRANCH   2  19
TORSDOF 3
ENDMDL
MODEL 7
REMARK VINA RESULT:      -8.3      3.826      8.759
REMARK  Name = 
REMARK  3 active torsions:
REMARK  status: ('A' for Active; 'I' for Inactive)
REMARK    1  A    between atoms: C_2  and  C_18
REMARK    2  A    between atoms: N_6  and  C_7
REMARK    3  A    between atoms: C_18  and  C_19
REMARK                            x       y       z     vdW  Elec       q    Type
REMARK                         _______ _______ _______ _____ _____    ______ ____
ROOT
ATOM      1  O   UNL     1       0.041  10.994  22.051  0.00  0.00    +0.000 OA
ATOM      2  C   UNL     1       0.089  10.868  20.822  0.00  0.00    +0.000 C 
ATOM      3  N   UNL     1       0.531   9.672  20.272  0.00  0.00    +0.000 N 
ATOM      4  C   UNL     1       0.641   9.332  18.841  0.00  0.00    +0.000 C 
ATOM      5  C   UNL     1       1.971   8.652  18.498  0.00  0.00    +0.000 C 
ATOM      6  N   UNL     1       2.183   7.522  19.394  0.00  0.00    +0.000 N 
ATOM      7  C   UNL     1       2.181   7.846  20.822  0.00  0.00    +0.000 C 
ATOM      8  C   UNL     1       0.846   8.541  21.176  0.00  0.00    +0.000 C 
ENDROOT
BRANCH   6   9
ATOM      9  C   UNL     1       2.528   6.273  18.930  0.00  0.00    +0.000 A 
ATOM     10  N   UNL     1       3.426   6.169  17.904  0.00  0.00    +0.000 NA
ATOM     11  C   UNL     1       3.756   4.951  17.429  0.00  0.00    +0.000 A 
ATOM     12  N   UNL     1       3.337   3.750  17.854  0.00  0.00    +0.000 NA
ATOM     13  C   UNL     1       2.483   3.884  18.876  0.00  0.00    +0.000 A 
ATOM     14  N   UNL     1       1.873   2.874  19.565  0.00  0.00    +0.000 N 
ATOM     15  C   UNL     1       1.107   3.443  20.541  0.00  0.00    +0.000 A 
ATOM     16  N   UNL     1       1.186   4.755  20.519  0.00  0.00    +0.000 NA
ATOM     17  C   UNL     1       2.040   5.052  19.466  0.00  0.00    +0.000 A 
ATOM     18  H   UNL     1       1.986   1.890  19.375  0.00  0.00    +0.000 HD
ENDBRANCH   6   9
BRANCH   2  19
ATOM     19  C   UNL     1      -0.269  12.104  19.899  0.00  0.00    +0.000 C 
ATOM     20  C   UNL     1       0.808  12.222  18.774  0.00  0.00    +0.000 C 
ATOM     21  C   UNL     1       2.168  12.709  19.292  0.00  0.00    +0.000 C 
ATOM     22  N   UNL     1       2.054  13.983  20.001  0.00  0.00    +0.000 NA
ATOM     23  C   UNL     1       1.184  13.833  21.162  0.00  0.00    +0.000 C 
ATOM     24  C   UNL     1      -0.219  13.422  20.734  0.00  0.00    +0.000 C 
ATOM     25  H   UNL     1       1.672  14.691  19.371  0.00  0.00    +0.000 HD
BRANCH  19  26
ATOM     26  C   UNL     1      -1.649  11.881  19.204  0.00  0.00    +0.000 A 
ATOM     27  C   UNL     1      -2.857  12.126  19.882  0.00  0.00    +0.000 A 
ATOM     28  C   UNL     1      -4.082  12.138  19.202  0.00  0.00    +0.000 A 
ATOM     29  C   UNL     1      -4.140  11.823  17.845  0.00  0.00    +0.000 A 
ATOM     30 CL   UNL     1      -5.667  11.937  17.049  0.00  0.00    +0.000 Cl
ATOM     31  C   UNL     1      -2.975  11.441  17.185  0.00  0.00    +0.000 A 
ATOM     32 CL   UNL     1      -2.968  10.943  15.529  0.00  0.00    +0.000 Cl
ATOM     33  C   UNL     1      -1.745  11.469  17.859  0.00  0.00    +0.000 A 
ENDBRANCH  19  26
ENDBRANCH   2  19
TORSDOF 3
ENDMDL
MODEL 8
REMARK VINA RESULT:      -8.3      3.342      8.158
REMARK  Name = 
REMARK  3 active torsions:
REMARK  status: ('A' for Active; 'I' for Inactive)
REMARK    1  A    between atoms: C_2  and  C_18
REMARK    2  A    between atoms: N_6  and  C_7
REMARK    3  A    between atoms: C_18  and  C_19
REMARK                            x       y       z     vdW  Elec       q    Type
REMARK                         _______ _______ _______ _____ _____    ______ ____
ROOT
ATOM      1  O   UNL     1      -0.587  11.289  21.572  0.00  0.00    +0.000 OA
ATOM      2  C   UNL     1      -0.404  11.120  20.362  0.00  0.00    +0.000 C 
ATOM      3  N   UNL     1       0.159   9.934  19.912  0.00  0.00    +0.000 N 
ATOM      4  C   UNL     1       0.437   9.549  18.515  0.00  0.00    +0.000 C 
ATOM      5  C   UNL     1       1.831   8.937  18.340  0.00  0.00    +0.000 C 
ATOM      6  N   UNL     1       2.010   7.854  19.299  0.00  0.00    +0.000 N 
ATOM      7  C   UNL     1       1.840   8.229  20.704  0.00  0.00    +0.000 C 
ATOM      8  C   UNL     1       0.439   8.857  20.890  0.00  0.00    +0.000 C 
ENDROOT
BRANCH   6   9
ATOM      9  C   UNL     1       2.470   6.613  18.927  0.00  0.00    +0.000 A 
ATOM     10  N   UNL     1       1.907   5.500  19.487  0.00  0.00    +0.000 NA
ATOM     11  C   UNL     1       2.363   4.278  19.143  0.00  0.00    +0.000 A 
ATOM     12  N   UNL     1       3.322   3.966  18.259  0.00  0.00    +0.000 NA
ATOM     13  C   UNL     1       3.833   5.073  17.708  0.00  0.00    +0.000 A 
ATOM     14  N   UNL     1       4.813   5.131  16.758  0.00  0.00    +0.000 N 
ATOM     15  C   UNL     1       5.016   6.447  16.454  0.00  0.00    +0.000 A 
ATOM     16  N   UNL     1       4.229   7.236  17.153  0.00  0.00    +0.000 NA
ATOM     17  C   UNL     1       3.484   6.386  17.959  0.00  0.00    +0.000 A 
ATOM     18  H   UNL     1       5.285   4.334  16.361  0.00  0.00    +0.000 HD
ENDBRANCH   6   9
BRANCH   2  19
ATOM     19  C   UNL     1      -0.730  12.299  19.356  0.00  0.00    +0.000 C 
ATOM     20  C   UNL     1      -1.779  13.250  20.014  0.00  0.00    +0.000 C 
ATOM     21  C   UNL     1      -3.180  12.632  20.103  0.00  0.00    +0.000 C 
ATOM     22  N   UNL     1      -3.664  12.196  18.794  0.00  0.00    +0.000 NA
ATOM     23  C   UNL     1      -2.779  11.172  18.249  0.00  0.00    +0.000 C 
ATOM     24  C   UNL     1      -1.373  11.724  18.054  0.00  0.00    +0.000 C 
ATOM     25  H   UNL     1      -3.699  12.996  18.160  0.00  0.00    +0.000 HD
BRANCH  19  26
ATOM     26  C   UNL     1       0.554  13.142  19.074  0.00  0.00    +0.000 A 
ATOM     27  C   UNL     1       1.764  12.528  18.699  0.00  0.00    +0.000 A 
ATOM     28  C   UNL     1       2.849  13.284  18.236  0.00  0.00    +0.000 A 
ATOM     29  C   UNL     1       2.783  14.677  18.217  0.00  0.00    +0.000 A 
ATOM     30 CL   UNL     1       4.121  15.545  17.558  0.00  0.00    +0.000 Cl
ATOM     31  C   UNL     1       1.647  15.311  18.714  0.00  0.00    +0.000 A 
ATOM     32 CL   UNL     1       1.516  17.033  18.815  0.00  0.00    +0.000 Cl
ATOM     33  C   UNL     1       0.548  14.550  19.139  0.00  0.00    +0.000 A 
ENDBRANCH  19  26
ENDBRANCH   2  19
TORSDOF 3
ENDMDL
MODEL 9
REMARK VINA RESULT:      -8.2      3.282      8.173
REMARK  Name = 
REMARK  3 active torsions:
REMARK  status: ('A' for Active; 'I' for Inactive)
REMARK    1  A    between atoms: C_2  and  C_18
REMARK    2  A    between atoms: N_6  and  C_7
REMARK    3  A    between atoms: C_18  and  C_19
REMARK                            x       y       z     vdW  Elec       q    Type
REMARK                         _______ _______ _______ _____ _____    ______ ____
ROOT
ATOM      1  O   UNL     1      -1.212  11.327  21.758  0.00  0.00    +0.000 OA
ATOM      2  C   UNL     1      -0.908  11.294  20.561  0.00  0.00    +0.000 C 
ATOM      3  N   UNL     1      -0.204  10.206  20.061  0.00  0.00    +0.000 N 
ATOM      4  C   UNL     1       0.229   9.984  18.668  0.00  0.00    +0.000 C 
ATOM      5  C   UNL     1       1.682   9.506  18.573  0.00  0.00    +0.000 C 
ATOM      6  N   UNL     1       1.871   8.352  19.444  0.00  0.00    +0.000 N 
ATOM      7  C   UNL     1       1.545   8.572  20.854  0.00  0.00    +0.000 C 
ATOM      8  C   UNL     1       0.083   9.065  20.960  0.00  0.00    +0.000 C 
ENDROOT
BRANCH   6   9
ATOM      9  C   UNL     1       2.471   7.194  19.007  0.00  0.00    +0.000 A 
ATOM     10  N   UNL     1       3.315   7.247  17.933  0.00  0.00    +0.000 NA
ATOM     11  C   UNL     1       3.893   6.114  17.484  0.00  0.00    +0.000 A 
ATOM     12  N   UNL     1       3.784   4.871  17.978  0.00  0.00    +0.000 NA
ATOM     13  C   UNL     1       2.975   4.858  19.043  0.00  0.00    +0.000 A 
ATOM     14  N   UNL     1       2.650   3.771  19.805  0.00  0.00    +0.000 N 
ATOM     15  C   UNL     1       1.824   4.198  20.804  0.00  0.00    +0.000 A 
ATOM     16  N   UNL     1       1.596   5.491  20.729  0.00  0.00    +0.000 NA
ATOM     17  C   UNL     1       2.305   5.922  19.615  0.00  0.00    +0.000 A 
ATOM     18  H   UNL     1       2.977   2.831  19.644  0.00  0.00    +0.000 HD
ENDBRANCH   6   9
BRANCH   2  19
ATOM     19  C   UNL     1      -1.248  12.536  19.638  0.00  0.00    +0.000 C 
ATOM     20  C   UNL     1      -2.410  13.348  20.293  0.00  0.00    +0.000 C 
ATOM     21  C   UNL     1      -3.764  12.630  20.216  0.00  0.00    +0.000 C 
ATOM     22  N   UNL     1      -4.118  12.285  18.840  0.00  0.00    +0.000 NA
ATOM     23  C   UNL     1      -3.122  11.379  18.280  0.00  0.00    +0.000 C 
ATOM     24  C   UNL     1      -1.750  12.040  18.245  0.00  0.00    +0.000 C 
ATOM     25  H   UNL     1      -4.167  13.136  18.277  0.00  0.00    +0.000 HD
BRANCH  19  26
ATOM     26  C   UNL     1      -0.014  13.487  19.533  0.00  0.00    +0.000 A 
ATOM     27  C   UNL     1      -0.040  14.630  18.714  0.00  0.00    +0.000 A 
ATOM     28  C   UNL     1       0.972  15.596  18.784  0.00  0.00    +0.000 A 
ATOM     29  C   UNL     1       2.078  15.403  19.610  0.00  0.00    +0.000 A 
ATOM     30 CL   UNL     1       3.248  16.668  19.713  0.00  0.00    +0.000 Cl
ATOM     31  C   UNL     1       2.194  14.213  20.326  0.00  0.00    +0.000 A 
ATOM     32 CL   UNL     1       3.574  13.849  21.301  0.00  0.00    +0.000 Cl
ATOM     33  C   UNL     1       1.159  13.267  20.284  0.00  0.00    +0.000 A 
ENDBRANCH  19  26
ENDBRANCH   2  19
TORSDOF 3
ENDMDL
