MODEL 1
REMARK VINA RESULT:      -7.7      0.000      0.000
REMARK  Name = 
REMARK  9 active torsions:
REMARK  status: ('A' for Active; 'I' for Inactive)
REMARK    1  A    between atoms: C_2  and  C_3
REMARK    2  A    between atoms: C_3  and  C_4
REMARK    3  A    between atoms: C_6  and  C_7
REMARK    4  A    between atoms: C_7  and  C_8
REMARK    5  A    between atoms: C_8  and  C_9
REMARK    6  A    between atoms: C_9  and  O_11
REMARK    7  A    between atoms: C_14  and  C_15
REMARK    8  A    between atoms: C_16  and  C_17
REMARK    9  A    between atoms: C_17  and  O_18
REMARK                            x       y       z     vdW  Elec       q    Type
REMARK                         _______ _______ _______ _____ _____    ______ ____
ROOT
ATOM      1  C   UNL     1       3.050   6.204  19.168  0.00  0.00    +0.000 A 
ATOM      2  C   UNL     1       4.071   5.250  19.066  0.00  0.00    +0.000 A 
ATOM      3  C   UNL     1       5.053   5.355  18.065  0.00  0.00    +0.000 A 
ATOM      4  C   UNL     1       4.986   6.412  17.147  0.00  0.00    +0.000 A 
ATOM      5  C   UNL     1       3.978   7.370  17.244  0.00  0.00    +0.000 A 
ATOM      6  C   UNL     1       3.015   7.284  18.253  0.00  0.00    +0.000 A 
ENDROOT
BRANCH   6   7
ATOM      7  C   UNL     1       2.001   8.407  18.405  0.00  0.00    +0.000 C 
ATOM      8  C   UNL     1       1.130   9.369  18.535  0.00  0.00    +0.000 C 
BRANCH   8   9
ATOM      9  C   UNL     1       0.116  10.490  18.689  0.00  0.00    +0.000 C 
ATOM     10  C   UNL     1       1.036  11.772  18.718  0.00  0.00    +0.000 C 
ATOM     11  N   UNL     1       0.480  12.835  19.585  0.00  0.00    +0.000 NA
ATOM     12  C   UNL     1      -0.924  13.096  19.201  0.00  0.00    +0.000 C 
ATOM     13  C   UNL     1      -1.813  11.861  19.516  0.00  0.00    +0.000 C 
ATOM     14  C   UNL     1      -0.898  10.642  19.860  0.00  0.00    +0.000 C 
ATOM     15  C   UNL     1      -0.176  11.008  21.171  0.00  0.00    +0.000 C 
ATOM     16  C   UNL     1       0.546  12.374  20.993  0.00  0.00    +0.000 C 
BRANCH   9  17
ATOM     17  O   UNL     1      -0.567  10.561  17.457  0.00  0.00    +0.000 OA
ATOM     18  H   UNL     1       0.042  10.991  16.801  0.00  0.00    +0.000 HD
ENDBRANCH   9  17
ENDBRANCH   8   9
ENDBRANCH   6   7
BRANCH   1  19
ATOM     19  C   UNL     1       2.008   6.053  20.253  0.00  0.00    +0.000 C 
BRANCH  19  21
ATOM     20  C   UNL     1       1.102   3.757  20.618  0.00  0.00    +0.000 C 
ATOM     21  C   UNL     1       2.063   4.660  20.825  0.00  0.00    +0.000 C 
ENDBRANCH  19  21
ENDBRANCH   1  19
BRANCH   3  22
ATOM     22  C   UNL     1       6.183   4.353  17.996  0.00  0.00    +0.000 C 
BRANCH  22  23
ATOM     23  C   UNL     1       7.560   5.022  17.867  0.00  0.00    +0.000 C 
BRANCH  23  24
ATOM     24  C   UNL     1       7.898   5.791  19.119  0.00  0.00    +0.000 C 
ATOM     25  O   UNL     1       7.679   5.291  20.212  0.00  0.00    +0.000 OA
BRANCH  24  26
ATOM     26  O   UNL     1       8.428   7.031  19.054  0.00  0.00    +0.000 OA
ATOM     27  H   UNL     1       8.969   7.317  18.301  0.00  0.00    +0.000 HD
ENDBRANCH  24  26
ENDBRANCH  23  24
ENDBRANCH  22  23
ENDBRANCH   3  22
TORSDOF 9
ENDMDL
MODEL 2
REMARK VINA RESULT:      -7.5      1.883      2.299
REMARK  Name = 
REMARK  9 active torsions:
REMARK  status: ('A' for Active; 'I' for Inactive)
REMARK    1  A    between atoms: C_2  and  C_3
REMARK    2  A    between atoms: C_3  and  C_4
REMARK    3  A    between atoms: C_6  and  C_7
REMARK    4  A    between atoms: C_7  and  C_8
REMARK    5  A    between atoms: C_8  and  C_9
REMARK    6  A    between atoms: C_9  and  O_11
REMARK    7  A    between atoms: C_14  and  C_15
REMARK    8  A    between atoms: C_16  and  C_17
REMARK    9  A    between atoms: C_17  and  O_18
REMARK                            x       y       z     vdW  Elec       q    Type
REMARK                         _______ _______ _______ _____ _____    ______ ____
ROOT
ATOM      1  C   UNL     1       2.570   5.723  19.293  0.00  0.00    +0.000 A 
ATOM      2  C   UNL     1       3.418   4.754  18.741  0.00  0.00    +0.000 A 
ATOM      3  C   UNL     1       4.273   5.074  17.672  0.00  0.00    +0.000 A 
ATOM      4  C   UNL     1       4.250   6.371  17.141  0.00  0.00    +0.000 A 
ATOM      5  C   UNL     1       3.414   7.344  17.687  0.00  0.00    +0.000 A 
ATOM      6  C   UNL     1       2.582   7.037  18.765  0.00  0.00    +0.000 A 
ENDROOT
BRANCH   6   7
ATOM      7  C   UNL     1       1.771   8.148  19.414  0.00  0.00    +0.000 C 
ATOM      8  C   UNL     1       1.076   9.100  19.971  0.00  0.00    +0.000 C 
BRANCH   8   9
ATOM      9  C   UNL     1       0.267  10.212  20.619  0.00  0.00    +0.000 C 
ATOM     10  C   UNL     1      -0.897  10.430  19.578  0.00  0.00    +0.000 C 
ATOM     11  N   UNL     1      -1.336  11.842  19.524  0.00  0.00    +0.000 NA
ATOM     12  C   UNL     1      -1.641  12.314  20.892  0.00  0.00    +0.000 C 
ATOM     13  C   UNL     1      -0.346  12.363  21.751  0.00  0.00    +0.000 C 
ATOM     14  C   UNL     1       0.804  11.625  20.992  0.00  0.00    +0.000 C 
ATOM     15  C   UNL     1       1.084  12.459  19.728  0.00  0.00    +0.000 C 
ATOM     16  C   UNL     1      -0.241  12.652  18.937  0.00  0.00    +0.000 C 
BRANCH   9  17
ATOM     17  O   UNL     1      -0.354   9.628  21.744  0.00  0.00    +0.000 OA
ATOM     18  H   UNL     1      -0.669  10.368  22.327  0.00  0.00    +0.000 HD
ENDBRANCH   9  17
ENDBRANCH   8   9
ENDBRANCH   6   7
BRANCH   1  19
ATOM     19  C   UNL     1       1.659   5.338  20.437  0.00  0.00    +0.000 C 
BRANCH  19  21
ATOM     20  C   UNL     1       1.275   3.023  21.286  0.00  0.00    +0.000 C 
ATOM     21  C   UNL     1       1.224   3.903  20.284  0.00  0.00    +0.000 C 
ENDBRANCH  19  21
ENDBRANCH   1  19
BRANCH   3  22
ATOM     22  C   UNL     1       5.226   4.038  17.119  0.00  0.00    +0.000 C 
BRANCH  22  23
ATOM     23  C   UNL     1       5.681   4.356  15.687  0.00  0.00    +0.000 C 
BRANCH  23  24
ATOM     24  C   UNL     1       7.145   4.713  15.660  0.00  0.00    +0.000 C 
ATOM     25  O   UNL     1       7.863   4.386  16.593  0.00  0.00    +0.000 OA
BRANCH  24  26
ATOM     26  O   UNL     1       7.676   5.401  14.627  0.00  0.00    +0.000 OA
ATOM     27  H   UNL     1       7.254   5.417  13.753  0.00  0.00    +0.000 HD
ENDBRANCH  24  26
ENDBRANCH  23  24
ENDBRANCH  22  23
ENDBRANCH   3  22
TORSDOF 9
ENDMDL
MODEL 3
REMARK VINA RESULT:      -7.4      3.592      9.162
REMARK  Name = 
REMARK  9 active torsions:
REMARK  status: ('A' for Active; 'I' for Inactive)
REMARK    1  A    between atoms: C_2  and  C_3
REMARK    2  A    between atoms: C_3  and  C_4
REMARK    3  A    between atoms: C_6  and  C_7
REMARK    4  A    between atoms: C_7  and  C_8
REMARK    5  A    between atoms: C_8  and  C_9
REMARK    6  A    between atoms: C_9  and  O_11
REMARK    7  A    between atoms: C_14  and  C_15
REMARK    8  A    between atoms: C_16  and  C_17
REMARK    9  A    between atoms: C_17  and  O_18
REMARK                            x       y       z     vdW  Elec       q    Type
REMARK                         _______ _______ _______ _____ _____    ______ ____
ROOT
ATOM      1  C   UNL     1      -0.004   9.910  20.514  0.00  0.00    +0.000 A 
ATOM      2  C   UNL     1      -0.614  11.070  21.008  0.00  0.00    +0.000 A 
ATOM      3  C   UNL     1      -0.909  11.197  22.377  0.00  0.00    +0.000 A 
ATOM      4  C   UNL     1      -0.612  10.136  23.244  0.00  0.00    +0.000 A 
ATOM      5  C   UNL     1       0.001   8.981  22.763  0.00  0.00    +0.000 A 
ATOM      6  C   UNL     1       0.320   8.860  21.408  0.00  0.00    +0.000 A 
ENDROOT
BRANCH   6   7
ATOM      7  C   UNL     1       1.094   7.640  20.935  0.00  0.00    +0.000 C 
ATOM      8  C   UNL     1       1.757   6.593  20.530  0.00  0.00    +0.000 C 
BRANCH   8   9
ATOM      9  C   UNL     1       2.531   5.373  20.056  0.00  0.00    +0.000 C 
ATOM     10  C   UNL     1       2.013   5.202  18.577  0.00  0.00    +0.000 C 
ATOM     11  N   UNL     1       1.963   3.781  18.166  0.00  0.00    +0.000 NA
ATOM     12  C   UNL     1       3.272   3.147  18.435  0.00  0.00    +0.000 C 
ATOM     13  C   UNL     1       3.539   3.080  19.965  0.00  0.00    +0.000 C 
ATOM     14  C   UNL     1       2.486   3.961  20.711  0.00  0.00    +0.000 C 
ATOM     15  C   UNL     1       1.122   3.287  20.474  0.00  0.00    +0.000 C 
ATOM     16  C   UNL     1       0.899   3.105  18.946  0.00  0.00    +0.000 C 
BRANCH   9  17
ATOM     17  O   UNL     1       3.870   5.795  19.928  0.00  0.00    +0.000 OA
ATOM     18  H   UNL     1       4.363   5.473  20.729  0.00  0.00    +0.000 HD
ENDBRANCH   9  17
ENDBRANCH   8   9
ENDBRANCH   6   7
BRANCH   1  19
ATOM     19  C   UNL     1       0.291   9.808  19.034  0.00  0.00    +0.000 C 
BRANCH  19  21
ATOM     20  C   UNL     1      -1.582   9.935  17.390  0.00  0.00    +0.000 C 
ATOM     21  C   UNL     1      -0.763  10.545  18.250  0.00  0.00    +0.000 C 
ENDBRANCH  19  21
ENDBRANCH   1  19
BRANCH   3  22
ATOM     22  C   UNL     1      -1.517  12.474  22.912  0.00  0.00    +0.000 C 
BRANCH  22  23
ATOM     23  C   UNL     1      -2.977  12.665  22.474  0.00  0.00    +0.000 C 
BRANCH  23  24
ATOM     24  C   UNL     1      -3.876  12.824  23.673  0.00  0.00    +0.000 C 
ATOM     25  O   UNL     1      -4.185  11.840  24.330  0.00  0.00    +0.000 OA
BRANCH  24  26
ATOM     26  O   UNL     1      -4.359  14.033  24.028  0.00  0.00    +0.000 OA
ATOM     27  H   UNL     1      -3.803  14.829  24.016  0.00  0.00    +0.000 HD
ENDBRANCH  24  26
ENDBRANCH  23  24
ENDBRANCH  22  23
ENDBRANCH   3  22
TORSDOF 9
ENDMDL
MODEL 4
REMARK VINA RESULT:      -7.3      1.513      1.738
REMARK  Name = 
REMARK  9 active torsions:
REMARK  status: ('A' for Active; 'I' for Inactive)
REMARK    1  A    between atoms: C_2  and  C_3
REMARK    2  A    between atoms: C_3  and  C_4
REMARK    3  A    between atoms: C_6  and  C_7
REMARK    4  A    between atoms: C_7  and  C_8
REMARK    5  A    between atoms: C_8  and  C_9
REMARK    6  A    between atoms: C_9  and  O_11
REMARK    7  A    between atoms: C_14  and  C_15
REMARK    8  A    between atoms: C_16  and  C_17
REMARK    9  A    between atoms: C_17  and  O_18
REMARK                            x       y       z     vdW  Elec       q    Type
REMARK                         _______ _______ _______ _____ _____    ______ ____
ROOT
ATOM      1  C   UNL     1       2.972   6.287  19.231  0.00  0.00    +0.000 A 
ATOM      2  C   UNL     1       3.984   5.325  19.121  0.00  0.00    +0.000 A 
ATOM      3  C   UNL     1       4.960   5.421  18.114  0.00  0.00    +0.000 A 
ATOM      4  C   UNL     1       4.895   6.479  17.196  0.00  0.00    +0.000 A 
ATOM      5  C   UNL     1       3.896   7.445  17.300  0.00  0.00    +0.000 A 
ATOM      6  C   UNL     1       2.940   7.368  18.316  0.00  0.00    +0.000 A 
ENDROOT
BRANCH   6   7
ATOM      7  C   UNL     1       1.936   8.499  18.475  0.00  0.00    +0.000 C 
ATOM      8  C   UNL     1       1.076   9.469  18.613  0.00  0.00    +0.000 C 
BRANCH   8   9
ATOM      9  C   UNL     1       0.074  10.601  18.772  0.00  0.00    +0.000 C 
ATOM     10  C   UNL     1       1.003  11.875  18.762  0.00  0.00    +0.000 C 
ATOM     11  N   UNL     1       0.474  12.955  19.625  0.00  0.00    +0.000 NA
ATOM     12  C   UNL     1      -0.936  13.222  19.268  0.00  0.00    +0.000 C 
ATOM     13  C   UNL     1      -1.827  11.997  19.621  0.00  0.00    +0.000 C 
ATOM     14  C   UNL     1      -0.913  10.777  19.963  0.00  0.00    +0.000 C 
ATOM     15  C   UNL     1      -0.160  11.156  21.252  0.00  0.00    +0.000 C 
ATOM     16  C   UNL     1       0.568  12.514  21.038  0.00  0.00    +0.000 C 
BRANCH   9  17
ATOM     17  O   UNL     1      -0.637  10.658  17.555  0.00  0.00    +0.000 OA
ATOM     18  H   UNL     1      -0.016  10.373  16.833  0.00  0.00    +0.000 HD
ENDBRANCH   9  17
ENDBRANCH   8   9
ENDBRANCH   6   7
BRANCH   1  19
ATOM     19  C   UNL     1       1.937   6.145  20.324  0.00  0.00    +0.000 C 
BRANCH  19  21
ATOM     20  C   UNL     1       0.876   3.886  20.316  0.00  0.00    +0.000 C 
ATOM     21  C   UNL     1       1.838   4.703  20.751  0.00  0.00    +0.000 C 
ENDBRANCH  19  21
ENDBRANCH   1  19
BRANCH   3  22
ATOM     22  C   UNL     1       6.081   4.410  18.037  0.00  0.00    +0.000 C 
BRANCH  22  23
ATOM     23  C   UNL     1       7.247   4.884  17.157  0.00  0.00    +0.000 C 
BRANCH  23  24
ATOM     24  C   UNL     1       7.045   4.453  15.727  0.00  0.00    +0.000 C 
ATOM     25  O   UNL     1       7.499   5.137  14.820  0.00  0.00    +0.000 OA
BRANCH  24  26
ATOM     26  O   UNL     1       6.357   3.331  15.427  0.00  0.00    +0.000 OA
ATOM     27  H   UNL     1       6.807   2.495  15.227  0.00  0.00    +0.000 HD
ENDBRANCH  24  26
ENDBRANCH  23  24
ENDBRANCH  22  23
ENDBRANCH   3  22
TORSDOF 9
ENDMDL
MODEL 5
REMARK VINA RESULT:      -7.3      3.149      8.256
REMARK  Name = 
REMARK  9 active torsions:
REMARK  status: ('A' for Active; 'I' for Inactive)
REMARK    1  A    between atoms: C_2  and  C_3
REMARK    2  A    between atoms: C_3  and  C_4
REMARK    3  A    between atoms: C_6  and  C_7
REMARK    4  A    between atoms: C_7  and  C_8
REMARK    5  A    between atoms: C_8  and  C_9
REMARK    6  A    between atoms: C_9  and  O_11
REMARK    7  A    between atoms: C_14  and  C_15
REMARK    8  A    between atoms: C_16  and  C_17
REMARK    9  A    between atoms: C_17  and  O_18
REMARK                            x       y       z     vdW  Elec       q    Type
REMARK                         _______ _______ _______ _____ _____    ______ ____
ROOT
ATOM      1  C   UNL     1       1.107   9.093  20.110  0.00  0.00    +0.000 A 
ATOM      2  C   UNL     1       0.584  10.388  19.998  0.00  0.00    +0.000 A 
ATOM      3  C   UNL     1       0.811  11.156  18.843  0.00  0.00    +0.000 A 
ATOM      4  C   UNL     1       1.592  10.622  17.808  0.00  0.00    +0.000 A 
ATOM      5  C   UNL     1       2.112   9.333  17.907  0.00  0.00    +0.000 A 
ATOM      6  C   UNL     1       1.868   8.557  19.042  0.00  0.00    +0.000 A 
ENDROOT
BRANCH   6   7
ATOM      7  C   UNL     1       2.347   7.114  19.070  0.00  0.00    +0.000 C 
ATOM      8  C   UNL     1       2.758   5.877  19.092  0.00  0.00    +0.000 C 
BRANCH   8   9
ATOM      9  C   UNL     1       3.238   4.435  19.120  0.00  0.00    +0.000 C 
ATOM     10  C   UNL     1       2.667   3.866  17.765  0.00  0.00    +0.000 C 
ATOM     11  N   UNL     1       2.301   2.436  17.873  0.00  0.00    +0.000 NA
ATOM     12  C   UNL     1       3.445   1.677  18.423  0.00  0.00    +0.000 C 
ATOM     13  C   UNL     1       3.722   2.100  19.893  0.00  0.00    +0.000 C 
ATOM     14  C   UNL     1       2.900   3.388  20.222  0.00  0.00    +0.000 C 
ATOM     15  C   UNL     1       1.418   2.976  20.155  0.00  0.00    +0.000 C 
ATOM     16  C   UNL     1       1.130   2.318  18.776  0.00  0.00    +0.000 C 
BRANCH   9  17
ATOM     17  O   UNL     1       4.635   4.492  18.932  0.00  0.00    +0.000 OA
ATOM     18  H   UNL     1       5.006   3.606  19.186  0.00  0.00    +0.000 HD
ENDBRANCH   9  17
ENDBRANCH   8   9
ENDBRANCH   6   7
BRANCH   1  19
ATOM     19  C   UNL     1       0.848   8.302  21.372  0.00  0.00    +0.000 C 
BRANCH  19  21
ATOM     20  C   UNL     1      -0.110   9.483  23.351  0.00  0.00    +0.000 C 
ATOM     21  C   UNL     1      -0.280   8.930  22.148  0.00  0.00    +0.000 C 
ENDBRANCH  19  21
ENDBRANCH   1  19
BRANCH   3  22
ATOM     22  C   UNL     1       0.196  12.530  18.706  0.00  0.00    +0.000 C 
BRANCH  22  23
ATOM     23  C   UNL     1      -1.318  12.531  18.965  0.00  0.00    +0.000 C 
BRANCH  23  24
ATOM     24  C   UNL     1      -2.039  11.726  17.914  0.00  0.00    +0.000 C 
ATOM     25  O   UNL     1      -2.826  10.856  18.255  0.00  0.00    +0.000 OA
BRANCH  24  26
ATOM     26  O   UNL     1      -1.820  11.941  16.599  0.00  0.00    +0.000 OA
ATOM     27  H   UNL     1      -2.539  12.180  15.994  0.00  0.00    +0.000 HD
ENDBRANCH  24  26
ENDBRANCH  23  24
ENDBRANCH  22  23
ENDBRANCH   3  22
TORSDOF 9
ENDMDL
MODEL 6
REMARK VINA RESULT:      -7.2      3.417      9.001
REMARK  Name = 
REMARK  9 active torsions:
REMARK  status: ('A' for Active; 'I' for Inactive)
REMARK    1  A    between atoms: C_2  and  C_3
REMARK    2  A    between atoms: C_3  and  C_4
REMARK    3  A    between atoms: C_6  and  C_7
REMARK    4  A    between atoms: C_7  and  C_8
REMARK    5  A    between atoms: C_8  and  C_9
REMARK    6  A    between atoms: C_9  and  O_11
REMARK    7  A    between atoms: C_14  and  C_15
REMARK    8  A    between atoms: C_16  and  C_17
REMARK    9  A    between atoms: C_17  and  O_18
REMARK                            x       y       z     vdW  Elec       q    Type
REMARK                         _______ _______ _______ _____ _____    ______ ____
ROOT
ATOM      1  C   UNL     1       0.098   9.938  20.543  0.00  0.00    +0.000 A 
ATOM      2  C   UNL     1      -0.435  11.161  20.973  0.00  0.00    +0.000 A 
ATOM      3  C   UNL     1      -0.815  11.346  22.314  0.00  0.00    +0.000 A 
ATOM      4  C   UNL     1      -0.683  10.282  23.217  0.00  0.00    +0.000 A 
ATOM      5  C   UNL     1      -0.149   9.064  22.801  0.00  0.00    +0.000 A 
ATOM      6  C   UNL     1       0.254   8.883  21.476  0.00  0.00    +0.000 A 
ENDROOT
BRANCH   6   7
ATOM      7  C   UNL     1       0.942   7.586  21.081  0.00  0.00    +0.000 C 
ATOM      8  C   UNL     1       1.530   6.473  20.742  0.00  0.00    +0.000 C 
BRANCH   8   9
ATOM      9  C   UNL     1       2.218   5.176  20.346  0.00  0.00    +0.000 C 
ATOM     10  C   UNL     1       3.601   5.688  19.788  0.00  0.00    +0.000 C 
ATOM     11  N   UNL     1       4.108   4.834  18.690  0.00  0.00    +0.000 NA
ATOM     12  C   UNL     1       4.107   3.421  19.128  0.00  0.00    +0.000 C 
ATOM     13  C   UNL     1       2.651   2.920  19.344  0.00  0.00    +0.000 C 
ATOM     14  C   UNL     1       1.676   4.141  19.317  0.00  0.00    +0.000 C 
ATOM     15  C   UNL     1       1.738   4.704  17.884  0.00  0.00    +0.000 C 
ATOM     16  C   UNL     1       3.219   5.005  17.516  0.00  0.00    +0.000 C 
BRANCH   9  17
ATOM     17  O   UNL     1       2.531   4.523  21.556  0.00  0.00    +0.000 OA
ATOM     18  H   UNL     1       2.431   3.547  21.402  0.00  0.00    +0.000 HD
ENDBRANCH   9  17
ENDBRANCH   8   9
ENDBRANCH   6   7
BRANCH   1  19
ATOM     19  C   UNL     1       0.488   9.776  19.092  0.00  0.00    +0.000 C 
BRANCH  19  21
ATOM     20  C   UNL     1      -1.483   9.964  17.573  0.00  0.00    +0.000 C 
ATOM     21  C   UNL     1      -0.467  10.544  18.216  0.00  0.00    +0.000 C 
ENDBRANCH  19  21
ENDBRANCH   1  19
BRANCH   3  22
ATOM     22  C   UNL     1      -1.335  12.686  22.782  0.00  0.00    +0.000 C 
BRANCH  22  23
ATOM     23  C   UNL     1      -2.628  13.103  22.066  0.00  0.00    +0.000 C 
BRANCH  23  24
ATOM     24  C   UNL     1      -3.831  12.491  22.737  0.00  0.00    +0.000 C 
ATOM     25  O   UNL     1      -3.736  12.076  23.883  0.00  0.00    +0.000 OA
BRANCH  24  26
ATOM     26  O   UNL     1      -5.010  12.379  22.089  0.00  0.00    +0.000 OA
ATOM     27  H   UNL     1      -5.621  13.128  22.007  0.00  0.00    +0.000 HD
ENDBRANCH  24  26
ENDBRANCH  23  24
ENDBRANCH  22  23
ENDBRANCH   3  22
TORSDOF 9
ENDMDL
MODEL 7
REMARK VINA RESULT:      -7.1      1.454      1.901
REMARK  Name = 
REMARK  9 active torsions:
REMARK  status: ('A' for Active; 'I' for Inactive)
REMARK    1  A    between atoms: C_2  and  C_3
REMARK    2  A    between atoms: C_3  and  C_4
REMARK    3  A    between atoms: C_6  and  C_7
REMARK    4  A    between atoms: C_7  and  C_8
REMARK    5  A    between atoms: C_8  and  C_9
REMARK    6  A    between atoms: C_9  and  O_11
REMARK    7  A    between atoms: C_14  and  C_15
REMARK    8  A    between atoms: C_16  and  C_17
REMARK    9  A    between atoms: C_17  and  O_18
REMARK                            x       y       z     vdW  Elec       q    Type
REMARK                         _______ _______ _______ _____ _____    ______ ____
ROOT
ATOM      1  C   UNL     1       2.511   5.872  19.323  0.00  0.00    +0.000 A 
ATOM      2  C   UNL     1       3.357   4.896  18.779  0.00  0.00    +0.000 A 
ATOM      3  C   UNL     1       4.214   5.204  17.709  0.00  0.00    +0.000 A 
ATOM      4  C   UNL     1       4.196   6.498  17.168  0.00  0.00    +0.000 A 
ATOM      5  C   UNL     1       3.363   7.477  17.705  0.00  0.00    +0.000 A 
ATOM      6  C   UNL     1       2.528   7.182  18.785  0.00  0.00    +0.000 A 
ENDROOT
BRANCH   6   7
ATOM      7  C   UNL     1       1.720   8.300  19.423  0.00  0.00    +0.000 C 
ATOM      8  C   UNL     1       1.027   9.260  19.970  0.00  0.00    +0.000 C 
BRANCH   8   9
ATOM      9  C   UNL     1       0.218  10.377  20.608  0.00  0.00    +0.000 C 
ATOM     10  C   UNL     1      -0.937  10.597  19.557  0.00  0.00    +0.000 C 
ATOM     11  N   UNL     1      -1.370  12.011  19.494  0.00  0.00    +0.000 NA
ATOM     12  C   UNL     1      -1.682  12.490  20.858  0.00  0.00    +0.000 C 
ATOM     13  C   UNL     1      -0.393  12.537  21.726  0.00  0.00    +0.000 C 
ATOM     14  C   UNL     1       0.759  11.790  20.979  0.00  0.00    +0.000 C 
ATOM     15  C   UNL     1       1.052  12.618  19.714  0.00  0.00    +0.000 C 
ATOM     16  C   UNL     1      -0.266  12.813  18.912  0.00  0.00    +0.000 C 
BRANCH   9  17
ATOM     17  O   UNL     1      -0.414   9.802  21.730  0.00  0.00    +0.000 OA
ATOM     18  H   UNL     1       0.212   9.131  22.113  0.00  0.00    +0.000 HD
ENDBRANCH   9  17
ENDBRANCH   8   9
ENDBRANCH   6   7
BRANCH   1  19
ATOM     19  C   UNL     1       1.598   5.499  20.469  0.00  0.00    +0.000 C 
BRANCH  19  21
ATOM     20  C   UNL     1       1.842   3.271  21.567  0.00  0.00    +0.000 C 
ATOM     21  C   UNL     1       1.435   4.002  20.527  0.00  0.00    +0.000 C 
ENDBRANCH  19  21
ENDBRANCH   1  19
BRANCH   3  22
ATOM     22  C   UNL     1       5.165   4.161  17.166  0.00  0.00    +0.000 C 
BRANCH  22  23
ATOM     23  C   UNL     1       6.526   4.751  16.766  0.00  0.00    +0.000 C 
BRANCH  23  24
ATOM     24  C   UNL     1       7.501   4.666  17.912  0.00  0.00    +0.000 C 
ATOM     25  O   UNL     1       8.544   4.043  17.772  0.00  0.00    +0.000 OA
BRANCH  24  26
ATOM     26  O   UNL     1       7.237   5.253  19.098  0.00  0.00    +0.000 OA
ATOM     27  H   UNL     1       6.806   6.121  19.154  0.00  0.00    +0.000 HD
ENDBRANCH  24  26
ENDBRANCH  23  24
ENDBRANCH  22  23
ENDBRANCH   3  22
TORSDOF 9
ENDMDL
MODEL 8
REMARK VINA RESULT:      -7.1      3.548      9.170
REMARK  Name = 
REMARK  9 active torsions:
REMARK  status: ('A' for Active; 'I' for Inactive)
REMARK    1  A    between atoms: C_2  and  C_3
REMARK    2  A    between atoms: C_3  and  C_4
REMARK    3  A    between atoms: C_6  and  C_7
REMARK    4  A    between atoms: C_7  and  C_8
REMARK    5  A    between atoms: C_8  and  C_9
REMARK    6  A    between atoms: C_9  and  O_11
REMARK    7  A    between atoms: C_14  and  C_15
REMARK    8  A    between atoms: C_16  and  C_17
REMARK    9  A    between atoms: C_17  and  O_18
REMARK                            x       y       z     vdW  Elec       q    Type
REMARK                         _______ _______ _______ _____ _____    ______ ____
ROOT
ATOM      1  C   UNL     1       0.405  10.042  20.585  0.00  0.00    +0.000 A 
ATOM      2  C   UNL     1      -0.189  11.204  21.096  0.00  0.00    +0.000 A 
ATOM      3  C   UNL     1      -0.733  11.220  22.392  0.00  0.00    +0.000 A 
ATOM      4  C   UNL     1      -0.701  10.050  23.164  0.00  0.00    +0.000 A 
ATOM      5  C   UNL     1      -0.107   8.891  22.667  0.00  0.00    +0.000 A 
ATOM      6  C   UNL     1       0.457   8.878  21.389  0.00  0.00    +0.000 A 
ENDROOT
BRANCH   6   7
ATOM      7  C   UNL     1       1.201   7.637  20.922  0.00  0.00    +0.000 C 
ATOM      8  C   UNL     1       1.838   6.572  20.521  0.00  0.00    +0.000 C 
BRANCH   8   9
ATOM      9  C   UNL     1       2.582   5.332  20.053  0.00  0.00    +0.000 C 
ATOM     10  C   UNL     1       2.049   5.158  18.579  0.00  0.00    +0.000 C 
ATOM     11  N   UNL     1       1.966   3.735  18.182  0.00  0.00    +0.000 NA
ATOM     12  C   UNL     1       3.263   3.076  18.446  0.00  0.00    +0.000 C 
ATOM     13  C   UNL     1       3.542   3.017  19.975  0.00  0.00    +0.000 C 
ATOM     14  C   UNL     1       2.513   3.928  20.721  0.00  0.00    +0.000 C 
ATOM     15  C   UNL     1       1.134   3.279  20.502  0.00  0.00    +0.000 C 
ATOM     16  C   UNL     1       0.894   3.088  18.977  0.00  0.00    +0.000 C 
BRANCH   9  17
ATOM     17  O   UNL     1       3.929   5.724  19.909  0.00  0.00    +0.000 OA
ATOM     18  H   UNL     1       4.486   5.066  20.404  0.00  0.00    +0.000 HD
ENDBRANCH   9  17
ENDBRANCH   8   9
ENDBRANCH   6   7
BRANCH   1  19
ATOM     19  C   UNL     1       0.972  10.062  19.183  0.00  0.00    +0.000 C 
BRANCH  19  21
ATOM     20  C   UNL     1       2.301  11.950  18.236  0.00  0.00    +0.000 C 
ATOM     21  C   UNL     1       1.148  11.486  18.722  0.00  0.00    +0.000 C 
ENDBRANCH  19  21
ENDBRANCH   1  19
BRANCH   3  22
ATOM     22  C   UNL     1      -1.321  12.493  22.958  0.00  0.00    +0.000 C 
BRANCH  22  23
ATOM     23  C   UNL     1      -2.757  12.747  22.477  0.00  0.00    +0.000 C 
BRANCH  23  24
ATOM     24  C   UNL     1      -3.700  12.856  23.647  0.00  0.00    +0.000 C 
ATOM     25  O   UNL     1      -4.038  11.846  24.247  0.00  0.00    +0.000 OA
BRANCH  24  26
ATOM     26  O   UNL     1      -4.191  14.051  24.039  0.00  0.00    +0.000 OA
ATOM     27  H   UNL     1      -3.916  14.880  23.616  0.00  0.00    +0.000 HD
ENDBRANCH  24  26
ENDBRANCH  23  24
ENDBRANCH  22  23
ENDBRANCH   3  22
TORSDOF 9
ENDMDL
MODEL 9
REMARK VINA RESULT:      -7.1      3.376      8.875
REMARK  Name = 
REMARK  9 active torsions:
REMARK  status: ('A' for Active; 'I' for Inactive)
REMARK    1  A    between atoms: C_2  and  C_3
REMARK    2  A    between atoms: C_3  and  C_4
REMARK    3  A    between atoms: C_6  and  C_7
REMARK    4  A    between atoms: C_7  and  C_8
REMARK    5  A    between atoms: C_8  and  C_9
REMARK    6  A    between atoms: C_9  and  O_11
REMARK    7  A    between atoms: C_14  and  C_15
REMARK    8  A    between atoms: C_16  and  C_17
REMARK    9  A    between atoms: C_17  and  O_18
REMARK                            x       y       z     vdW  Elec       q    Type
REMARK                         _______ _______ _______ _____ _____    ______ ____
ROOT
ATOM      1  C   UNL     1       0.020   9.802  20.111  0.00  0.00    +0.000 A 
ATOM      2  C   UNL     1      -0.491  11.068  20.425  0.00  0.00    +0.000 A 
ATOM      3  C   UNL     1      -0.702  11.445  21.763  0.00  0.00    +0.000 A 
ATOM      4  C   UNL     1      -0.423  10.527  22.785  0.00  0.00    +0.000 A 
ATOM      5  C   UNL     1       0.091   9.267  22.483  0.00  0.00    +0.000 A 
ATOM      6  C   UNL     1       0.327   8.898  21.157  0.00  0.00    +0.000 A 
ENDROOT
BRANCH   6   7
ATOM      7  C   UNL     1       0.998   7.565  20.868  0.00  0.00    +0.000 C 
ATOM      8  C   UNL     1       1.575   6.422  20.620  0.00  0.00    +0.000 C 
BRANCH   8   9
ATOM      9  C   UNL     1       2.246   5.089  20.332  0.00  0.00    +0.000 C 
ATOM     10  C   UNL     1       3.629   5.535  19.719  0.00  0.00    +0.000 C 
ATOM     11  N   UNL     1       4.115   4.584  18.695  0.00  0.00    +0.000 NA
ATOM     12  C   UNL     1       4.105   3.214  19.254  0.00  0.00    +0.000 C 
ATOM     13  C   UNL     1       2.647   2.749  19.526  0.00  0.00    +0.000 C 
ATOM     14  C   UNL     1       1.684   3.974  19.402  0.00  0.00    +0.000 C 
ATOM     15  C   UNL     1       1.736   4.409  17.925  0.00  0.00    +0.000 C 
ATOM     16  C   UNL     1       3.216   4.662  17.518  0.00  0.00    +0.000 C 
BRANCH   9  17
ATOM     17  O   UNL     1       2.565   4.540  21.592  0.00  0.00    +0.000 OA
ATOM     18  H   UNL     1       1.785   4.690  22.189  0.00  0.00    +0.000 HD
ENDBRANCH   9  17
ENDBRANCH   8   9
ENDBRANCH   6   7
BRANCH   1  19
ATOM     19  C   UNL     1       0.227   9.432  18.659  0.00  0.00    +0.000 C 
BRANCH  19  21
ATOM     20  C   UNL     1       2.443   8.695  17.779  0.00  0.00    +0.000 C 
ATOM     21  C   UNL     1       1.665   9.661  18.273  0.00  0.00    +0.000 C 
ENDBRANCH  19  21
ENDBRANCH   1  19
BRANCH   3  22
ATOM     22  C   UNL     1      -1.200  12.833  22.096  0.00  0.00    +0.000 C 
BRANCH  22  23
ATOM     23  C   UNL     1      -1.973  12.882  23.423  0.00  0.00    +0.000 C 
BRANCH  23  24
ATOM     24  C   UNL     1      -3.409  12.476  23.219  0.00  0.00    +0.000 C 
ATOM     25  O   UNL     1      -3.932  12.638  22.126  0.00  0.00    +0.000 OA
BRANCH  24  26
ATOM     26  O   UNL     1      -4.136  11.950  24.227  0.00  0.00    +0.000 OA
ATOM     27  H   UNL     1      -3.877  11.125  24.667  0.00  0.00    +0.000 HD
ENDBRANCH  24  26
ENDBRANCH  23  24
ENDBRANCH  22  23
ENDBRANCH   3  22
TORSDOF 9
ENDMDL
