MODEL 1
REMARK VINA RESULT:      -9.7      0.000      0.000
REMARK  Name = 
REMARK  8 active torsions:
REMARK  status: ('A' for Active; 'I' for Inactive)
REMARK    1  A    between atoms: C_1  and  C_2
REMARK    2  A    between atoms: C_2  and  C_3
REMARK    3  A    between atoms: C_2  and  C_4
REMARK    4  A    between atoms: C_4  and  O_5
REMARK    5  A    between atoms: C_4  and  C_6
REMARK    6  A    between atoms: C_4  and  C_18
REMARK    7  A    between atoms: C_9  and  C_10
REMARK    8  A    between atoms: C_22  and  C_23
REMARK                            x       y       z     vdW  Elec       q    Type
REMARK                         _______ _______ _______ _____ _____    ______ ____
ROOT
ATOM      1  C   UNL     1       3.205   5.332  19.338  0.00  0.00    +0.000 C 
ENDROOT
BRANCH   1   2
ATOM      2  C   UNL     1       2.390   6.594  19.557  0.00  0.00    +0.000 A 
ATOM      3  C   UNL     1       1.809   7.039  20.726  0.00  0.00    +0.000 A 
ATOM      4  C   UNL     1       1.344   8.336  20.489  0.00  0.00    +0.000 A 
ATOM      5  C   UNL     1       0.772   9.307  21.303  0.00  0.00    +0.000 A 
ATOM      6  C   UNL     1       0.442  10.576  20.798  0.00  0.00    +0.000 A 
ATOM      7  C   UNL     1       0.666  10.822  19.432  0.00  0.00    +0.000 A 
ATOM      8  C   UNL     1       1.242   9.845  18.576  0.00  0.00    +0.000 A 
ATOM      9  C   UNL     1       1.575   8.617  19.156  0.00  0.00    +0.000 A 
ATOM     10  O   UNL     1       2.184   7.535  18.570  0.00  0.00    +0.000 OA
BRANCH   6  11
ATOM     11  C   UNL     1      -0.177  11.515  21.756  0.00  0.00    +0.000 A 
ATOM     12  C   UNL     1      -1.137  11.036  22.679  0.00  0.00    +0.000 A 
ATOM     13  C   UNL     1      -1.993  11.900  23.360  0.00  0.00    +0.000 A 
ATOM     14  C   UNL     1      -1.860  13.270  23.185  0.00  0.00    +0.000 A 
ATOM     15  C   UNL     1      -0.848  13.770  22.365  0.00  0.00    +0.000 A 
ATOM     16  C   UNL     1      -0.009  12.901  21.657  0.00  0.00    +0.000 A 
ENDBRANCH   6  11
ENDBRANCH   1   2
BRANCH   1  17
ATOM     17  C   UNL     1       3.836   5.169  17.948  0.00  0.00    +0.000 A 
ATOM     18  C   UNL     1       3.904   3.915  17.329  0.00  0.00    +0.000 A 
ATOM     19  C   UNL     1       4.588   3.724  16.129  0.00  0.00    +0.000 A 
ATOM     20  C   UNL     1       5.247   4.775  15.482  0.00  0.00    +0.000 A 
ATOM     21  C   UNL     1       5.165   6.038  16.083  0.00  0.00    +0.000 A 
ATOM     22  C   UNL     1       4.481   6.230  17.289  0.00  0.00    +0.000 A 
BRANCH  20  23
ATOM     23  C   UNL     1       6.039   4.522  14.263  0.00  0.00    +0.000 A 
ATOM     24  C   UNL     1       7.213   5.251  13.997  0.00  0.00    +0.000 A 
ATOM     25  C   UNL     1       7.909   5.100  12.797  0.00  0.00    +0.000 A 
ATOM     26  C   UNL     1       7.461   4.191  11.848  0.00  0.00    +0.000 A 
ATOM     27  C   UNL     1       6.321   3.429  12.098  0.00  0.00    +0.000 A 
ATOM     28  C   UNL     1       5.616   3.597  13.291  0.00  0.00    +0.000 A 
ENDBRANCH  20  23
ENDBRANCH   1  17
BRANCH   1  30
ATOM     29  C   UNL     1       2.502   3.752  21.283  0.00  0.00    +0.000 C 
ATOM     30  C   UNL     1       2.469   4.017  19.770  0.00  0.00    +0.000 C 
ATOM     31  C   UNL     1       1.023   3.897  19.277  0.00  0.00    +0.000 C 
ENDBRANCH   1  30
BRANCH   1  32
ATOM     32  O   UNL     1       4.295   5.521  20.277  0.00  0.00    +0.000 OA
ATOM     33  H   UNL     1       4.150   4.938  21.033  0.00  0.00    +0.000 HD
ENDBRANCH   1  32
TORSDOF 6
ENDMDL
MODEL 2
REMARK VINA RESULT:      -9.5      0.594      1.286
REMARK  Name = 
REMARK  8 active torsions:
REMARK  status: ('A' for Active; 'I' for Inactive)
REMARK    1  A    between atoms: C_1  and  C_2
REMARK    2  A    between atoms: C_2  and  C_3
REMARK    3  A    between atoms: C_2  and  C_4
REMARK    4  A    between atoms: C_4  and  O_5
REMARK    5  A    between atoms: C_4  and  C_6
REMARK    6  A    between atoms: C_4  and  C_18
REMARK    7  A    between atoms: C_9  and  C_10
REMARK    8  A    between atoms: C_22  and  C_23
REMARK                            x       y       z     vdW  Elec       q    Type
REMARK                         _______ _______ _______ _____ _____    ______ ____
ROOT
ATOM      1  C   UNL     1       3.259   4.717  19.515  0.00  0.00    +0.000 C 
ENDROOT
BRANCH   1   2
ATOM      2  C   UNL     1       2.508   6.030  19.647  0.00  0.00    +0.000 A 
ATOM      3  C   UNL     1       1.905   6.556  20.770  0.00  0.00    +0.000 A 
ATOM      4  C   UNL     1       1.524   7.866  20.460  0.00  0.00    +0.000 A 
ATOM      5  C   UNL     1       0.975   8.901  21.208  0.00  0.00    +0.000 A 
ATOM      6  C   UNL     1       0.739  10.163  20.637  0.00  0.00    +0.000 A 
ATOM      7  C   UNL     1       1.033  10.337  19.273  0.00  0.00    +0.000 A 
ATOM      8  C   UNL     1       1.588   9.294  18.485  0.00  0.00    +0.000 A 
ATOM      9  C   UNL     1       1.826   8.076  19.128  0.00  0.00    +0.000 A 
ATOM     10  O   UNL     1       2.397   6.938  18.614  0.00  0.00    +0.000 OA
BRANCH   6  11
ATOM     11  C   UNL     1       0.134  11.175  21.528  0.00  0.00    +0.000 A 
ATOM     12  C   UNL     1      -0.734  10.760  22.566  0.00  0.00    +0.000 A 
ATOM     13  C   UNL     1      -1.588  11.655  23.208  0.00  0.00    +0.000 A 
ATOM     14  C   UNL     1      -1.543  13.001  22.873  0.00  0.00    +0.000 A 
ATOM     15  C   UNL     1      -0.618  13.451  21.931  0.00  0.00    +0.000 A 
ATOM     16  C   UNL     1       0.219  12.547  21.264  0.00  0.00    +0.000 A 
ENDBRANCH   6  11
ENDBRANCH   1   2
BRANCH   1  17
ATOM     17  C   UNL     1       4.050   4.519  18.215  0.00  0.00    +0.000 A 
ATOM     18  C   UNL     1       5.192   5.282  17.943  0.00  0.00    +0.000 A 
ATOM     19  C   UNL     1       5.847   5.212  16.714  0.00  0.00    +0.000 A 
ATOM     20  C   UNL     1       5.394   4.379  15.685  0.00  0.00    +0.000 A 
ATOM     21  C   UNL     1       4.264   3.595  15.956  0.00  0.00    +0.000 A 
ATOM     22  C   UNL     1       3.605   3.669  17.189  0.00  0.00    +0.000 A 
BRANCH  20  23
ATOM     23  C   UNL     1       6.054   4.396  14.365  0.00  0.00    +0.000 A 
ATOM     24  C   UNL     1       5.608   3.564  13.321  0.00  0.00    +0.000 A 
ATOM     25  C   UNL     1       6.291   3.488  12.107  0.00  0.00    +0.000 A 
ATOM     26  C   UNL     1       7.420   4.270  11.898  0.00  0.00    +0.000 A 
ATOM     27  C   UNL     1       7.865   5.131  12.901  0.00  0.00    +0.000 A 
ATOM     28  C   UNL     1       7.190   5.188  14.122  0.00  0.00    +0.000 A 
ENDBRANCH  20  23
ENDBRANCH   1  17
BRANCH   1  30
ATOM     29  C   UNL     1       2.532   2.941  21.275  0.00  0.00    +0.000 C 
ATOM     30  C   UNL     1       2.388   3.453  19.832  0.00  0.00    +0.000 C 
ATOM     31  C   UNL     1       0.899   3.599  19.505  0.00  0.00    +0.000 C 
ENDBRANCH   1  30
BRANCH   1  32
ATOM     32  O   UNL     1       4.230   4.827  20.588  0.00  0.00    +0.000 OA
ATOM     33  H   UNL     1       4.033   4.151  21.248  0.00  0.00    +0.000 HD
ENDBRANCH   1  32
TORSDOF 6
ENDMDL
MODEL 3
REMARK VINA RESULT:      -9.5      0.477      1.548
REMARK  Name = 
REMARK  8 active torsions:
REMARK  status: ('A' for Active; 'I' for Inactive)
REMARK    1  A    between atoms: C_1  and  C_2
REMARK    2  A    between atoms: C_2  and  C_3
REMARK    3  A    between atoms: C_2  and  C_4
REMARK    4  A    between atoms: C_4  and  O_5
REMARK    5  A    between atoms: C_4  and  C_6
REMARK    6  A    between atoms: C_4  and  C_18
REMARK    7  A    between atoms: C_9  and  C_10
REMARK    8  A    between atoms: C_22  and  C_23
REMARK                            x       y       z     vdW  Elec       q    Type
REMARK                         _______ _______ _______ _____ _____    ______ ____
ROOT
ATOM      1  C   UNL     1       3.278   5.252  19.344  0.00  0.00    +0.000 C 
ENDROOT
BRANCH   1   2
ATOM      2  C   UNL     1       2.476   6.541  19.399  0.00  0.00    +0.000 A 
ATOM      3  C   UNL     1       1.833   7.097  20.484  0.00  0.00    +0.000 A 
ATOM      4  C   UNL     1       1.410   8.375  20.104  0.00  0.00    +0.000 A 
ATOM      5  C   UNL     1       0.808   9.423  20.791  0.00  0.00    +0.000 A 
ATOM      6  C   UNL     1       0.536  10.647  20.155  0.00  0.00    +0.000 A 
ATOM      7  C   UNL     1       0.850  10.766  18.789  0.00  0.00    +0.000 A 
ATOM      8  C   UNL     1       1.458   9.707  18.062  0.00  0.00    +0.000 A 
ATOM      9  C   UNL     1       1.729   8.532  18.769  0.00  0.00    +0.000 A 
ATOM     10  O   UNL     1       2.351   7.393  18.321  0.00  0.00    +0.000 OA
BRANCH   6  11
ATOM     11  C   UNL     1      -0.122  11.677  20.985  0.00  0.00    +0.000 A 
ATOM     12  C   UNL     1       0.263  13.032  20.848  0.00  0.00    +0.000 A 
ATOM     13  C   UNL     1      -0.058  13.986  21.812  0.00  0.00    +0.000 A 
ATOM     14  C   UNL     1      -0.831  13.618  22.904  0.00  0.00    +0.000 A 
ATOM     15  C   UNL     1      -1.314  12.313  23.005  0.00  0.00    +0.000 A 
ATOM     16  C   UNL     1      -0.966  11.348  22.051  0.00  0.00    +0.000 A 
ENDBRANCH   6  11
ENDBRANCH   1   2
BRANCH   1  17
ATOM     17  C   UNL     1       4.121   5.036  18.080  0.00  0.00    +0.000 A 
ATOM     18  C   UNL     1       4.632   6.122  17.360  0.00  0.00    +0.000 A 
ATOM     19  C   UNL     1       5.287   5.952  16.141  0.00  0.00    +0.000 A 
ATOM     20  C   UNL     1       5.464   4.687  15.570  0.00  0.00    +0.000 A 
ATOM     21  C   UNL     1       4.976   3.592  16.295  0.00  0.00    +0.000 A 
ATOM     22  C   UNL     1       4.314   3.763  17.518  0.00  0.00    +0.000 A 
BRANCH  20  23
ATOM     23  C   UNL     1       6.079   4.549  14.236  0.00  0.00    +0.000 A 
ATOM     24  C   UNL     1       5.578   3.625  13.299  0.00  0.00    +0.000 A 
ATOM     25  C   UNL     1       6.217   3.406  12.078  0.00  0.00    +0.000 A 
ATOM     26  C   UNL     1       7.357   4.131  11.754  0.00  0.00    +0.000 A 
ATOM     27  C   UNL     1       7.856   5.078  12.647  0.00  0.00    +0.000 A 
ATOM     28  C   UNL     1       7.225   5.280  13.876  0.00  0.00    +0.000 A 
ENDBRANCH  20  23
ENDBRANCH   1  17
BRANCH   1  30
ATOM     29  C   UNL     1       2.201   3.757  21.183  0.00  0.00    +0.000 C 
ATOM     30  C   UNL     1       2.441   3.970  19.680  0.00  0.00    +0.000 C 
ATOM     31  C   UNL     1       1.102   3.864  18.944  0.00  0.00    +0.000 C 
ENDBRANCH   1  30
BRANCH   1  32
ATOM     32  O   UNL     1       4.205   5.439  20.445  0.00  0.00    +0.000 OA
ATOM     33  H   UNL     1       4.136   4.677  21.034  0.00  0.00    +0.000 HD
ENDBRANCH   1  32
TORSDOF 6
ENDMDL
MODEL 4
REMARK VINA RESULT:      -9.1      3.308     10.614
REMARK  Name = 
REMARK  8 active torsions:
REMARK  status: ('A' for Active; 'I' for Inactive)
REMARK    1  A    between atoms: C_1  and  C_2
REMARK    2  A    between atoms: C_2  and  C_3
REMARK    3  A    between atoms: C_2  and  C_4
REMARK    4  A    between atoms: C_4  and  O_5
REMARK    5  A    between atoms: C_4  and  C_6
REMARK    6  A    between atoms: C_4  and  C_18
REMARK    7  A    between atoms: C_9  and  C_10
REMARK    8  A    between atoms: C_22  and  C_23
REMARK                            x       y       z     vdW  Elec       q    Type
REMARK                         _______ _______ _______ _____ _____    ______ ____
ROOT
ATOM      1  C   UNL     1       0.853  11.234  19.891  0.00  0.00    +0.000 C 
ENDROOT
BRANCH   1   2
ATOM      2  C   UNL     1       1.364   9.895  19.389  0.00  0.00    +0.000 A 
ATOM      3  C   UNL     1       1.979   9.616  18.187  0.00  0.00    +0.000 A 
ATOM      4  C   UNL     1       2.451   8.302  18.259  0.00  0.00    +0.000 A 
ATOM      5  C   UNL     1       3.223   7.518  17.409  0.00  0.00    +0.000 A 
ATOM      6  C   UNL     1       3.602   6.214  17.768  0.00  0.00    +0.000 A 
ATOM      7  C   UNL     1       3.142   5.706  18.996  0.00  0.00    +0.000 A 
ATOM      8  C   UNL     1       2.345   6.483  19.880  0.00  0.00    +0.000 A 
ATOM      9  C   UNL     1       2.035   7.783  19.470  0.00  0.00    +0.000 A 
ATOM     10  O   UNL     1       1.334   8.746  20.152  0.00  0.00    +0.000 OA
BRANCH   6  11
ATOM     11  C   UNL     1       4.407   5.474  16.773  0.00  0.00    +0.000 A 
ATOM     12  C   UNL     1       4.555   4.073  16.900  0.00  0.00    +0.000 A 
ATOM     13  C   UNL     1       5.552   3.377  16.219  0.00  0.00    +0.000 A 
ATOM     14  C   UNL     1       6.382   4.060  15.341  0.00  0.00    +0.000 A 
ATOM     15  C   UNL     1       6.184   5.422  15.117  0.00  0.00    +0.000 A 
ATOM     16  C   UNL     1       5.201   6.126  15.824  0.00  0.00    +0.000 A 
ENDBRANCH   6  11
ENDBRANCH   1   2
BRANCH   1  17
ATOM     17  C   UNL     1      -0.609  11.566  19.559  0.00  0.00    +0.000 A 
ATOM     18  C   UNL     1      -1.345  12.452  20.354  0.00  0.00    +0.000 A 
ATOM     19  C   UNL     1      -2.708  12.664  20.149  0.00  0.00    +0.000 A 
ATOM     20  C   UNL     1      -3.412  12.000  19.140  0.00  0.00    +0.000 A 
ATOM     21  C   UNL     1      -2.679  11.128  18.324  0.00  0.00    +0.000 A 
ATOM     22  C   UNL     1      -1.311  10.911  18.533  0.00  0.00    +0.000 A 
BRANCH  20  23
ATOM     23  C   UNL     1      -4.872  12.176  19.007  0.00  0.00    +0.000 A 
ATOM     24  C   UNL     1      -5.697  12.269  20.143  0.00  0.00    +0.000 A 
ATOM     25  C   UNL     1      -7.087  12.324  20.032  0.00  0.00    +0.000 A 
ATOM     26  C   UNL     1      -7.681  12.320  18.776  0.00  0.00    +0.000 A 
ATOM     27  C   UNL     1      -6.887  12.264  17.632  0.00  0.00    +0.000 A 
ATOM     28  C   UNL     1      -5.498  12.189  17.748  0.00  0.00    +0.000 A 
ENDBRANCH  20  23
ENDBRANCH   1  17
BRANCH   1  30
ATOM     29  C   UNL     1       1.320  13.265  18.330  0.00  0.00    +0.000 C 
ATOM     30  C   UNL     1       1.788  12.443  19.542  0.00  0.00    +0.000 C 
ATOM     31  C   UNL     1       2.071  13.395  20.708  0.00  0.00    +0.000 C 
ENDBRANCH   1  30
BRANCH   1  32
ATOM     32  O   UNL     1       0.930  11.055  21.329  0.00  0.00    +0.000 OA
ATOM     33  H   UNL     1       1.814  11.311  21.621  0.00  0.00    +0.000 HD
ENDBRANCH   1  32
TORSDOF 6
ENDMDL
MODEL 5
REMARK VINA RESULT:      -9.1      3.436     10.662
REMARK  Name = 
REMARK  8 active torsions:
REMARK  status: ('A' for Active; 'I' for Inactive)
REMARK    1  A    between atoms: C_1  and  C_2
REMARK    2  A    between atoms: C_2  and  C_3
REMARK    3  A    between atoms: C_2  and  C_4
REMARK    4  A    between atoms: C_4  and  O_5
REMARK    5  A    between atoms: C_4  and  C_6
REMARK    6  A    between atoms: C_4  and  C_18
REMARK    7  A    between atoms: C_9  and  C_10
REMARK    8  A    between atoms: C_22  and  C_23
REMARK                            x       y       z     vdW  Elec       q    Type
REMARK                         _______ _______ _______ _____ _____    ______ ____
ROOT
ATOM      1  C   UNL     1       0.640  11.396  20.040  0.00  0.00    +0.000 C 
ENDROOT
BRANCH   1   2
ATOM      2  C   UNL     1       1.181  10.054  19.580  0.00  0.00    +0.000 A 
ATOM      3  C   UNL     1       1.858   9.765  18.414  0.00  0.00    +0.000 A 
ATOM      4  C   UNL     1       2.331   8.453  18.525  0.00  0.00    +0.000 A 
ATOM      5  C   UNL     1       3.148   7.664  17.724  0.00  0.00    +0.000 A 
ATOM      6  C   UNL     1       3.514   6.365  18.117  0.00  0.00    +0.000 A 
ATOM      7  C   UNL     1       2.992   5.868  19.325  0.00  0.00    +0.000 A 
ATOM      8  C   UNL     1       2.149   6.652  20.158  0.00  0.00    +0.000 A 
ATOM      9  C   UNL     1       1.855   7.946  19.719  0.00  0.00    +0.000 A 
ATOM     10  O   UNL     1       1.116   8.913  20.353  0.00  0.00    +0.000 OA
BRANCH   6  11
ATOM     11  C   UNL     1       4.371   5.618  17.173  0.00  0.00    +0.000 A 
ATOM     12  C   UNL     1       5.093   6.324  16.181  0.00  0.00    +0.000 A 
ATOM     13  C   UNL     1       5.633   5.678  15.070  0.00  0.00    +0.000 A 
ATOM     14  C   UNL     1       5.522   4.299  14.962  0.00  0.00    +0.000 A 
ATOM     15  C   UNL     1       4.911   3.570  15.982  0.00  0.00    +0.000 A 
ATOM     16  C   UNL     1       4.342   4.222  17.083  0.00  0.00    +0.000 A 
ENDBRANCH   6  11
ENDBRANCH   1   2
BRANCH   1  17
ATOM     17  C   UNL     1      -0.809  11.711  19.644  0.00  0.00    +0.000 A 
ATOM     18  C   UNL     1      -1.629  12.489  20.469  0.00  0.00    +0.000 A 
ATOM     19  C   UNL     1      -2.984  12.676  20.194  0.00  0.00    +0.000 A 
ATOM     20  C   UNL     1      -3.595  12.092  19.079  0.00  0.00    +0.000 A 
ATOM     21  C   UNL     1      -2.777  11.330  18.235  0.00  0.00    +0.000 A 
ATOM     22  C   UNL     1      -1.418  11.138  18.514  0.00  0.00    +0.000 A 
BRANCH  20  23
ATOM     23  C   UNL     1      -5.049  12.233  18.865  0.00  0.00    +0.000 A 
ATOM     24  C   UNL     1      -5.585  12.323  17.567  0.00  0.00    +0.000 A 
ATOM     25  C   UNL     1      -6.942  12.568  17.354  0.00  0.00    +0.000 A 
ATOM     26  C   UNL     1      -7.800  12.697  18.439  0.00  0.00    +0.000 A 
ATOM     27  C   UNL     1      -7.304  12.578  19.736  0.00  0.00    +0.000 A 
ATOM     28  C   UNL     1      -5.942  12.353  19.945  0.00  0.00    +0.000 A 
ENDBRANCH  20  23
ENDBRANCH   1  17
BRANCH   1  30
ATOM     29  C   UNL     1       1.160  13.402  18.464  0.00  0.00    +0.000 C 
ATOM     30  C   UNL     1       1.580  12.607  19.711  0.00  0.00    +0.000 C 
ATOM     31  C   UNL     1       1.800  13.583  20.871  0.00  0.00    +0.000 C 
ENDBRANCH   1  30
BRANCH   1  32
ATOM     32  O   UNL     1       0.659  11.239  21.482  0.00  0.00    +0.000 OA
ATOM     33  H   UNL     1       0.902  10.327  21.686  0.00  0.00    +0.000 HD
ENDBRANCH   1  32
TORSDOF 6
ENDMDL
MODEL 6
REMARK VINA RESULT:      -9.1      3.511     10.734
REMARK  Name = 
REMARK  8 active torsions:
REMARK  status: ('A' for Active; 'I' for Inactive)
REMARK    1  A    between atoms: C_1  and  C_2
REMARK    2  A    between atoms: C_2  and  C_3
REMARK    3  A    between atoms: C_2  and  C_4
REMARK    4  A    between atoms: C_4  and  O_5
REMARK    5  A    between atoms: C_4  and  C_6
REMARK    6  A    between atoms: C_4  and  C_18
REMARK    7  A    between atoms: C_9  and  C_10
REMARK    8  A    between atoms: C_22  and  C_23
REMARK                            x       y       z     vdW  Elec       q    Type
REMARK                         _______ _______ _______ _____ _____    ______ ____
ROOT
ATOM      1  C   UNL     1       0.389  11.384  20.111  0.00  0.00    +0.000 C 
ENDROOT
BRANCH   1   2
ATOM      2  C   UNL     1       0.963  10.060  19.636  0.00  0.00    +0.000 A 
ATOM      3  C   UNL     1       1.551   9.776  18.422  0.00  0.00    +0.000 A 
ATOM      4  C   UNL     1       2.105   8.495  18.521  0.00  0.00    +0.000 A 
ATOM      5  C   UNL     1       2.893   7.729  17.669  0.00  0.00    +0.000 A 
ATOM      6  C   UNL     1       3.364   6.464  18.059  0.00  0.00    +0.000 A 
ATOM      7  C   UNL     1       2.980   5.974  19.319  0.00  0.00    +0.000 A 
ATOM      8  C   UNL     1       2.169   6.733  20.206  0.00  0.00    +0.000 A 
ATOM      9  C   UNL     1       1.765   7.997  19.764  0.00  0.00    +0.000 A 
ATOM     10  O   UNL     1       1.031   8.940  20.439  0.00  0.00    +0.000 OA
BRANCH   6  11
ATOM     11  C   UNL     1       4.177   5.739  17.059  0.00  0.00    +0.000 A 
ATOM     12  C   UNL     1       4.186   4.324  17.064  0.00  0.00    +0.000 A 
ATOM     13  C   UNL     1       5.168   3.595  16.395  0.00  0.00    +0.000 A 
ATOM     14  C   UNL     1       6.125   4.268  15.648  0.00  0.00    +0.000 A 
ATOM     15  C   UNL     1       6.071   5.657  15.540  0.00  0.00    +0.000 A 
ATOM     16  C   UNL     1       5.102   6.390  16.237  0.00  0.00    +0.000 A 
ENDBRANCH   6  11
ENDBRANCH   1   2
BRANCH   1  17
ATOM     17  C   UNL     1      -1.118  11.581  19.896  0.00  0.00    +0.000 A 
ATOM     18  C   UNL     1      -1.755  11.073  18.757  0.00  0.00    +0.000 A 
ATOM     19  C   UNL     1      -3.093  11.354  18.477  0.00  0.00    +0.000 A 
ATOM     20  C   UNL     1      -3.867  12.161  19.318  0.00  0.00    +0.000 A 
ATOM     21  C   UNL     1      -3.243  12.655  20.471  0.00  0.00    +0.000 A 
ATOM     22  C   UNL     1      -1.900  12.377  20.750  0.00  0.00    +0.000 A 
BRANCH  20  23
ATOM     23  C   UNL     1      -5.251  12.514  18.947  0.00  0.00    +0.000 A 
ATOM     24  C   UNL     1      -5.724  12.313  17.637  0.00  0.00    +0.000 A 
ATOM     25  C   UNL     1      -6.992  12.744  17.245  0.00  0.00    +0.000 A 
ATOM     26  C   UNL     1      -7.829  13.360  18.167  0.00  0.00    +0.000 A 
ATOM     27  C   UNL     1      -7.401  13.541  19.482  0.00  0.00    +0.000 A 
ATOM     28  C   UNL     1      -6.124  13.126  19.864  0.00  0.00    +0.000 A 
ENDBRANCH  20  23
ENDBRANCH   1  17
BRANCH   1  30
ATOM     29  C   UNL     1       0.504  13.403  18.474  0.00  0.00    +0.000 C 
ATOM     30  C   UNL     1       1.189  12.638  19.617  0.00  0.00    +0.000 C 
ATOM     31  C   UNL     1       1.573  13.630  20.719  0.00  0.00    +0.000 C 
ENDBRANCH   1  30
BRANCH   1  32
ATOM     32  O   UNL     1       0.603  11.296  21.544  0.00  0.00    +0.000 OA
ATOM     33  H   UNL     1      -0.199  10.943  21.951  0.00  0.00    +0.000 HD
ENDBRANCH   1  32
TORSDOF 6
ENDMDL
MODEL 7
REMARK VINA RESULT:      -9.1      1.265      1.962
REMARK  Name = 
REMARK  8 active torsions:
REMARK  status: ('A' for Active; 'I' for Inactive)
REMARK    1  A    between atoms: C_1  and  C_2
REMARK    2  A    between atoms: C_2  and  C_3
REMARK    3  A    between atoms: C_2  and  C_4
REMARK    4  A    between atoms: C_4  and  O_5
REMARK    5  A    between atoms: C_4  and  C_6
REMARK    6  A    between atoms: C_4  and  C_18
REMARK    7  A    between atoms: C_9  and  C_10
REMARK    8  A    between atoms: C_22  and  C_23
REMARK                            x       y       z     vdW  Elec       q    Type
REMARK                         _______ _______ _______ _____ _____    ______ ____
ROOT
ATOM      1  C   UNL     1       3.254   4.987  19.431  0.00  0.00    +0.000 C 
ENDROOT
BRANCH   1   2
ATOM      2  C   UNL     1       2.580   6.303  19.780  0.00  0.00    +0.000 A 
ATOM      3  C   UNL     1       2.528   7.458  19.028  0.00  0.00    +0.000 A 
ATOM      4  C   UNL     1       1.632   8.324  19.662  0.00  0.00    +0.000 A 
ATOM      5  C   UNL     1       1.109   9.567  19.325  0.00  0.00    +0.000 A 
ATOM      6  C   UNL     1       0.160  10.202  20.145  0.00  0.00    +0.000 A 
ATOM      7  C   UNL     1      -0.212   9.563  21.341  0.00  0.00    +0.000 A 
ATOM      8  C   UNL     1       0.313   8.296  21.713  0.00  0.00    +0.000 A 
ATOM      9  C   UNL     1       1.227   7.710  20.832  0.00  0.00    +0.000 A 
ATOM     10  O   UNL     1       1.836   6.484  20.927  0.00  0.00    +0.000 OA
BRANCH   6  11
ATOM     11  C   UNL     1      -0.307  11.528  19.690  0.00  0.00    +0.000 A 
ATOM     12  C   UNL     1       0.451  12.242  18.732  0.00  0.00    +0.000 A 
ATOM     13  C   UNL     1       0.264  13.607  18.519  0.00  0.00    +0.000 A 
ATOM     14  C   UNL     1      -0.736  14.274  19.213  0.00  0.00    +0.000 A 
ATOM     15  C   UNL     1      -1.569  13.568  20.081  0.00  0.00    +0.000 A 
ATOM     16  C   UNL     1      -1.360  12.203  20.317  0.00  0.00    +0.000 A 
ENDBRANCH   6  11
ENDBRANCH   1   2
BRANCH   1  17
ATOM     17  C   UNL     1       3.865   4.895  18.026  0.00  0.00    +0.000 A 
ATOM     18  C   UNL     1       3.958   3.666  17.361  0.00  0.00    +0.000 A 
ATOM     19  C   UNL     1       4.627   3.539  16.144  0.00  0.00    +0.000 A 
ATOM     20  C   UNL     1       5.243   4.632  15.525  0.00  0.00    +0.000 A 
ATOM     21  C   UNL     1       5.135   5.870  16.172  0.00  0.00    +0.000 A 
ATOM     22  C   UNL     1       4.467   5.997  17.396  0.00  0.00    +0.000 A 
BRANCH  20  23
ATOM     23  C   UNL     1       6.021   4.447  14.284  0.00  0.00    +0.000 A 
ATOM     24  C   UNL     1       7.179   5.206  14.035  0.00  0.00    +0.000 A 
ATOM     25  C   UNL     1       7.860   5.121  12.819  0.00  0.00    +0.000 A 
ATOM     26  C   UNL     1       7.412   4.249  11.836  0.00  0.00    +0.000 A 
ATOM     27  C   UNL     1       6.287   3.458  12.068  0.00  0.00    +0.000 A 
ATOM     28  C   UNL     1       5.598   3.561  13.277  0.00  0.00    +0.000 A 
ENDBRANCH  20  23
ENDBRANCH   1  17
BRANCH   1  30
ATOM     29  C   UNL     1       2.412   3.289  21.214  0.00  0.00    +0.000 C 
ATOM     30  C   UNL     1       2.380   3.724  19.740  0.00  0.00    +0.000 C 
ATOM     31  C   UNL     1       0.921   3.823  19.284  0.00  0.00    +0.000 C 
ENDBRANCH   1  30
BRANCH   1  32
ATOM     32  O   UNL     1       4.357   4.966  20.374  0.00  0.00    +0.000 OA
ATOM     33  H   UNL     1       4.712   4.069  20.407  0.00  0.00    +0.000 HD
ENDBRANCH   1  32
TORSDOF 6
ENDMDL
MODEL 8
REMARK VINA RESULT:      -9.0      1.374      2.262
REMARK  Name = 
REMARK  8 active torsions:
REMARK  status: ('A' for Active; 'I' for Inactive)
REMARK    1  A    between atoms: C_1  and  C_2
REMARK    2  A    between atoms: C_2  and  C_3
REMARK    3  A    between atoms: C_2  and  C_4
REMARK    4  A    between atoms: C_4  and  O_5
REMARK    5  A    between atoms: C_4  and  C_6
REMARK    6  A    between atoms: C_4  and  C_18
REMARK    7  A    between atoms: C_9  and  C_10
REMARK    8  A    between atoms: C_22  and  C_23
REMARK                            x       y       z     vdW  Elec       q    Type
REMARK                         _______ _______ _______ _____ _____    ______ ____
ROOT
ATOM      1  C   UNL     1       2.996   4.976  19.208  0.00  0.00    +0.000 C 
ENDROOT
BRANCH   1   2
ATOM      2  C   UNL     1       2.526   6.380  19.546  0.00  0.00    +0.000 A 
ATOM      3  C   UNL     1       2.414   7.465  18.703  0.00  0.00    +0.000 A 
ATOM      4  C   UNL     1       1.750   8.472  19.412  0.00  0.00    +0.000 A 
ATOM      5  C   UNL     1       1.275   9.730  19.059  0.00  0.00    +0.000 A 
ATOM      6  C   UNL     1       0.580  10.529  19.984  0.00  0.00    +0.000 A 
ATOM      7  C   UNL     1       0.417  10.037  21.291  0.00  0.00    +0.000 A 
ATOM      8  C   UNL     1       0.901   8.758  21.679  0.00  0.00    +0.000 A 
ATOM      9  C   UNL     1       1.553   8.006  20.697  0.00  0.00    +0.000 A 
ATOM     10  O   UNL     1       2.061   6.735  20.796  0.00  0.00    +0.000 OA
BRANCH   6  11
ATOM     11  C   UNL     1       0.141  11.853  19.496  0.00  0.00    +0.000 A 
ATOM     12  C   UNL     1       1.009  12.618  18.683  0.00  0.00    +0.000 A 
ATOM     13  C   UNL     1       0.809  13.982  18.477  0.00  0.00    +0.000 A 
ATOM     14  C   UNL     1      -0.307  14.597  19.027  0.00  0.00    +0.000 A 
ATOM     15  C   UNL     1      -1.236  13.841  19.741  0.00  0.00    +0.000 A 
ATOM     16  C   UNL     1      -1.017  12.476  19.973  0.00  0.00    +0.000 A 
ENDBRANCH   6  11
ENDBRANCH   1   2
BRANCH   1  17
ATOM     17  C   UNL     1       3.953   4.855  18.014  0.00  0.00    +0.000 A 
ATOM     18  C   UNL     1       4.271   5.970  17.230  0.00  0.00    +0.000 A 
ATOM     19  C   UNL     1       5.031   5.856  16.066  0.00  0.00    +0.000 A 
ATOM     20  C   UNL     1       5.512   4.621  15.619  0.00  0.00    +0.000 A 
ATOM     21  C   UNL     1       5.218   3.503  16.410  0.00  0.00    +0.000 A 
ATOM     22  C   UNL     1       4.452   3.616  17.576  0.00  0.00    +0.000 A 
BRANCH  20  23
ATOM     23  C   UNL     1       6.235   4.521  14.336  0.00  0.00    +0.000 A 
ATOM     24  C   UNL     1       7.342   5.346  14.061  0.00  0.00    +0.000 A 
ATOM     25  C   UNL     1       7.965   5.340  12.813  0.00  0.00    +0.000 A 
ATOM     26  C   UNL     1       7.511   4.483  11.818  0.00  0.00    +0.000 A 
ATOM     27  C   UNL     1       6.438   3.629  12.072  0.00  0.00    +0.000 A 
ATOM     28  C   UNL     1       5.806   3.653  13.316  0.00  0.00    +0.000 A 
ENDBRANCH  20  23
ENDBRANCH   1  17
BRANCH   1  30
ATOM     29  C   UNL     1       0.871   3.937  20.294  0.00  0.00    +0.000 C 
ATOM     30  C   UNL     1       1.837   3.927  19.099  0.00  0.00    +0.000 C 
ATOM     31  C   UNL     1       1.023   4.000  17.803  0.00  0.00    +0.000 C 
ENDBRANCH   1  30
BRANCH   1  32
ATOM     32  O   UNL     1       3.755   4.629  20.395  0.00  0.00    +0.000 OA
ATOM     33  H   UNL     1       3.887   3.672  20.404  0.00  0.00    +0.000 HD
ENDBRANCH   1  32
TORSDOF 6
ENDMDL
MODEL 9
REMARK VINA RESULT:      -9.0      3.382     10.646
REMARK  Name = 
REMARK  8 active torsions:
REMARK  status: ('A' for Active; 'I' for Inactive)
REMARK    1  A    between atoms: C_1  and  C_2
REMARK    2  A    between atoms: C_2  and  C_3
REMARK    3  A    between atoms: C_2  and  C_4
REMARK    4  A    between atoms: C_4  and  O_5
REMARK    5  A    between atoms: C_4  and  C_6
REMARK    6  A    between atoms: C_4  and  C_18
REMARK    7  A    between atoms: C_9  and  C_10
REMARK    8  A    between atoms: C_22  and  C_23
REMARK                            x       y       z     vdW  Elec       q    Type
REMARK                         _______ _______ _______ _____ _____    ______ ____
ROOT
ATOM      1  C   UNL     1       0.707  11.229  19.955  0.00  0.00    +0.000 C 
ENDROOT
BRANCH   1   2
ATOM      2  C   UNL     1       1.265   9.901  19.474  0.00  0.00    +0.000 A 
ATOM      3  C   UNL     1       1.991   9.648  18.329  0.00  0.00    +0.000 A 
ATOM      4  C   UNL     1       2.457   8.333  18.417  0.00  0.00    +0.000 A 
ATOM      5  C   UNL     1       3.306   7.568  17.625  0.00  0.00    +0.000 A 
ATOM      6  C   UNL     1       3.654   6.256  17.991  0.00  0.00    +0.000 A 
ATOM      7  C   UNL     1       3.082   5.722  19.159  0.00  0.00    +0.000 A 
ATOM      8  C   UNL     1       2.205   6.480  19.982  0.00  0.00    +0.000 A 
ATOM      9  C   UNL     1       1.931   7.788  19.573  0.00  0.00    +0.000 A 
ATOM     10  O   UNL     1       1.167   8.736  20.207  0.00  0.00    +0.000 OA
BRANCH   6  11
ATOM     11  C   UNL     1       4.549   5.539  17.059  0.00  0.00    +0.000 A 
ATOM     12  C   UNL     1       5.110   6.231  15.960  0.00  0.00    +0.000 A 
ATOM     13  C   UNL     1       5.668   5.556  14.877  0.00  0.00    +0.000 A 
ATOM     14  C   UNL     1       5.740   4.170  14.900  0.00  0.00    +0.000 A 
ATOM     15  C   UNL     1       5.293   3.471  16.021  0.00  0.00    +0.000 A 
ATOM     16  C   UNL     1       4.704   4.149  17.097  0.00  0.00    +0.000 A 
ENDBRANCH   6  11
ENDBRANCH   1   2
BRANCH   1  17
ATOM     17  C   UNL     1      -0.804  11.430  19.774  0.00  0.00    +0.000 A 
ATOM     18  C   UNL     1      -1.475  10.895  18.668  0.00  0.00    +0.000 A 
ATOM     19  C   UNL     1      -2.817  11.176  18.416  0.00  0.00    +0.000 A 
ATOM     20  C   UNL     1      -3.564  12.011  19.254  0.00  0.00    +0.000 A 
ATOM     21  C   UNL     1      -2.907  12.532  20.377  0.00  0.00    +0.000 A 
ATOM     22  C   UNL     1      -1.558  12.253  20.628  0.00  0.00    +0.000 A 
BRANCH  20  23
ATOM     23  C   UNL     1      -4.956  12.362  18.911  0.00  0.00    +0.000 A 
ATOM     24  C   UNL     1      -5.830  12.892  19.879  0.00  0.00    +0.000 A 
ATOM     25  C   UNL     1      -7.176  13.123  19.598  0.00  0.00    +0.000 A 
ATOM     26  C   UNL     1      -7.672  12.860  18.327  0.00  0.00    +0.000 A 
ATOM     27  C   UNL     1      -6.823  12.368  17.337  0.00  0.00    +0.000 A 
ATOM     28  C   UNL     1      -5.481  12.119  17.629  0.00  0.00    +0.000 A 
ENDBRANCH  20  23
ENDBRANCH   1  17
BRANCH   1  30
ATOM     29  C   UNL     1       0.706  13.352  18.449  0.00  0.00    +0.000 C 
ATOM     30  C   UNL     1       1.498  12.478  19.434  0.00  0.00    +0.000 C 
ATOM     31  C   UNL     1       2.083  13.372  20.531  0.00  0.00    +0.000 C 
ENDBRANCH   1  30
BRANCH   1  32
ATOM     32  O   UNL     1       0.955  11.150  21.383  0.00  0.00    +0.000 OA
ATOM     33  H   UNL     1       1.260  12.014  21.687  0.00  0.00    +0.000 HD
ENDBRANCH   1  32
TORSDOF 6
ENDMDL
