MODEL 1
REMARK VINA RESULT:      -7.7      0.000      0.000
REMARK  Name = 
REMARK  11 active torsions:
REMARK  status: ('A' for Active; 'I' for Inactive)
REMARK    1  A    between atoms: C_1  and  C_2
REMARK    2  A    between atoms: C_2  and  O_3
REMARK    3  A    between atoms: O_3  and  C_4
REMARK    4  A    between atoms: C_7  and  N_8
REMARK    5  A    between atoms: C_10  and  C_11
REMARK    6  A    between atoms: C_11  and  O_13
REMARK    7  A    between atoms: O_13  and  C_14
REMARK    8  A    between atoms: C_14  and  C_15
REMARK    9  A    between atoms: C_15  and  C_17
REMARK   10  A    between atoms: C_20  and  O_21
REMARK   11  A    between atoms: O_21  and  C_22
REMARK                            x       y       z     vdW  Elec       q    Type
REMARK                         _______ _______ _______ _____ _____    ______ ____
ROOT
ATOM      1  N   UNL     1       4.299   3.584  18.011  0.00  0.00    +0.000 N 
ATOM      2  C   UNL     1       3.214   3.376  17.071  0.00  0.00    +0.000 C 
ATOM      3  C   UNL     1       2.352   2.287  17.687  0.00  0.00    +0.000 C 
ATOM      4  C   UNL     1       3.282   1.539  18.618  0.00  0.00    +0.000 C 
ATOM      5  C   UNL     1       4.346   2.555  18.961  0.00  0.00    +0.000 C 
ATOM      6  O   UNL     1       5.116   2.396  19.898  0.00  0.00    +0.000 OA
ENDROOT
BRANCH   1  10
ATOM      7  C   UNL     1       7.170   6.734  17.602  0.00  0.00    +0.000 A 
ATOM      8  C   UNL     1       5.922   6.819  16.986  0.00  0.00    +0.000 A 
ATOM      9  C   UNL     1       4.970   5.794  17.123  0.00  0.00    +0.000 A 
ATOM     10  C   UNL     1       5.246   4.641  17.866  0.00  0.00    +0.000 A 
ATOM     11  C   UNL     1       6.515   4.557  18.463  0.00  0.00    +0.000 A 
ATOM     12  C   UNL     1       7.461   5.593  18.344  0.00  0.00    +0.000 A 
BRANCH   7  13
ATOM     13  O   UNL     1       8.015   7.778  17.340  0.00  0.00    +0.000 OA
BRANCH  13  15
ATOM     14  C   UNL     1       8.858   9.765  18.357  0.00  0.00    +0.000 C 
ATOM     15  C   UNL     1       7.642   9.103  17.737  0.00  0.00    +0.000 C 
ENDBRANCH  13  15
ENDBRANCH   7  13
ENDBRANCH   1  10
BRANCH   3  16
ATOM     16  C   UNL     1       1.146   2.862  18.396  0.00  0.00    +0.000 C 
ATOM     17  O   UNL     1       0.179   2.187  18.701  0.00  0.00    +0.000 OA
BRANCH  16  18
ATOM     18  O   UNL     1       1.232   4.211  18.531  0.00  0.00    +0.000 OA
BRANCH  18  19
ATOM     19  C   UNL     1       1.135   4.674  19.879  0.00  0.00    +0.000 C 
BRANCH  19  20
ATOM     20  C   UNL     1       2.241   5.677  20.215  0.00  0.00    +0.000 C 
ATOM     21  O   UNL     1       3.369   5.331  20.560  0.00  0.00    +0.000 OA
BRANCH  20  22
ATOM     22  C   UNL     1       1.953   7.132  20.054  0.00  0.00    +0.000 A 
ATOM     23  C   UNL     1       1.356   7.877  21.074  0.00  0.00    +0.000 A 
ATOM     24  C   UNL     1       0.915   9.173  20.827  0.00  0.00    +0.000 A 
ATOM     25  C   UNL     1       1.068   9.736  19.562  0.00  0.00    +0.000 A 
ATOM     26  C   UNL     1       1.789   9.050  18.587  0.00  0.00    +0.000 A 
ATOM     27  C   UNL     1       2.227   7.749  18.827  0.00  0.00    +0.000 A 
BRANCH  25  28
ATOM     28  O   UNL     1       0.467  10.887  19.139  0.00  0.00    +0.000 OA
ATOM     29  C   UNL     1       1.333  11.836  18.548  0.00  0.00    +0.000 C 
ENDBRANCH  25  28
ENDBRANCH  20  22
ENDBRANCH  19  20
ENDBRANCH  18  19
ENDBRANCH  16  18
ENDBRANCH   3  16
TORSDOF 9
ENDMDL
MODEL 2
REMARK VINA RESULT:      -7.2      1.729      5.841
REMARK  Name = 
REMARK  11 active torsions:
REMARK  status: ('A' for Active; 'I' for Inactive)
REMARK    1  A    between atoms: C_1  and  C_2
REMARK    2  A    between atoms: C_2  and  O_3
REMARK    3  A    between atoms: O_3  and  C_4
REMARK    4  A    between atoms: C_7  and  N_8
REMARK    5  A    between atoms: C_10  and  C_11
REMARK    6  A    between atoms: C_11  and  O_13
REMARK    7  A    between atoms: O_13  and  C_14
REMARK    8  A    between atoms: C_14  and  C_15
REMARK    9  A    between atoms: C_15  and  C_17
REMARK   10  A    between atoms: C_20  and  O_21
REMARK   11  A    between atoms: O_21  and  C_22
REMARK                            x       y       z     vdW  Elec       q    Type
REMARK                         _______ _______ _______ _____ _____    ______ ____
ROOT
ATOM      1  N   UNL     1       2.497   5.215  19.751  0.00  0.00    +0.000 N 
ATOM      2  C   UNL     1       3.828   4.687  19.526  0.00  0.00    +0.000 C 
ATOM      3  C   UNL     1       3.696   3.182  19.687  0.00  0.00    +0.000 C 
ATOM      4  C   UNL     1       2.470   2.993  20.553  0.00  0.00    +0.000 C 
ATOM      5  C   UNL     1       1.657   4.241  20.310  0.00  0.00    +0.000 C 
ATOM      6  O   UNL     1       0.480   4.322  20.631  0.00  0.00    +0.000 OA
ENDROOT
BRANCH   1  10
ATOM      7  C   UNL     1       1.528   9.330  19.073  0.00  0.00    +0.000 A 
ATOM      8  C   UNL     1       1.352   8.751  20.329  0.00  0.00    +0.000 A 
ATOM      9  C   UNL     1       1.676   7.404  20.562  0.00  0.00    +0.000 A 
ATOM     10  C   UNL     1       2.170   6.587  19.539  0.00  0.00    +0.000 A 
ATOM     11  C   UNL     1       2.323   7.176  18.272  0.00  0.00    +0.000 A 
ATOM     12  C   UNL     1       2.019   8.532  18.043  0.00  0.00    +0.000 A 
BRANCH   7  13
ATOM     13  O   UNL     1       1.123  10.633  18.975  0.00  0.00    +0.000 OA
BRANCH  13  15
ATOM     14  C   UNL     1      -0.430  12.373  18.471  0.00  0.00    +0.000 C 
ATOM     15  C   UNL     1      -0.277  10.934  18.925  0.00  0.00    +0.000 C 
ENDBRANCH  13  15
ENDBRANCH   7  13
ENDBRANCH   1  10
BRANCH   3  16
ATOM     16  C   UNL     1       3.586   2.484  18.350  0.00  0.00    +0.000 C 
ATOM     17  O   UNL     1       2.652   1.756  18.064  0.00  0.00    +0.000 OA
BRANCH  16  18
ATOM     18  O   UNL     1       4.693   2.674  17.586  0.00  0.00    +0.000 OA
BRANCH  18  19
ATOM     19  C   UNL     1       4.493   3.541  16.468  0.00  0.00    +0.000 C 
BRANCH  19  20
ATOM     20  C   UNL     1       5.799   4.201  16.021  0.00  0.00    +0.000 C 
ATOM     21  O   UNL     1       6.364   3.908  14.969  0.00  0.00    +0.000 OA
BRANCH  20  22
ATOM     22  C   UNL     1       6.372   5.288  16.865  0.00  0.00    +0.000 A 
ATOM     23  C   UNL     1       6.131   6.635  16.585  0.00  0.00    +0.000 A 
ATOM     24  C   UNL     1       6.837   7.627  17.260  0.00  0.00    +0.000 A 
ATOM     25  C   UNL     1       7.785   7.281  18.220  0.00  0.00    +0.000 A 
ATOM     26  C   UNL     1       7.924   5.949  18.601  0.00  0.00    +0.000 A 
ATOM     27  C   UNL     1       7.225   4.951  17.924  0.00  0.00    +0.000 A 
BRANCH  25  28
ATOM     28  O   UNL     1       8.698   8.140  18.763  0.00  0.00    +0.000 OA
ATOM     29  C   UNL     1       8.585   9.485  18.343  0.00  0.00    +0.000 C 
ENDBRANCH  25  28
ENDBRANCH  20  22
ENDBRANCH  19  20
ENDBRANCH  18  19
ENDBRANCH  16  18
ENDBRANCH   3  16
TORSDOF 9
ENDMDL
MODEL 3
REMARK VINA RESULT:      -7.1      2.133      5.791
REMARK  Name = 
REMARK  11 active torsions:
REMARK  status: ('A' for Active; 'I' for Inactive)
REMARK    1  A    between atoms: C_1  and  C_2
REMARK    2  A    between atoms: C_2  and  O_3
REMARK    3  A    between atoms: O_3  and  C_4
REMARK    4  A    between atoms: C_7  and  N_8
REMARK    5  A    between atoms: C_10  and  C_11
REMARK    6  A    between atoms: C_11  and  O_13
REMARK    7  A    between atoms: O_13  and  C_14
REMARK    8  A    between atoms: C_14  and  C_15
REMARK    9  A    between atoms: C_15  and  C_17
REMARK   10  A    between atoms: C_20  and  O_21
REMARK   11  A    between atoms: O_21  and  C_22
REMARK                            x       y       z     vdW  Elec       q    Type
REMARK                         _______ _______ _______ _____ _____    ______ ____
ROOT
ATOM      1  N   UNL     1       1.600   5.140  19.427  0.00  0.00    +0.000 N 
ATOM      2  C   UNL     1       1.617   4.657  20.794  0.00  0.00    +0.000 C 
ATOM      3  C   UNL     1       1.565   3.143  20.687  0.00  0.00    +0.000 C 
ATOM      4  C   UNL     1       0.939   2.873  19.336  0.00  0.00    +0.000 C 
ATOM      5  C   UNL     1       1.253   4.115  18.536  0.00  0.00    +0.000 C 
ATOM      6  O   UNL     1       1.140   4.148  17.319  0.00  0.00    +0.000 OA
ENDROOT
BRANCH   1  10
ATOM      7  C   UNL     1       2.152   9.277  18.471  0.00  0.00    +0.000 A 
ATOM      8  C   UNL     1       2.620   8.277  17.619  0.00  0.00    +0.000 A 
ATOM      9  C   UNL     1       2.434   6.917  17.921  0.00  0.00    +0.000 A 
ATOM     10  C   UNL     1       1.791   6.514  19.097  0.00  0.00    +0.000 A 
ATOM     11  C   UNL     1       1.344   7.531  19.957  0.00  0.00    +0.000 A 
ATOM     12  C   UNL     1       1.510   8.894  19.645  0.00  0.00    +0.000 A 
BRANCH   7  13
ATOM     13  O   UNL     1       2.448  10.554  18.080  0.00  0.00    +0.000 OA
BRANCH  13  15
ATOM     14  C   UNL     1       2.421  12.934  18.252  0.00  0.00    +0.000 C 
ATOM     15  C   UNL     1       1.707  11.650  18.630  0.00  0.00    +0.000 C 
ENDBRANCH  13  15
ENDBRANCH   7  13
ENDBRANCH   1  10
BRANCH   3  16
ATOM     16  C   UNL     1       2.937   2.524  20.835  0.00  0.00    +0.000 C 
ATOM     17  O   UNL     1       3.430   2.270  21.919  0.00  0.00    +0.000 OA
BRANCH  16  18
ATOM     18  O   UNL     1       3.573   2.409  19.639  0.00  0.00    +0.000 OA
BRANCH  18  19
ATOM     19  C   UNL     1       4.929   2.860  19.650  0.00  0.00    +0.000 C 
BRANCH  19  20
ATOM     20  C   UNL     1       5.053   4.299  19.144  0.00  0.00    +0.000 C 
ATOM     21  O   UNL     1       4.931   5.274  19.882  0.00  0.00    +0.000 OA
BRANCH  20  22
ATOM     22  C   UNL     1       5.400   4.520  17.711  0.00  0.00    +0.000 A 
ATOM     23  C   UNL     1       4.608   4.010  16.679  0.00  0.00    +0.000 A 
ATOM     24  C   UNL     1       5.060   4.054  15.363  0.00  0.00    +0.000 A 
ATOM     25  C   UNL     1       6.303   4.610  15.068  0.00  0.00    +0.000 A 
ATOM     26  C   UNL     1       7.027   5.247  16.073  0.00  0.00    +0.000 A 
ATOM     27  C   UNL     1       6.583   5.199  17.393  0.00  0.00    +0.000 A 
BRANCH  25  28
ATOM     28  O   UNL     1       6.949   4.493  13.870  0.00  0.00    +0.000 OA
ATOM     29  C   UNL     1       6.279   3.714  12.899  0.00  0.00    +0.000 C 
ENDBRANCH  25  28
ENDBRANCH  20  22
ENDBRANCH  19  20
ENDBRANCH  18  19
ENDBRANCH  16  18
ENDBRANCH   3  16
TORSDOF 9
ENDMDL
MODEL 4
REMARK VINA RESULT:      -7.1      1.564      1.942
REMARK  Name = 
REMARK  11 active torsions:
REMARK  status: ('A' for Active; 'I' for Inactive)
REMARK    1  A    between atoms: C_1  and  C_2
REMARK    2  A    between atoms: C_2  and  O_3
REMARK    3  A    between atoms: O_3  and  C_4
REMARK    4  A    between atoms: C_7  and  N_8
REMARK    5  A    between atoms: C_10  and  C_11
REMARK    6  A    between atoms: C_11  and  O_13
REMARK    7  A    between atoms: O_13  and  C_14
REMARK    8  A    between atoms: C_14  and  C_15
REMARK    9  A    between atoms: C_15  and  C_17
REMARK   10  A    between atoms: C_20  and  O_21
REMARK   11  A    between atoms: O_21  and  C_22
REMARK                            x       y       z     vdW  Elec       q    Type
REMARK                         _______ _______ _______ _____ _____    ______ ____
ROOT
ATOM      1  N   UNL     1       4.135   4.173  18.742  0.00  0.00    +0.000 N 
ATOM      2  C   UNL     1       2.787   4.337  18.232  0.00  0.00    +0.000 C 
ATOM      3  C   UNL     1       1.967   3.248  18.903  0.00  0.00    +0.000 C 
ATOM      4  C   UNL     1       2.976   2.186  19.283  0.00  0.00    +0.000 C 
ATOM      5  C   UNL     1       4.275   2.946  19.404  0.00  0.00    +0.000 C 
ATOM      6  O   UNL     1       5.256   2.469  19.957  0.00  0.00    +0.000 OA
ENDROOT
BRANCH   1  10
ATOM      7  C   UNL     1       7.290   6.955  17.946  0.00  0.00    +0.000 A 
ATOM      8  C   UNL     1       6.107   6.983  17.207  0.00  0.00    +0.000 A 
ATOM      9  C   UNL     1       5.064   6.080  17.468  0.00  0.00    +0.000 A 
ATOM     10  C   UNL     1       5.178   5.106  18.466  0.00  0.00    +0.000 A 
ATOM     11  C   UNL     1       6.382   5.074  19.189  0.00  0.00    +0.000 A 
ATOM     12  C   UNL     1       7.420   5.993  18.943  0.00  0.00    +0.000 A 
BRANCH   7  13
ATOM     13  O   UNL     1       8.240   7.857  17.550  0.00  0.00    +0.000 OA
BRANCH  13  15
ATOM     14  C   UNL     1       8.960   9.768  18.784  0.00  0.00    +0.000 C 
ATOM     15  C   UNL     1       8.000   9.258  17.726  0.00  0.00    +0.000 C 
ENDBRANCH  13  15
ENDBRANCH   7  13
ENDBRANCH   1  10
BRANCH   3  16
ATOM     16  C   UNL     1       1.195   3.779  20.089  0.00  0.00    +0.000 C 
ATOM     17  O   UNL     1       0.834   3.068  21.010  0.00  0.00    +0.000 OA
BRANCH  16  18
ATOM     18  O   UNL     1       0.862   5.087  19.933  0.00  0.00    +0.000 OA
BRANCH  18  19
ATOM     19  C   UNL     1       1.522   5.973  20.839  0.00  0.00    +0.000 C 
BRANCH  19  20
ATOM     20  C   UNL     1       1.829   7.324  20.189  0.00  0.00    +0.000 C 
ATOM     21  O   UNL     1       2.568   7.438  19.213  0.00  0.00    +0.000 OA
BRANCH  20  22
ATOM     22  C   UNL     1       1.150   8.540  20.723  0.00  0.00    +0.000 A 
ATOM     23  C   UNL     1       0.746   8.625  22.058  0.00  0.00    +0.000 A 
ATOM     24  C   UNL     1      -0.062   9.678  22.478  0.00  0.00    +0.000 A 
ATOM     25  C   UNL     1      -0.468  10.654  21.571  0.00  0.00    +0.000 A 
ATOM     26  C   UNL     1       0.050  10.650  20.278  0.00  0.00    +0.000 A 
ATOM     27  C   UNL     1       0.853   9.594  19.850  0.00  0.00    +0.000 A 
BRANCH  25  28
ATOM     28  O   UNL     1      -1.441  11.583  21.805  0.00  0.00    +0.000 OA
ATOM     29  C   UNL     1      -1.872  11.679  23.148  0.00  0.00    +0.000 C 
ENDBRANCH  25  28
ENDBRANCH  20  22
ENDBRANCH  19  20
ENDBRANCH  18  19
ENDBRANCH  16  18
ENDBRANCH   3  16
TORSDOF 9
ENDMDL
MODEL 5
REMARK VINA RESULT:      -7.0      3.316      7.468
REMARK  Name = 
REMARK  11 active torsions:
REMARK  status: ('A' for Active; 'I' for Inactive)
REMARK    1  A    between atoms: C_1  and  C_2
REMARK    2  A    between atoms: C_2  and  O_3
REMARK    3  A    between atoms: O_3  and  C_4
REMARK    4  A    between atoms: C_7  and  N_8
REMARK    5  A    between atoms: C_10  and  C_11
REMARK    6  A    between atoms: C_11  and  O_13
REMARK    7  A    between atoms: O_13  and  C_14
REMARK    8  A    between atoms: C_14  and  C_15
REMARK    9  A    between atoms: C_15  and  C_17
REMARK   10  A    between atoms: C_20  and  O_21
REMARK   11  A    between atoms: O_21  and  C_22
REMARK                            x       y       z     vdW  Elec       q    Type
REMARK                         _______ _______ _______ _____ _____    ______ ____
ROOT
ATOM      1  N   UNL     1       2.907   5.922  19.427  0.00  0.00    +0.000 N 
ATOM      2  C   UNL     1       4.331   5.763  19.199  0.00  0.00    +0.000 C 
ATOM      3  C   UNL     1       4.555   4.265  19.088  0.00  0.00    +0.000 C 
ATOM      4  C   UNL     1       3.392   3.644  19.829  0.00  0.00    +0.000 C 
ATOM      5  C   UNL     1       2.311   4.696  19.754  0.00  0.00    +0.000 C 
ATOM      6  O   UNL     1       1.141   4.444  20.009  0.00  0.00    +0.000 OA
ENDROOT
BRANCH   1  10
ATOM      7  C   UNL     1       1.003   9.756  19.411  0.00  0.00    +0.000 A 
ATOM      8  C   UNL     1       1.042   8.981  20.569  0.00  0.00    +0.000 A 
ATOM      9  C   UNL     1       1.673   7.726  20.586  0.00  0.00    +0.000 A 
ATOM     10  C   UNL     1       2.270   7.197  19.436  0.00  0.00    +0.000 A 
ATOM     11  C   UNL     1       2.204   7.978  18.269  0.00  0.00    +0.000 A 
ATOM     12  C   UNL     1       1.591   9.245  18.258  0.00  0.00    +0.000 A 
BRANCH   7  13
ATOM     13  O   UNL     1       0.311  10.931  19.525  0.00  0.00    +0.000 OA
BRANCH  13  15
ATOM     14  C   UNL     1      -1.710  10.734  18.271  0.00  0.00    +0.000 C 
ATOM     15  C   UNL     1      -1.116  10.900  19.657  0.00  0.00    +0.000 C 
ENDBRANCH  13  15
ENDBRANCH   7  13
ENDBRANCH   1  10
BRANCH   3  16
ATOM     16  C   UNL     1       4.642   3.817  17.646  0.00  0.00    +0.000 C 
ATOM     17  O   UNL     1       3.666   3.466  17.007  0.00  0.00    +0.000 OA
BRANCH  16  18
ATOM     18  O   UNL     1       5.928   3.744  17.214  0.00  0.00    +0.000 OA
BRANCH  18  19
ATOM     19  C   UNL     1       6.525   5.011  16.931  0.00  0.00    +0.000 C 
BRANCH  19  20
ATOM     20  C   UNL     1       5.936   5.647  15.669  0.00  0.00    +0.000 C 
ATOM     21  O   UNL     1       5.351   6.728  15.683  0.00  0.00    +0.000 OA
BRANCH  20  22
ATOM     22  C   UNL     1       6.139   4.955  14.364  0.00  0.00    +0.000 A 
ATOM     23  C   UNL     1       5.199   4.053  13.860  0.00  0.00    +0.000 A 
ATOM     24  C   UNL     1       5.503   3.272  12.749  0.00  0.00    +0.000 A 
ATOM     25  C   UNL     1       6.747   3.389  12.132  0.00  0.00    +0.000 A 
ATOM     26  C   UNL     1       7.628   4.386  12.543  0.00  0.00    +0.000 A 
ATOM     27  C   UNL     1       7.331   5.165  13.659  0.00  0.00    +0.000 A 
BRANCH  25  28
ATOM     28  O   UNL     1       7.244   2.520  11.202  0.00  0.00    +0.000 OA
ATOM     29  C   UNL     1       6.539   1.301  11.080  0.00  0.00    +0.000 C 
ENDBRANCH  25  28
ENDBRANCH  20  22
ENDBRANCH  19  20
ENDBRANCH  18  19
ENDBRANCH  16  18
ENDBRANCH   3  16
TORSDOF 9
ENDMDL
MODEL 6
REMARK VINA RESULT:      -6.9      1.901      6.369
REMARK  Name = 
REMARK  11 active torsions:
REMARK  status: ('A' for Active; 'I' for Inactive)
REMARK    1  A    between atoms: C_1  and  C_2
REMARK    2  A    between atoms: C_2  and  O_3
REMARK    3  A    between atoms: O_3  and  C_4
REMARK    4  A    between atoms: C_7  and  N_8
REMARK    5  A    between atoms: C_10  and  C_11
REMARK    6  A    between atoms: C_11  and  O_13
REMARK    7  A    between atoms: O_13  and  C_14
REMARK    8  A    between atoms: C_14  and  C_15
REMARK    9  A    between atoms: C_15  and  C_17
REMARK   10  A    between atoms: C_20  and  O_21
REMARK   11  A    between atoms: O_21  and  C_22
REMARK                            x       y       z     vdW  Elec       q    Type
REMARK                         _______ _______ _______ _____ _____    ______ ____
ROOT
ATOM      1  N   UNL     1       2.474   6.575  19.313  0.00  0.00    +0.000 N 
ATOM      2  C   UNL     1       3.616   6.264  18.475  0.00  0.00    +0.000 C 
ATOM      3  C   UNL     1       3.749   4.751  18.522  0.00  0.00    +0.000 C 
ATOM      4  C   UNL     1       3.073   4.345  19.814  0.00  0.00    +0.000 C 
ATOM      5  C   UNL     1       2.095   5.464  20.080  0.00  0.00    +0.000 C 
ATOM      6  O   UNL     1       1.186   5.352  20.890  0.00  0.00    +0.000 OA
ENDROOT
BRANCH   1  10
ATOM      7  C   UNL     1       0.840  10.525  19.552  0.00  0.00    +0.000 A 
ATOM      8  C   UNL     1       0.840   9.682  20.663  0.00  0.00    +0.000 A 
ATOM      9  C   UNL     1       1.383   8.388  20.595  0.00  0.00    +0.000 A 
ATOM     10  C   UNL     1       1.926   7.888  19.406  0.00  0.00    +0.000 A 
ATOM     11  C   UNL     1       1.900   8.739  18.288  0.00  0.00    +0.000 A 
ATOM     12  C   UNL     1       1.376  10.044  18.361  0.00  0.00    +0.000 A 
BRANCH   7  13
ATOM     13  O   UNL     1       0.233  11.736  19.746  0.00  0.00    +0.000 OA
BRANCH  13  15
ATOM     14  C   UNL     1      -1.881  11.379  18.699  0.00  0.00    +0.000 C 
ATOM     15  C   UNL     1      -1.180  11.787  19.980  0.00  0.00    +0.000 C 
ENDBRANCH  13  15
ENDBRANCH   7  13
ENDBRANCH   1  10
BRANCH   3  16
ATOM     16  C   UNL     1       3.136   4.097  17.305  0.00  0.00    +0.000 C 
ATOM     17  O   UNL     1       1.968   3.753  17.262  0.00  0.00    +0.000 OA
BRANCH  16  18
ATOM     18  O   UNL     1       4.063   3.839  16.346  0.00  0.00    +0.000 OA
BRANCH  18  19
ATOM     19  C   UNL     1       5.358   3.512  16.854  0.00  0.00    +0.000 C 
BRANCH  19  20
ATOM     20  C   UNL     1       6.442   4.420  16.272  0.00  0.00    +0.000 C 
ATOM     21  O   UNL     1       6.915   4.254  15.150  0.00  0.00    +0.000 OA
BRANCH  20  22
ATOM     22  C   UNL     1       6.894   5.593  17.076  0.00  0.00    +0.000 A 
ATOM     23  C   UNL     1       6.731   6.902  16.615  0.00  0.00    +0.000 A 
ATOM     24  C   UNL     1       7.340   7.960  17.284  0.00  0.00    +0.000 A 
ATOM     25  C   UNL     1       8.112   7.719  18.418  0.00  0.00    +0.000 A 
ATOM     26  C   UNL     1       8.158   6.437  18.959  0.00  0.00    +0.000 A 
ATOM     27  C   UNL     1       7.556   5.373  18.290  0.00  0.00    +0.000 A 
BRANCH  25  28
ATOM     28  O   UNL     1       8.944   8.629  19.006  0.00  0.00    +0.000 OA
ATOM     29  C   UNL     1       8.763   9.968  18.588  0.00  0.00    +0.000 C 
ENDBRANCH  25  28
ENDBRANCH  20  22
ENDBRANCH  19  20
ENDBRANCH  18  19
ENDBRANCH  16  18
ENDBRANCH   3  16
TORSDOF 9
ENDMDL
MODEL 7
REMARK VINA RESULT:      -6.9      2.522      3.255
REMARK  Name = 
REMARK  11 active torsions:
REMARK  status: ('A' for Active; 'I' for Inactive)
REMARK    1  A    between atoms: C_1  and  C_2
REMARK    2  A    between atoms: C_2  and  O_3
REMARK    3  A    between atoms: O_3  and  C_4
REMARK    4  A    between atoms: C_7  and  N_8
REMARK    5  A    between atoms: C_10  and  C_11
REMARK    6  A    between atoms: C_11  and  O_13
REMARK    7  A    between atoms: O_13  and  C_14
REMARK    8  A    between atoms: C_14  and  C_15
REMARK    9  A    between atoms: C_15  and  C_17
REMARK   10  A    between atoms: C_20  and  O_21
REMARK   11  A    between atoms: O_21  and  C_22
REMARK                            x       y       z     vdW  Elec       q    Type
REMARK                         _______ _______ _______ _____ _____    ______ ____
ROOT
ATOM      1  N   UNL     1       3.556   3.694  18.302  0.00  0.00    +0.000 N 
ATOM      2  C   UNL     1       2.541   4.639  18.727  0.00  0.00    +0.000 C 
ATOM      3  C   UNL     1       1.713   3.900  19.765  0.00  0.00    +0.000 C 
ATOM      4  C   UNL     1       1.919   2.434  19.450  0.00  0.00    +0.000 C 
ATOM      5  C   UNL     1       3.253   2.398  18.744  0.00  0.00    +0.000 C 
ATOM      6  O   UNL     1       3.872   1.357  18.579  0.00  0.00    +0.000 OA
ENDROOT
BRANCH   1  10
ATOM      7  C   UNL     1       6.805   4.807  15.746  0.00  0.00    +0.000 A 
ATOM      8  C   UNL     1       5.644   4.238  15.223  0.00  0.00    +0.000 A 
ATOM      9  C   UNL     1       4.570   3.879  16.053  0.00  0.00    +0.000 A 
ATOM     10  C   UNL     1       4.631   4.060  17.440  0.00  0.00    +0.000 A 
ATOM     11  C   UNL     1       5.814   4.614  17.958  0.00  0.00    +0.000 A 
ATOM     12  C   UNL     1       6.882   4.994  17.123  0.00  0.00    +0.000 A 
BRANCH   7  13
ATOM     13  O   UNL     1       7.789   5.058  14.830  0.00  0.00    +0.000 OA
BRANCH  13  15
ATOM     14  C   UNL     1       8.486   5.816  12.677  0.00  0.00    +0.000 C 
ATOM     15  C   UNL     1       7.496   4.949  13.432  0.00  0.00    +0.000 C 
ENDBRANCH  13  15
ENDBRANCH   7  13
ENDBRANCH   1  10
BRANCH   3  16
ATOM     16  C   UNL     1       2.126   4.264  21.174  0.00  0.00    +0.000 C 
ATOM     17  O   UNL     1       2.245   3.435  22.059  0.00  0.00    +0.000 OA
BRANCH  16  18
ATOM     18  O   UNL     1       2.223   5.609  21.342  0.00  0.00    +0.000 OA
BRANCH  18  19
ATOM     19  C   UNL     1       1.070   6.338  20.915  0.00  0.00    +0.000 C 
BRANCH  19  20
ATOM     20  C   UNL     1       1.424   7.770  20.509  0.00  0.00    +0.000 C 
ATOM     21  O   UNL     1       2.152   8.028  19.553  0.00  0.00    +0.000 OA
BRANCH  20  22
ATOM     22  C   UNL     1       0.805   8.897  21.265  0.00  0.00    +0.000 A 
ATOM     23  C   UNL     1       0.523   8.794  22.630  0.00  0.00    +0.000 A 
ATOM     24  C   UNL     1      -0.236   9.774  23.263  0.00  0.00    +0.000 A 
ATOM     25  C   UNL     1      -0.715  10.864  22.540  0.00  0.00    +0.000 A 
ATOM     26  C   UNL     1      -0.317  11.041  21.217  0.00  0.00    +0.000 A 
ATOM     27  C   UNL     1       0.437  10.059  20.576  0.00  0.00    +0.000 A 
BRANCH  25  28
ATOM     28  O   UNL     1      -1.657  11.747  22.986  0.00  0.00    +0.000 OA
ATOM     29  C   UNL     1      -1.330  13.112  22.819  0.00  0.00    +0.000 C 
ENDBRANCH  25  28
ENDBRANCH  20  22
ENDBRANCH  19  20
ENDBRANCH  18  19
ENDBRANCH  16  18
ENDBRANCH   3  16
TORSDOF 9
ENDMDL
MODEL 8
REMARK VINA RESULT:      -6.9      2.308      6.234
REMARK  Name = 
REMARK  11 active torsions:
REMARK  status: ('A' for Active; 'I' for Inactive)
REMARK    1  A    between atoms: C_1  and  C_2
REMARK    2  A    between atoms: C_2  and  O_3
REMARK    3  A    between atoms: O_3  and  C_4
REMARK    4  A    between atoms: C_7  and  N_8
REMARK    5  A    between atoms: C_10  and  C_11
REMARK    6  A    between atoms: C_11  and  O_13
REMARK    7  A    between atoms: O_13  and  C_14
REMARK    8  A    between atoms: C_14  and  C_15
REMARK    9  A    between atoms: C_15  and  C_17
REMARK   10  A    between atoms: C_20  and  O_21
REMARK   11  A    between atoms: O_21  and  C_22
REMARK                            x       y       z     vdW  Elec       q    Type
REMARK                         _______ _______ _______ _____ _____    ______ ____
ROOT
ATOM      1  N   UNL     1       2.184   4.948  19.487  0.00  0.00    +0.000 N 
ATOM      2  C   UNL     1       2.692   4.327  20.695  0.00  0.00    +0.000 C 
ATOM      3  C   UNL     1       2.915   2.868  20.335  0.00  0.00    +0.000 C 
ATOM      4  C   UNL     1       1.991   2.615  19.163  0.00  0.00    +0.000 C 
ATOM      5  C   UNL     1       1.805   3.981  18.545  0.00  0.00    +0.000 C 
ATOM      6  O   UNL     1       1.341   4.128  17.424  0.00  0.00    +0.000 OA
ENDROOT
BRANCH   1  10
ATOM      7  C   UNL     1       1.596   9.178  19.178  0.00  0.00    +0.000 A 
ATOM      8  C   UNL     1       2.103   8.445  18.105  0.00  0.00    +0.000 A 
ATOM      9  C   UNL     1       2.291   7.056  18.196  0.00  0.00    +0.000 A 
ATOM     10  C   UNL     1       1.993   6.357  19.371  0.00  0.00    +0.000 A 
ATOM     11  C   UNL     1       1.503   7.109  20.452  0.00  0.00    +0.000 A 
ATOM     12  C   UNL     1       1.295   8.498  20.355  0.00  0.00    +0.000 A 
BRANCH   7  13
ATOM     13  O   UNL     1       1.515  10.527  18.969  0.00  0.00    +0.000 OA
BRANCH  13  15
ATOM     14  C   UNL     1       0.148  12.025  20.227  0.00  0.00    +0.000 C 
ATOM     15  C   UNL     1       0.233  11.168  18.979  0.00  0.00    +0.000 C 
ENDBRANCH  13  15
ENDBRANCH   7  13
ENDBRANCH   1  10
BRANCH   3  16
ATOM     16  C   UNL     1       4.365   2.586  20.014  0.00  0.00    +0.000 C 
ATOM     17  O   UNL     1       5.049   1.828  20.677  0.00  0.00    +0.000 OA
BRANCH  16  18
ATOM     18  O   UNL     1       4.819   3.362  18.995  0.00  0.00    +0.000 OA
BRANCH  18  19
ATOM     19  C   UNL     1       5.588   4.491  19.414  0.00  0.00    +0.000 C 
BRANCH  19  20
ATOM     20  C   UNL     1       6.669   4.852  18.393  0.00  0.00    +0.000 C 
ATOM     21  O   UNL     1       7.827   5.110  18.716  0.00  0.00    +0.000 OA
BRANCH  20  22
ATOM     22  C   UNL     1       6.316   4.825  16.945  0.00  0.00    +0.000 A 
ATOM     23  C   UNL     1       5.021   5.107  16.503  0.00  0.00    +0.000 A 
ATOM     24  C   UNL     1       4.669   4.878  15.176  0.00  0.00    +0.000 A 
ATOM     25  C   UNL     1       5.607   4.368  14.281  0.00  0.00    +0.000 A 
ATOM     26  C   UNL     1       6.933   4.222  14.683  0.00  0.00    +0.000 A 
ATOM     27  C   UNL     1       7.289   4.444  16.013  0.00  0.00    +0.000 A 
BRANCH  25  28
ATOM     28  O   UNL     1       5.320   3.880  13.038  0.00  0.00    +0.000 OA
ATOM     29  C   UNL     1       6.441   3.480  12.274  0.00  0.00    +0.000 C 
ENDBRANCH  25  28
ENDBRANCH  20  22
ENDBRANCH  19  20
ENDBRANCH  18  19
ENDBRANCH  16  18
ENDBRANCH   3  16
TORSDOF 9
ENDMDL
MODEL 9
REMARK VINA RESULT:      -6.8      1.773      5.679
REMARK  Name = 
REMARK  11 active torsions:
REMARK  status: ('A' for Active; 'I' for Inactive)
REMARK    1  A    between atoms: C_1  and  C_2
REMARK    2  A    between atoms: C_2  and  O_3
REMARK    3  A    between atoms: O_3  and  C_4
REMARK    4  A    between atoms: C_7  and  N_8
REMARK    5  A    between atoms: C_10  and  C_11
REMARK    6  A    between atoms: C_11  and  O_13
REMARK    7  A    between atoms: O_13  and  C_14
REMARK    8  A    between atoms: C_14  and  C_15
REMARK    9  A    between atoms: C_15  and  C_17
REMARK   10  A    between atoms: C_20  and  O_21
REMARK   11  A    between atoms: O_21  and  C_22
REMARK                            x       y       z     vdW  Elec       q    Type
REMARK                         _______ _______ _______ _____ _____    ______ ____
ROOT
ATOM      1  N   UNL     1       2.606   5.420  19.746  0.00  0.00    +0.000 N 
ATOM      2  C   UNL     1       3.972   4.956  19.598  0.00  0.00    +0.000 C 
ATOM      3  C   UNL     1       3.914   3.455  19.827  0.00  0.00    +0.000 C 
ATOM      4  C   UNL     1       2.666   3.239  20.655  0.00  0.00    +0.000 C 
ATOM      5  C   UNL     1       1.798   4.429  20.320  0.00  0.00    +0.000 C 
ATOM      6  O   UNL     1       0.606   4.459  20.591  0.00  0.00    +0.000 OA
ENDROOT
BRANCH   1  10
ATOM      7  C   UNL     1       1.424   9.449  18.911  0.00  0.00    +0.000 A 
ATOM      8  C   UNL     1       1.920   8.625  17.901  0.00  0.00    +0.000 A 
ATOM      9  C   UNL     1       2.301   7.298  18.165  0.00  0.00    +0.000 A 
ATOM     10  C   UNL     1       2.216   6.760  19.454  0.00  0.00    +0.000 A 
ATOM     11  C   UNL     1       1.736   7.608  20.467  0.00  0.00    +0.000 A 
ATOM     12  C   UNL     1       1.333   8.930  20.199  0.00  0.00    +0.000 A 
BRANCH   7  13
ATOM     13  O   UNL     1       1.142  10.731  18.524  0.00  0.00    +0.000 OA
BRANCH  13  15
ATOM     14  C   UNL     1       0.984  13.038  19.112  0.00  0.00    +0.000 C 
ATOM     15  C   UNL     1       0.532  11.632  19.456  0.00  0.00    +0.000 C 
ENDBRANCH  13  15
ENDBRANCH   7  13
ENDBRANCH   1  10
BRANCH   3  16
ATOM     16  C   UNL     1       3.895   2.690  18.523  0.00  0.00    +0.000 C 
ATOM     17  O   UNL     1       3.856   1.473  18.475  0.00  0.00    +0.000 OA
BRANCH  16  18
ATOM     18  O   UNL     1       4.049   3.511  17.451  0.00  0.00    +0.000 OA
BRANCH  18  19
ATOM     19  C   UNL     1       4.711   2.906  16.339  0.00  0.00    +0.000 C 
BRANCH  19  20
ATOM     20  C   UNL     1       5.770   3.832  15.736  0.00  0.00    +0.000 C 
ATOM     21  O   UNL     1       6.348   3.580  14.681  0.00  0.00    +0.000 OA
BRANCH  20  22
ATOM     22  C   UNL     1       6.061   5.122  16.426  0.00  0.00    +0.000 A 
ATOM     23  C   UNL     1       5.252   6.247  16.244  0.00  0.00    +0.000 A 
ATOM     24  C   UNL     1       5.657   7.485  16.733  0.00  0.00    +0.000 A 
ATOM     25  C   UNL     1       6.870   7.609  17.408  0.00  0.00    +0.000 A 
ATOM     26  C   UNL     1       7.607   6.467  17.714  0.00  0.00    +0.000 A 
ATOM     27  C   UNL     1       7.209   5.225  17.221  0.00  0.00    +0.000 A 
BRANCH  25  28
ATOM     28  O   UNL     1       7.479   8.793  17.713  0.00  0.00    +0.000 OA
ATOM     29  C   UNL     1       8.634   8.684  18.522  0.00  0.00    +0.000 C 
ENDBRANCH  25  28
ENDBRANCH  20  22
ENDBRANCH  19  20
ENDBRANCH  18  19
ENDBRANCH  16  18
ENDBRANCH   3  16
TORSDOF 9
ENDMDL
