MODEL 1
REMARK VINA RESULT:      -7.3      0.000      0.000
REMARK  Name = 
REMARK  9 active torsions:
REMARK  status: ('A' for Active; 'I' for Inactive)
REMARK    1  A    between atoms: C_1  and  N_2
REMARK    2  A    between atoms: N_2  and  C_3
REMARK    3  A    between atoms: N_2  and  C_4
REMARK    4  A    between atoms: C_4  and  C_5
REMARK    5  A    between atoms: C_7  and  O_8
REMARK    6  A    between atoms: O_8  and  C_9
REMARK    7  A    between atoms: C_14  and  O_15
REMARK    8  A    between atoms: C_16  and  O_17
REMARK    9  A    between atoms: O_17  and  C_18
REMARK                            x       y       z     vdW  Elec       q    Type
REMARK                         _______ _______ _______ _____ _____    ______ ____
ROOT
ATOM      1  C   UNL     1       2.823   6.937  18.256  0.00  0.00    +0.000 A 
ATOM      2  C   UNL     1       4.038   7.057  17.561  0.00  0.00    +0.000 A 
ATOM      3  C   UNL     1       4.596   5.955  16.926  0.00  0.00    +0.000 A 
ATOM      4  C   UNL     1       3.924   4.720  16.992  0.00  0.00    +0.000 A 
ATOM      5  C   UNL     1       2.716   4.574  17.690  0.00  0.00    +0.000 A 
ATOM      6  C   UNL     1       2.187   5.692  18.336  0.00  0.00    +0.000 A 
ENDROOT
BRANCH   4   7
ATOM      7  O   UNL     1       4.465   3.641  16.335  0.00  0.00    +0.000 OA
ATOM      8  H   UNL     1       5.403   3.876  16.193  0.00  0.00    +0.000 HD
ENDBRANCH   4   7
BRANCH   1   9
ATOM      9  C   UNL     1       2.172   8.171  18.843  0.00  0.00    +0.000 C 
BRANCH   9  11
ATOM     10  C   UNL     1       0.245   9.281  17.855  0.00  0.00    +0.000 C 
ATOM     11  N   UNL     1       1.699   9.099  17.802  0.00  0.00    +0.000 NA
ATOM     12  C   UNL     1       2.372  10.387  17.940  0.00  0.00    +0.000 C 
ENDBRANCH   9  11
ENDBRANCH   1   9
BRANCH   3  13
ATOM     13  O   UNL     1       5.756   5.986  16.182  0.00  0.00    +0.000 OA
BRANCH  13  14
ATOM     14  C   UNL     1       6.992   5.984  16.903  0.00  0.00    +0.000 C 
ATOM     15  C   UNL     1       7.348   7.383  17.397  0.00  0.00    +0.000 C 
ATOM     16  C   UNL     1       8.196   7.157  18.635  0.00  0.00    +0.000 C 
ATOM     17  C   UNL     1       7.714   5.844  19.237  0.00  0.00    +0.000 C 
ATOM     18  C   UNL     1       6.831   5.172  18.189  0.00  0.00    +0.000 C 
ENDBRANCH  13  14
ENDBRANCH   3  13
BRANCH   5  19
ATOM     19  O   UNL     1       2.133   3.333  17.715  0.00  0.00    +0.000 OA
BRANCH  19  20
ATOM     20  C   UNL     1       2.131   2.617  18.952  0.00  0.00    +0.000 C 
ATOM     21  C   UNL     1       3.280   3.031  19.865  0.00  0.00    +0.000 C 
ATOM     22  C   UNL     1       2.787   2.758  21.272  0.00  0.00    +0.000 C 
ATOM     23  C   UNL     1       1.271   2.900  21.222  0.00  0.00    +0.000 C 
ATOM     24  C   UNL     1       0.884   2.999  19.749  0.00  0.00    +0.000 C 
ENDBRANCH  19  20
ENDBRANCH   5  19
TORSDOF 7
ENDMDL
MODEL 2
REMARK VINA RESULT:      -7.2      0.432      4.854
REMARK  Name = 
REMARK  9 active torsions:
REMARK  status: ('A' for Active; 'I' for Inactive)
REMARK    1  A    between atoms: C_1  and  N_2
REMARK    2  A    between atoms: N_2  and  C_3
REMARK    3  A    between atoms: N_2  and  C_4
REMARK    4  A    between atoms: C_4  and  C_5
REMARK    5  A    between atoms: C_7  and  O_8
REMARK    6  A    between atoms: O_8  and  C_9
REMARK    7  A    between atoms: C_14  and  O_15
REMARK    8  A    between atoms: C_16  and  O_17
REMARK    9  A    between atoms: O_17  and  C_18
REMARK                            x       y       z     vdW  Elec       q    Type
REMARK                         _______ _______ _______ _____ _____    ______ ____
ROOT
ATOM      1  C   UNL     1       2.843   6.789  18.421  0.00  0.00    +0.000 A 
ATOM      2  C   UNL     1       2.175   5.554  18.444  0.00  0.00    +0.000 A 
ATOM      3  C   UNL     1       2.683   4.467  17.744  0.00  0.00    +0.000 A 
ATOM      4  C   UNL     1       3.874   4.627  17.012  0.00  0.00    +0.000 A 
ATOM      5  C   UNL     1       4.552   5.854  16.965  0.00  0.00    +0.000 A 
ATOM      6  C   UNL     1       4.011   6.935  17.661  0.00  0.00    +0.000 A 
ENDROOT
BRANCH   4   7
ATOM      7  O   UNL     1       4.388   3.539  16.347  0.00  0.00    +0.000 OA
ATOM      8  H   UNL     1       5.148   3.248  16.888  0.00  0.00    +0.000 HD
ENDBRANCH   4   7
BRANCH   1   9
ATOM      9  C   UNL     1       2.340   7.928  19.282  0.00  0.00    +0.000 C 
BRANCH   9  11
ATOM     10  C   UNL     1       0.460   9.464  19.456  0.00  0.00    +0.000 C 
ATOM     11  N   UNL     1       1.410   8.806  18.553  0.00  0.00    +0.000 NA
ATOM     12  C   UNL     1       2.160   9.807  17.797  0.00  0.00    +0.000 C 
ENDBRANCH   9  11
ENDBRANCH   1   9
BRANCH   3  13
ATOM     13  O   UNL     1       2.126   3.206  17.746  0.00  0.00    +0.000 OA
BRANCH  13  14
ATOM     14  C   UNL     1       2.103   2.507  18.994  0.00  0.00    +0.000 C 
ATOM     15  C   UNL     1       3.276   2.915  19.880  0.00  0.00    +0.000 C 
ATOM     16  C   UNL     1       2.793   2.689  21.300  0.00  0.00    +0.000 C 
ATOM     17  C   UNL     1       1.286   2.904  21.267  0.00  0.00    +0.000 C 
ATOM     18  C   UNL     1       0.874   2.934  19.797  0.00  0.00    +0.000 C 
ENDBRANCH  13  14
ENDBRANCH   3  13
BRANCH   5  19
ATOM     19  O   UNL     1       5.700   5.927  16.218  0.00  0.00    +0.000 OA
BRANCH  19  20
ATOM     20  C   UNL     1       6.950   5.968  16.909  0.00  0.00    +0.000 C 
ATOM     21  C   UNL     1       7.294   7.368  17.407  0.00  0.00    +0.000 C 
ATOM     22  C   UNL     1       8.181   7.152  18.617  0.00  0.00    +0.000 C 
ATOM     23  C   UNL     1       7.770   5.808  19.205  0.00  0.00    +0.000 C 
ATOM     24  C   UNL     1       6.838   5.147  18.193  0.00  0.00    +0.000 C 
ENDBRANCH  19  20
ENDBRANCH   5  19
TORSDOF 7
ENDMDL
MODEL 3
REMARK VINA RESULT:      -7.2      1.024      1.286
REMARK  Name = 
REMARK  9 active torsions:
REMARK  status: ('A' for Active; 'I' for Inactive)
REMARK    1  A    between atoms: C_1  and  N_2
REMARK    2  A    between atoms: N_2  and  C_3
REMARK    3  A    between atoms: N_2  and  C_4
REMARK    4  A    between atoms: C_4  and  C_5
REMARK    5  A    between atoms: C_7  and  O_8
REMARK    6  A    between atoms: O_8  and  C_9
REMARK    7  A    between atoms: C_14  and  O_15
REMARK    8  A    between atoms: C_16  and  O_17
REMARK    9  A    between atoms: O_17  and  C_18
REMARK                            x       y       z     vdW  Elec       q    Type
REMARK                         _______ _______ _______ _____ _____    ______ ____
ROOT
ATOM      1  C   UNL     1       2.905   6.453  17.947  0.00  0.00    +0.000 A 
ATOM      2  C   UNL     1       4.149   6.605  17.313  0.00  0.00    +0.000 A 
ATOM      3  C   UNL     1       4.829   5.496  16.826  0.00  0.00    +0.000 A 
ATOM      4  C   UNL     1       4.251   4.223  16.980  0.00  0.00    +0.000 A 
ATOM      5  C   UNL     1       3.015   4.046  17.620  0.00  0.00    +0.000 A 
ATOM      6  C   UNL     1       2.362   5.173  18.118  0.00  0.00    +0.000 A 
ENDROOT
BRANCH   4   7
ATOM      7  O   UNL     1       4.914   3.133  16.467  0.00  0.00    +0.000 OA
ATOM      8  H   UNL     1       5.144   2.588  17.244  0.00  0.00    +0.000 HD
ENDBRANCH   4   7
BRANCH   1   9
ATOM      9  C   UNL     1       2.125   7.680  18.369  0.00  0.00    +0.000 C 
BRANCH   9  11
ATOM     10  C   UNL     1       1.201   8.927  20.244  0.00  0.00    +0.000 C 
ATOM     11  N   UNL     1       2.119   7.860  19.830  0.00  0.00    +0.000 NA
ATOM     12  C   UNL     1       1.759   6.606  20.485  0.00  0.00    +0.000 C 
ENDBRANCH   9  11
ENDBRANCH   1   9
BRANCH   3  13
ATOM     13  O   UNL     1       6.028   5.551  16.148  0.00  0.00    +0.000 OA
BRANCH  13  14
ATOM     14  C   UNL     1       7.209   5.750  16.931  0.00  0.00    +0.000 C 
ATOM     15  C   UNL     1       7.355   7.209  17.354  0.00  0.00    +0.000 C 
ATOM     16  C   UNL     1       8.150   7.165  18.645  0.00  0.00    +0.000 C 
ATOM     17  C   UNL     1       7.803   5.836  19.304  0.00  0.00    +0.000 C 
ATOM     18  C   UNL     1       7.077   4.997  18.256  0.00  0.00    +0.000 C 
ENDBRANCH  13  14
ENDBRANCH   3  13
BRANCH   5  19
ATOM     19  O   UNL     1       2.529   2.769  17.739  0.00  0.00    +0.000 OA
BRANCH  19  20
ATOM     20  C   UNL     1       2.347   2.239  19.053  0.00  0.00    +0.000 C 
ATOM     21  C   UNL     1       3.383   2.766  20.041  0.00  0.00    +0.000 C 
ATOM     22  C   UNL     1       2.706   2.706  21.396  0.00  0.00    +0.000 C 
ATOM     23  C   UNL     1       1.214   2.858  21.129  0.00  0.00    +0.000 C 
ATOM     24  C   UNL     1       1.021   2.748  19.619  0.00  0.00    +0.000 C 
ENDBRANCH  19  20
ENDBRANCH   5  19
TORSDOF 7
ENDMDL
MODEL 4
REMARK VINA RESULT:      -7.2      0.829      1.204
REMARK  Name = 
REMARK  9 active torsions:
REMARK  status: ('A' for Active; 'I' for Inactive)
REMARK    1  A    between atoms: C_1  and  N_2
REMARK    2  A    between atoms: N_2  and  C_3
REMARK    3  A    between atoms: N_2  and  C_4
REMARK    4  A    between atoms: C_4  and  C_5
REMARK    5  A    between atoms: C_7  and  O_8
REMARK    6  A    between atoms: O_8  and  C_9
REMARK    7  A    between atoms: C_14  and  O_15
REMARK    8  A    between atoms: C_16  and  O_17
REMARK    9  A    between atoms: O_17  and  C_18
REMARK                            x       y       z     vdW  Elec       q    Type
REMARK                         _______ _______ _______ _____ _____    ______ ____
ROOT
ATOM      1  C   UNL     1       3.011   7.526  17.840  0.00  0.00    +0.000 A 
ATOM      2  C   UNL     1       4.224   7.308  17.168  0.00  0.00    +0.000 A 
ATOM      3  C   UNL     1       4.638   6.017  16.867  0.00  0.00    +0.000 A 
ATOM      4  C   UNL     1       3.823   4.935  17.249  0.00  0.00    +0.000 A 
ATOM      5  C   UNL     1       2.613   5.129  17.931  0.00  0.00    +0.000 A 
ATOM      6  C   UNL     1       2.229   6.434  18.239  0.00  0.00    +0.000 A 
ENDROOT
BRANCH   4   7
ATOM      7  O   UNL     1       4.223   3.662  16.921  0.00  0.00    +0.000 OA
ATOM      8  H   UNL     1       4.943   3.782  16.272  0.00  0.00    +0.000 HD
ENDBRANCH   4   7
BRANCH   1   9
ATOM      9  C   UNL     1       2.519   8.942  18.057  0.00  0.00    +0.000 C 
BRANCH   9  11
ATOM     10  C   UNL     1       1.264   9.335  20.105  0.00  0.00    +0.000 C 
ATOM     11  N   UNL     1       1.188   8.978  18.684  0.00  0.00    +0.000 NA
ATOM     12  C   UNL     1       0.328   9.921  17.975  0.00  0.00    +0.000 C 
ENDBRANCH   9  11
ENDBRANCH   1   9
BRANCH   3  13
ATOM     13  O   UNL     1       5.786   5.707  16.170  0.00  0.00    +0.000 OA
BRANCH  13  14
ATOM     14  C   UNL     1       7.029   5.858  16.862  0.00  0.00    +0.000 C 
ATOM     15  C   UNL     1       7.229   7.295  17.334  0.00  0.00    +0.000 C 
ATOM     16  C   UNL     1       8.125   7.186  18.554  0.00  0.00    +0.000 C 
ATOM     17  C   UNL     1       7.813   5.833  19.180  0.00  0.00    +0.000 C 
ATOM     18  C   UNL     1       6.993   5.049  18.159  0.00  0.00    +0.000 C 
ENDBRANCH  13  14
ENDBRANCH   3  13
BRANCH   5  19
ATOM     19  O   UNL     1       1.884   4.019  18.278  0.00  0.00    +0.000 OA
BRANCH  19  20
ATOM     20  C   UNL     1       1.407   3.921  19.621  0.00  0.00    +0.000 C 
ATOM     21  C   UNL     1       1.128   2.480  20.035  0.00  0.00    +0.000 C 
ATOM     22  C   UNL     1       1.310   2.457  21.540  0.00  0.00    +0.000 C 
ATOM     23  C   UNL     1       2.319   3.554  21.858  0.00  0.00    +0.000 C 
ATOM     24  C   UNL     1       2.514   4.362  20.578  0.00  0.00    +0.000 C 
ENDBRANCH  19  20
ENDBRANCH   5  19
TORSDOF 7
ENDMDL
MODEL 5
REMARK VINA RESULT:      -7.2      2.194      3.160
REMARK  Name = 
REMARK  9 active torsions:
REMARK  status: ('A' for Active; 'I' for Inactive)
REMARK    1  A    between atoms: C_1  and  N_2
REMARK    2  A    between atoms: N_2  and  C_3
REMARK    3  A    between atoms: N_2  and  C_4
REMARK    4  A    between atoms: C_4  and  C_5
REMARK    5  A    between atoms: C_7  and  O_8
REMARK    6  A    between atoms: O_8  and  C_9
REMARK    7  A    between atoms: C_14  and  O_15
REMARK    8  A    between atoms: C_16  and  O_17
REMARK    9  A    between atoms: O_17  and  C_18
REMARK                            x       y       z     vdW  Elec       q    Type
REMARK                         _______ _______ _______ _____ _____    ______ ____
ROOT
ATOM      1  C   UNL     1       3.726   6.518  17.713  0.00  0.00    +0.000 A 
ATOM      2  C   UNL     1       4.720   6.651  16.731  0.00  0.00    +0.000 A 
ATOM      3  C   UNL     1       5.836   5.824  16.742  0.00  0.00    +0.000 A 
ATOM      4  C   UNL     1       5.952   4.855  17.755  0.00  0.00    +0.000 A 
ATOM      5  C   UNL     1       4.977   4.710  18.754  0.00  0.00    +0.000 A 
ATOM      6  C   UNL     1       3.876   5.567  18.730  0.00  0.00    +0.000 A 
ENDROOT
BRANCH   4   7
ATOM      7  O   UNL     1       7.042   4.018  17.743  0.00  0.00    +0.000 OA
ATOM      8  H   UNL     1       7.814   4.610  17.650  0.00  0.00    +0.000 HD
ENDBRANCH   4   7
BRANCH   1   9
ATOM      9  C   UNL     1       2.463   7.348  17.618  0.00  0.00    +0.000 C 
BRANCH   9  11
ATOM     10  C   UNL     1       1.934   9.705  17.911  0.00  0.00    +0.000 C 
ATOM     11  N   UNL     1       2.484   8.498  18.536  0.00  0.00    +0.000 NA
ATOM     12  C   UNL     1       1.740   8.179  19.751  0.00  0.00    +0.000 C 
ENDBRANCH   9  11
ENDBRANCH   1   9
BRANCH   3  13
ATOM     13  O   UNL     1       6.837   5.849  15.795  0.00  0.00    +0.000 OA
BRANCH  13  14
ATOM     14  C   UNL     1       6.918   4.731  14.905  0.00  0.00    +0.000 C 
ATOM     15  C   UNL     1       5.537   4.314  14.411  0.00  0.00    +0.000 C 
ATOM     16  C   UNL     1       5.782   3.671  13.059  0.00  0.00    +0.000 C 
ATOM     17  C   UNL     1       7.017   4.356  12.489  0.00  0.00    +0.000 C 
ATOM     18  C   UNL     1       7.653   5.145  13.630  0.00  0.00    +0.000 C 
ENDBRANCH  13  14
ENDBRANCH   3  13
BRANCH   5  19
ATOM     19  O   UNL     1       5.173   3.748  19.711  0.00  0.00    +0.000 OA
BRANCH  19  20
ATOM     20  C   UNL     1       4.191   2.718  19.839  0.00  0.00    +0.000 C 
ATOM     21  C   UNL     1       2.946   3.191  20.584  0.00  0.00    +0.000 C 
ATOM     22  C   UNL     1       1.818   2.322  20.064  0.00  0.00    +0.000 C 
ATOM     23  C   UNL     1       2.210   1.928  18.645  0.00  0.00    +0.000 C 
ATOM     24  C   UNL     1       3.663   2.355  18.452  0.00  0.00    +0.000 C 
ENDBRANCH  19  20
ENDBRANCH   5  19
TORSDOF 7
ENDMDL
MODEL 6
REMARK VINA RESULT:      -7.2      0.808      4.998
REMARK  Name = 
REMARK  9 active torsions:
REMARK  status: ('A' for Active; 'I' for Inactive)
REMARK    1  A    between atoms: C_1  and  N_2
REMARK    2  A    between atoms: N_2  and  C_3
REMARK    3  A    between atoms: N_2  and  C_4
REMARK    4  A    between atoms: C_4  and  C_5
REMARK    5  A    between atoms: C_7  and  O_8
REMARK    6  A    between atoms: O_8  and  C_9
REMARK    7  A    between atoms: C_14  and  O_15
REMARK    8  A    between atoms: C_16  and  O_17
REMARK    9  A    between atoms: O_17  and  C_18
REMARK                            x       y       z     vdW  Elec       q    Type
REMARK                         _______ _______ _______ _____ _____    ______ ____
ROOT
ATOM      1  C   UNL     1       3.025   7.394  17.696  0.00  0.00    +0.000 A 
ATOM      2  C   UNL     1       2.234   6.302  18.085  0.00  0.00    +0.000 A 
ATOM      3  C   UNL     1       2.658   5.002  17.840  0.00  0.00    +0.000 A 
ATOM      4  C   UNL     1       3.892   4.801  17.194  0.00  0.00    +0.000 A 
ATOM      5  C   UNL     1       4.695   5.877  16.785  0.00  0.00    +0.000 A 
ATOM      6  C   UNL     1       4.236   7.172  17.026  0.00  0.00    +0.000 A 
ENDROOT
BRANCH   4   7
ATOM      7  O   UNL     1       4.322   3.513  16.982  0.00  0.00    +0.000 OA
ATOM      8  H   UNL     1       3.509   3.002  16.798  0.00  0.00    +0.000 HD
ENDBRANCH   4   7
BRANCH   1   9
ATOM      9  C   UNL     1       2.603   8.797  18.074  0.00  0.00    +0.000 C 
BRANCH   9  11
ATOM     10  C   UNL     1       1.400   9.013  20.179  0.00  0.00    +0.000 C 
ATOM     11  N   UNL     1       1.285   8.823  18.729  0.00  0.00    +0.000 NA
ATOM     12  C   UNL     1       0.461   9.880  18.149  0.00  0.00    +0.000 C 
ENDBRANCH   9  11
ENDBRANCH   1   9
BRANCH   3  13
ATOM     13  O   UNL     1       1.974   3.869  18.227  0.00  0.00    +0.000 OA
BRANCH  13  14
ATOM     14  C   UNL     1       1.455   3.847  19.560  0.00  0.00    +0.000 C 
ATOM     15  C   UNL     1       1.149   2.422  20.012  0.00  0.00    +0.000 C 
ATOM     16  C   UNL     1       1.287   2.451  21.522  0.00  0.00    +0.000 C 
ATOM     17  C   UNL     1       2.324   3.525  21.825  0.00  0.00    +0.000 C 
ATOM     18  C   UNL     1       2.535   4.315  20.537  0.00  0.00    +0.000 C 
ENDBRANCH  13  14
ENDBRANCH   3  13
BRANCH   5  19
ATOM     19  O   UNL     1       5.877   5.594  16.151  0.00  0.00    +0.000 OA
BRANCH  19  20
ATOM     20  C   UNL     1       7.093   5.801  16.873  0.00  0.00    +0.000 C 
ATOM     21  C   UNL     1       7.274   7.254  17.301  0.00  0.00    +0.000 C 
ATOM     22  C   UNL     1       8.139   7.196  18.545  0.00  0.00    +0.000 C 
ATOM     23  C   UNL     1       7.849   5.850  19.197  0.00  0.00    +0.000 C 
ATOM     24  C   UNL     1       7.023   5.043  18.198  0.00  0.00    +0.000 C 
ENDBRANCH  19  20
ENDBRANCH   5  19
TORSDOF 7
ENDMDL
MODEL 7
REMARK VINA RESULT:      -7.1      1.117      5.024
REMARK  Name = 
REMARK  9 active torsions:
REMARK  status: ('A' for Active; 'I' for Inactive)
REMARK    1  A    between atoms: C_1  and  N_2
REMARK    2  A    between atoms: N_2  and  C_3
REMARK    3  A    between atoms: N_2  and  C_4
REMARK    4  A    between atoms: C_4  and  C_5
REMARK    5  A    between atoms: C_7  and  O_8
REMARK    6  A    between atoms: O_8  and  C_9
REMARK    7  A    between atoms: C_14  and  O_15
REMARK    8  A    between atoms: C_16  and  O_17
REMARK    9  A    between atoms: O_17  and  C_18
REMARK                            x       y       z     vdW  Elec       q    Type
REMARK                         _______ _______ _______ _____ _____    ______ ____
ROOT
ATOM      1  C   UNL     1       2.874   6.357  17.874  0.00  0.00    +0.000 A 
ATOM      2  C   UNL     1       2.326   5.072  18.009  0.00  0.00    +0.000 A 
ATOM      3  C   UNL     1       3.018   3.960  17.545  0.00  0.00    +0.000 A 
ATOM      4  C   UNL     1       4.272   4.147  16.935  0.00  0.00    +0.000 A 
ATOM      5  C   UNL     1       4.834   5.423  16.779  0.00  0.00    +0.000 A 
ATOM      6  C   UNL     1       4.110   6.524  17.236  0.00  0.00    +0.000 A 
ENDROOT
BRANCH   4   7
ATOM      7  O   UNL     1       4.966   3.041  16.506  0.00  0.00    +0.000 OA
ATOM      8  H   UNL     1       5.718   3.396  15.994  0.00  0.00    +0.000 HD
ENDBRANCH   4   7
BRANCH   1   9
ATOM      9  C   UNL     1       2.161   7.543  18.488  0.00  0.00    +0.000 C 
BRANCH   9  11
ATOM     10  C   UNL     1       1.442   8.616  20.551  0.00  0.00    +0.000 C 
ATOM     11  N   UNL     1       2.247   7.543  19.958  0.00  0.00    +0.000 NA
ATOM     12  C   UNL     1       1.822   6.248  20.482  0.00  0.00    +0.000 C 
ENDBRANCH   9  11
ENDBRANCH   1   9
BRANCH   3  13
ATOM     13  O   UNL     1       2.584   2.658  17.676  0.00  0.00    +0.000 OA
BRANCH  13  14
ATOM     14  C   UNL     1       2.450   2.148  19.006  0.00  0.00    +0.000 C 
ATOM     15  C   UNL     1       3.440   2.814  19.957  0.00  0.00    +0.000 C 
ATOM     16  C   UNL     1       2.781   2.740  21.322  0.00  0.00    +0.000 C 
ATOM     17  C   UNL     1       1.281   2.771  21.064  0.00  0.00    +0.000 C 
ATOM     18  C   UNL     1       1.083   2.540  19.568  0.00  0.00    +0.000 C 
ENDBRANCH  13  14
ENDBRANCH   3  13
BRANCH   5  19
ATOM     19  O   UNL     1       6.056   5.517  16.163  0.00  0.00    +0.000 OA
BRANCH  19  20
ATOM     20  C   UNL     1       7.208   5.719  16.984  0.00  0.00    +0.000 C 
ATOM     21  C   UNL     1       7.400   7.183  17.367  0.00  0.00    +0.000 C 
ATOM     22  C   UNL     1       8.146   7.153  18.687  0.00  0.00    +0.000 C 
ATOM     23  C   UNL     1       7.752   5.845  19.364  0.00  0.00    +0.000 C 
ATOM     24  C   UNL     1       6.993   5.021  18.327  0.00  0.00    +0.000 C 
ENDBRANCH  19  20
ENDBRANCH   5  19
TORSDOF 7
ENDMDL
MODEL 8
REMARK VINA RESULT:      -7.1      2.686      6.217
REMARK  Name = 
REMARK  9 active torsions:
REMARK  status: ('A' for Active; 'I' for Inactive)
REMARK    1  A    between atoms: C_1  and  N_2
REMARK    2  A    between atoms: N_2  and  C_3
REMARK    3  A    between atoms: N_2  and  C_4
REMARK    4  A    between atoms: C_4  and  C_5
REMARK    5  A    between atoms: C_7  and  O_8
REMARK    6  A    between atoms: O_8  and  C_9
REMARK    7  A    between atoms: C_14  and  O_15
REMARK    8  A    between atoms: C_16  and  O_17
REMARK    9  A    between atoms: O_17  and  C_18
REMARK                            x       y       z     vdW  Elec       q    Type
REMARK                         _______ _______ _______ _____ _____    ______ ____
ROOT
ATOM      1  C   UNL     1       3.826   3.892  17.841  0.00  0.00    +0.000 A 
ATOM      2  C   UNL     1       3.399   5.188  18.170  0.00  0.00    +0.000 A 
ATOM      3  C   UNL     1       4.041   6.297  17.634  0.00  0.00    +0.000 A 
ATOM      4  C   UNL     1       5.126   6.098  16.760  0.00  0.00    +0.000 A 
ATOM      5  C   UNL     1       5.577   4.812  16.426  0.00  0.00    +0.000 A 
ATOM      6  C   UNL     1       4.927   3.715  16.993  0.00  0.00    +0.000 A 
ENDROOT
BRANCH   4   7
ATOM      7  O   UNL     1       5.737   7.198  16.208  0.00  0.00    +0.000 OA
ATOM      8  H   UNL     1       6.592   6.869  15.870  0.00  0.00    +0.000 HD
ENDBRANCH   4   7
BRANCH   1   9
ATOM      9  C   UNL     1       3.043   2.697  18.341  0.00  0.00    +0.000 C 
BRANCH   9  11
ATOM     10  C   UNL     1       0.669   2.520  18.847  0.00  0.00    +0.000 C 
ATOM     11  N   UNL     1       1.958   3.086  19.257  0.00  0.00    +0.000 NA
ATOM     12  C   UNL     1       2.281   2.668  20.618  0.00  0.00    +0.000 C 
ENDBRANCH   9  11
ENDBRANCH   1   9
BRANCH   3  13
ATOM     13  O   UNL     1       3.664   7.604  17.859  0.00  0.00    +0.000 OA
BRANCH  13  14
ATOM     14  C   UNL     1       2.308   7.831  18.256  0.00  0.00    +0.000 C 
ATOM     15  C   UNL     1       2.178   7.893  19.775  0.00  0.00    +0.000 C 
ATOM     16  C   UNL     1       0.967   8.771  20.029  0.00  0.00    +0.000 C 
ATOM     17  C   UNL     1       0.904   9.743  18.858  0.00  0.00    +0.000 C 
ATOM     18  C   UNL     1       1.866   9.220  17.795  0.00  0.00    +0.000 C 
ENDBRANCH  13  14
ENDBRANCH   3  13
BRANCH   5  19
ATOM     19  O   UNL     1       6.649   4.706  15.576  0.00  0.00    +0.000 OA
BRANCH  19  20
ATOM     20  C   UNL     1       6.414   4.868  14.176  0.00  0.00    +0.000 C 
ATOM     21  C   UNL     1       7.705   5.075  13.391  0.00  0.00    +0.000 C 
ATOM     22  C   UNL     1       7.409   4.557  11.997  0.00  0.00    +0.000 C 
ATOM     23  C   UNL     1       6.344   3.480  12.166  0.00  0.00    +0.000 C 
ATOM     24  C   UNL     1       5.854   3.564  13.609  0.00  0.00    +0.000 C 
ENDBRANCH  19  20
ENDBRANCH   5  19
TORSDOF 7
ENDMDL
MODEL 9
REMARK VINA RESULT:      -7.0      2.834      5.423
REMARK  Name = 
REMARK  9 active torsions:
REMARK  status: ('A' for Active; 'I' for Inactive)
REMARK    1  A    between atoms: C_1  and  N_2
REMARK    2  A    between atoms: N_2  and  C_3
REMARK    3  A    between atoms: N_2  and  C_4
REMARK    4  A    between atoms: C_4  and  C_5
REMARK    5  A    between atoms: C_7  and  O_8
REMARK    6  A    between atoms: O_8  and  C_9
REMARK    7  A    between atoms: C_14  and  O_15
REMARK    8  A    between atoms: C_16  and  O_17
REMARK    9  A    between atoms: O_17  and  C_18
REMARK                            x       y       z     vdW  Elec       q    Type
REMARK                         _______ _______ _______ _____ _____    ______ ____
ROOT
ATOM      1  C   UNL     1       3.729   4.008  17.516  0.00  0.00    +0.000 A 
ATOM      2  C   UNL     1       4.731   3.897  16.540  0.00  0.00    +0.000 A 
ATOM      3  C   UNL     1       5.337   5.034  16.021  0.00  0.00    +0.000 A 
ATOM      4  C   UNL     1       4.928   6.296  16.490  0.00  0.00    +0.000 A 
ATOM      5  C   UNL     1       3.920   6.432  17.457  0.00  0.00    +0.000 A 
ATOM      6  C   UNL     1       3.314   5.275  17.947  0.00  0.00    +0.000 A 
ENDROOT
BRANCH   4   7
ATOM      7  O   UNL     1       5.553   7.416  15.996  0.00  0.00    +0.000 OA
ATOM      8  H   UNL     1       5.236   8.150  16.557  0.00  0.00    +0.000 HD
ENDBRANCH   4   7
BRANCH   1   9
ATOM      9  C   UNL     1       3.162   2.758  18.153  0.00  0.00    +0.000 C 
BRANCH   9  11
ATOM     10  C   UNL     1       1.872   2.307  20.168  0.00  0.00    +0.000 C 
ATOM     11  N   UNL     1       3.120   2.852  19.622  0.00  0.00    +0.000 NA
ATOM     12  C   UNL     1       4.267   2.155  20.199  0.00  0.00    +0.000 C 
ENDBRANCH   9  11
ENDBRANCH   1   9
BRANCH   3  13
ATOM     13  O   UNL     1       6.361   5.022  15.097  0.00  0.00    +0.000 OA
BRANCH  13  14
ATOM     14  C   UNL     1       6.369   3.951  14.149  0.00  0.00    +0.000 C 
ATOM     15  C   UNL     1       5.049   3.874  13.388  0.00  0.00    +0.000 C 
ATOM     16  C   UNL     1       5.402   3.246  12.053  0.00  0.00    +0.000 C 
ATOM     17  C   UNL     1       6.839   3.660  11.765  0.00  0.00    +0.000 C 
ATOM     18  C   UNL     1       7.402   4.241  13.059  0.00  0.00    +0.000 C 
ENDBRANCH  13  14
ENDBRANCH   3  13
BRANCH   5  19
ATOM     19  O   UNL     1       3.573   7.699  17.850  0.00  0.00    +0.000 OA
BRANCH  19  20
ATOM     20  C   UNL     1       2.228   7.925  18.278  0.00  0.00    +0.000 C 
ATOM     21  C   UNL     1       2.099   7.956  19.798  0.00  0.00    +0.000 C 
ATOM     22  C   UNL     1       0.894   8.833  20.076  0.00  0.00    +0.000 C 
ATOM     23  C   UNL     1       0.807   9.810  18.910  0.00  0.00    +0.000 C 
ATOM     24  C   UNL     1       1.796   9.328  17.853  0.00  0.00    +0.000 C 
ENDBRANCH  19  20
ENDBRANCH   5  19
TORSDOF 7
ENDMDL
