MODEL 1
REMARK VINA RESULT:      -8.5      0.000      0.000
REMARK  Name = 
REMARK  4 active torsions:
REMARK  status: ('A' for Active; 'I' for Inactive)
REMARK    1  A    between atoms: C_9  and  C_10
REMARK    2  A    between atoms: C_10  and  C_11
REMARK    3  A    between atoms: C_17  and  C_18
REMARK    4  A    between atoms: C_18  and  C_19
REMARK                            x       y       z     vdW  Elec       q    Type
REMARK                         _______ _______ _______ _____ _____    ______ ____
ROOT
ATOM      1  O   UNL     1       7.787   4.442  15.757  0.00  0.00    +0.000 OA
ATOM      2  C   UNL     1       6.832   4.911  16.363  0.00  0.00    +0.000 C 
ATOM      3  C   UNL     1       7.009   6.007  17.343  0.00  0.00    +0.000 C 
ATOM      4  C   UNL     1       5.946   6.550  17.953  0.00  0.00    +0.000 C 
ATOM      5  C   UNL     1       4.529   6.137  17.696  0.00  0.00    +0.000 C 
ATOM      6  C   UNL     1       4.415   4.971  16.766  0.00  0.00    +0.000 C 
ATOM      7  C   UNL     1       5.458   4.398  16.150  0.00  0.00    +0.000 C 
ATOM      8  O   UNL     1       3.865   7.253  17.116  0.00  0.00    +0.000 OA
ATOM      9  C   UNL     1       2.737   7.542  17.955  0.00  0.00    +0.000 C 
ATOM     10  C   UNL     1       3.128   6.930  19.304  0.00  0.00    +0.000 C 
ATOM     11  O   UNL     1       3.907   5.784  18.924  0.00  0.00    +0.000 OA
ENDROOT
BRANCH   9  12
ATOM     12  C   UNL     1       2.519   9.059  17.999  0.00  0.00    +0.000 C 
BRANCH  12  13
ATOM     13  C   UNL     1       1.134   9.488  18.449  0.00  0.00    +0.000 A 
ATOM     14  C   UNL     1       0.880   9.853  19.775  0.00  0.00    +0.000 A 
ATOM     15  C   UNL     1      -0.384  10.311  20.161  0.00  0.00    +0.000 A 
ATOM     16  C   UNL     1      -1.414  10.401  19.229  0.00  0.00    +0.000 A 
ATOM     17  C   UNL     1      -1.185  10.017  17.911  0.00  0.00    +0.000 A 
ATOM     18  C   UNL     1       0.078   9.559  17.522  0.00  0.00    +0.000 A 
ENDBRANCH  12  13
ENDBRANCH   9  12
BRANCH  10  19
ATOM     19  C   UNL     1       1.947   6.496  20.183  0.00  0.00    +0.000 C 
BRANCH  19  20
ATOM     20  C   UNL     1       1.782   4.987  20.262  0.00  0.00    +0.000 A 
ATOM     21  C   UNL     1       1.207   4.263  19.210  0.00  0.00    +0.000 A 
ATOM     22  C   UNL     1       1.041   2.876  19.308  0.00  0.00    +0.000 A 
ATOM     23  C   UNL     1       1.445   2.197  20.458  0.00  0.00    +0.000 A 
ATOM     24  C   UNL     1       2.022   2.905  21.509  0.00  0.00    +0.000 A 
ATOM     25  C   UNL     1       2.187   4.290  21.411  0.00  0.00    +0.000 A 
ENDBRANCH  19  20
ENDBRANCH  10  19
TORSDOF 4
ENDMDL
MODEL 2
REMARK VINA RESULT:      -8.2      1.837      6.610
REMARK  Name = 
REMARK  4 active torsions:
REMARK  status: ('A' for Active; 'I' for Inactive)
REMARK    1  A    between atoms: C_9  and  C_10
REMARK    2  A    between atoms: C_10  and  C_11
REMARK    3  A    between atoms: C_17  and  C_18
REMARK    4  A    between atoms: C_18  and  C_19
REMARK                            x       y       z     vdW  Elec       q    Type
REMARK                         _______ _______ _______ _____ _____    ______ ____
ROOT
ATOM      1  O   UNL     1       0.347  10.149  20.073  0.00  0.00    +0.000 OA
ATOM      2  C   UNL     1       1.025   9.232  19.629  0.00  0.00    +0.000 C 
ATOM      3  C   UNL     1       1.442   8.101  20.488  0.00  0.00    +0.000 C 
ATOM      4  C   UNL     1       2.132   7.074  19.972  0.00  0.00    +0.000 C 
ATOM      5  C   UNL     1       2.512   6.960  18.528  0.00  0.00    +0.000 C 
ATOM      6  C   UNL     1       2.143   8.167  17.724  0.00  0.00    +0.000 C 
ATOM      7  C   UNL     1       1.464   9.215  18.213  0.00  0.00    +0.000 C 
ATOM      8  O   UNL     1       1.826   5.832  18.000  0.00  0.00    +0.000 OA
ATOM      9  C   UNL     1       2.827   4.958  17.458  0.00  0.00    +0.000 C 
ATOM     10  C   UNL     1       4.099   5.362  18.209  0.00  0.00    +0.000 C 
ATOM     11  O   UNL     1       3.916   6.771  18.418  0.00  0.00    +0.000 OA
ENDROOT
BRANCH   9  12
ATOM     12  C   UNL     1       2.403   3.503  17.689  0.00  0.00    +0.000 C 
BRANCH  12  13
ATOM     13  C   UNL     1       2.268   3.106  19.148  0.00  0.00    +0.000 A 
ATOM     14  C   UNL     1       3.345   2.566  19.858  0.00  0.00    +0.000 A 
ATOM     15  C   UNL     1       3.226   2.268  21.220  0.00  0.00    +0.000 A 
ATOM     16  C   UNL     1       2.027   2.496  21.888  0.00  0.00    +0.000 A 
ATOM     17  C   UNL     1       0.937   3.009  21.189  0.00  0.00    +0.000 A 
ATOM     18  C   UNL     1       1.053   3.308  19.828  0.00  0.00    +0.000 A 
ENDBRANCH  12  13
ENDBRANCH   9  12
BRANCH  10  19
ATOM     19  C   UNL     1       5.407   5.109  17.447  0.00  0.00    +0.000 C 
BRANCH  19  20
ATOM     20  C   UNL     1       6.518   6.077  17.824  0.00  0.00    +0.000 A 
ATOM     21  C   UNL     1       7.374   5.816  18.900  0.00  0.00    +0.000 A 
ATOM     22  C   UNL     1       8.378   6.729  19.248  0.00  0.00    +0.000 A 
ATOM     23  C   UNL     1       8.536   7.912  18.526  0.00  0.00    +0.000 A 
ATOM     24  C   UNL     1       7.693   8.181  17.451  0.00  0.00    +0.000 A 
ATOM     25  C   UNL     1       6.690   7.270  17.104  0.00  0.00    +0.000 A 
ENDBRANCH  19  20
ENDBRANCH  10  19
TORSDOF 4
ENDMDL
MODEL 3
REMARK VINA RESULT:      -8.1      1.696      6.242
REMARK  Name = 
REMARK  4 active torsions:
REMARK  status: ('A' for Active; 'I' for Inactive)
REMARK    1  A    between atoms: C_9  and  C_10
REMARK    2  A    between atoms: C_10  and  C_11
REMARK    3  A    between atoms: C_17  and  C_18
REMARK    4  A    between atoms: C_18  and  C_19
REMARK                            x       y       z     vdW  Elec       q    Type
REMARK                         _______ _______ _______ _____ _____    ______ ____
ROOT
ATOM      1  O   UNL     1       1.125   1.985  22.303  0.00  0.00    +0.000 OA
ATOM      2  C   UNL     1       1.509   2.790  21.464  0.00  0.00    +0.000 C 
ATOM      3  C   UNL     1       2.845   3.422  21.563  0.00  0.00    +0.000 C 
ATOM      4  C   UNL     1       3.275   4.254  20.604  0.00  0.00    +0.000 C 
ATOM      5  C   UNL     1       2.491   4.593  19.373  0.00  0.00    +0.000 C 
ATOM      6  C   UNL     1       1.119   3.998  19.366  0.00  0.00    +0.000 C 
ATOM      7  C   UNL     1       0.654   3.173  20.316  0.00  0.00    +0.000 C 
ATOM      8  O   UNL     1       3.215   4.086  18.260  0.00  0.00    +0.000 OA
ATOM      9  C   UNL     1       3.457   5.198  17.385  0.00  0.00    +0.000 C 
ATOM     10  C   UNL     1       3.353   6.412  18.313  0.00  0.00    +0.000 C 
ATOM     11  O   UNL     1       2.359   6.004  19.267  0.00  0.00    +0.000 OA
ENDROOT
BRANCH   9  12
ATOM     12  C   UNL     1       4.833   5.032  16.730  0.00  0.00    +0.000 C 
BRANCH  12  13
ATOM     13  C   UNL     1       5.971   5.722  17.461  0.00  0.00    +0.000 A 
ATOM     14  C   UNL     1       6.551   5.160  18.603  0.00  0.00    +0.000 A 
ATOM     15  C   UNL     1       7.643   5.773  19.226  0.00  0.00    +0.000 A 
ATOM     16  C   UNL     1       8.163   6.962  18.723  0.00  0.00    +0.000 A 
ATOM     17  C   UNL     1       7.581   7.549  17.603  0.00  0.00    +0.000 A 
ATOM     18  C   UNL     1       6.490   6.938  16.978  0.00  0.00    +0.000 A 
ENDBRANCH  12  13
ENDBRANCH   9  12
BRANCH  10  19
ATOM     19  C   UNL     1       2.920   7.715  17.627  0.00  0.00    +0.000 C 
BRANCH  19  20
ATOM     20  C   UNL     1       1.907   8.510  18.435  0.00  0.00    +0.000 A 
ATOM     21  C   UNL     1       1.048   9.430  17.819  0.00  0.00    +0.000 A 
ATOM     22  C   UNL     1       0.136  10.171  18.581  0.00  0.00    +0.000 A 
ATOM     23  C   UNL     1       0.073  10.005  19.965  0.00  0.00    +0.000 A 
ATOM     24  C   UNL     1       0.919   9.090  20.587  0.00  0.00    +0.000 A 
ATOM     25  C   UNL     1       1.830   8.350  19.827  0.00  0.00    +0.000 A 
ENDBRANCH  19  20
ENDBRANCH  10  19
TORSDOF 4
ENDMDL
MODEL 4
REMARK VINA RESULT:      -8.0      2.577      6.989
REMARK  Name = 
REMARK  4 active torsions:
REMARK  status: ('A' for Active; 'I' for Inactive)
REMARK    1  A    between atoms: C_9  and  C_10
REMARK    2  A    between atoms: C_10  and  C_11
REMARK    3  A    between atoms: C_17  and  C_18
REMARK    4  A    between atoms: C_18  and  C_19
REMARK                            x       y       z     vdW  Elec       q    Type
REMARK                         _______ _______ _______ _____ _____    ______ ____
ROOT
ATOM      1  O   UNL     1      -0.780  10.903  23.314  0.00  0.00    +0.000 OA
ATOM      2  C   UNL     1      -0.200  10.105  22.590  0.00  0.00    +0.000 C 
ATOM      3  C   UNL     1       1.178   9.654  22.894  0.00  0.00    +0.000 C 
ATOM      4  C   UNL     1       1.776   8.734  22.126  0.00  0.00    +0.000 C 
ATOM      5  C   UNL     1       1.128   8.075  20.947  0.00  0.00    +0.000 C 
ATOM      6  C   UNL     1      -0.226   8.628  20.633  0.00  0.00    +0.000 C 
ATOM      7  C   UNL     1      -0.846   9.558  21.374  0.00  0.00    +0.000 C 
ATOM      8  O   UNL     1       0.998   6.693  21.255  0.00  0.00    +0.000 OA
ATOM      9  C   UNL     1       1.675   5.973  20.214  0.00  0.00    +0.000 C 
ATOM     10  C   UNL     1       2.659   7.003  19.649  0.00  0.00    +0.000 C 
ATOM     11  O   UNL     1       1.949   8.243  19.798  0.00  0.00    +0.000 OA
ENDROOT
BRANCH   9  12
ATOM     12  C   UNL     1       2.347   4.734  20.815  0.00  0.00    +0.000 C 
BRANCH  12  13
ATOM     13  C   UNL     1       2.658   3.634  19.816  0.00  0.00    +0.000 A 
ATOM     14  C   UNL     1       1.853   3.422  18.693  0.00  0.00    +0.000 A 
ATOM     15  C   UNL     1       2.189   2.449  17.745  0.00  0.00    +0.000 A 
ATOM     16  C   UNL     1       3.329   1.669  17.913  0.00  0.00    +0.000 A 
ATOM     17  C   UNL     1       4.127   1.850  19.039  0.00  0.00    +0.000 A 
ATOM     18  C   UNL     1       3.794   2.821  19.987  0.00  0.00    +0.000 A 
ENDBRANCH  12  13
ENDBRANCH   9  12
BRANCH  10  19
ATOM     19  C   UNL     1       3.042   6.790  18.178  0.00  0.00    +0.000 C 
BRANCH  19  20
ATOM     20  C   UNL     1       4.316   5.979  18.002  0.00  0.00    +0.000 A 
ATOM     21  C   UNL     1       4.513   5.173  16.874  0.00  0.00    +0.000 A 
ATOM     22  C   UNL     1       5.683   4.415  16.737  0.00  0.00    +0.000 A 
ATOM     23  C   UNL     1       6.667   4.452  17.725  0.00  0.00    +0.000 A 
ATOM     24  C   UNL     1       6.485   5.253  18.849  0.00  0.00    +0.000 A 
ATOM     25  C   UNL     1       5.316   6.010  18.986  0.00  0.00    +0.000 A 
ENDBRANCH  19  20
ENDBRANCH  10  19
TORSDOF 4
ENDMDL
MODEL 5
REMARK VINA RESULT:      -8.0      1.691      5.126
REMARK  Name = 
REMARK  4 active torsions:
REMARK  status: ('A' for Active; 'I' for Inactive)
REMARK    1  A    between atoms: C_9  and  C_10
REMARK    2  A    between atoms: C_10  and  C_11
REMARK    3  A    between atoms: C_17  and  C_18
REMARK    4  A    between atoms: C_18  and  C_19
REMARK                            x       y       z     vdW  Elec       q    Type
REMARK                         _______ _______ _______ _____ _____    ______ ____
ROOT
ATOM      1  O   UNL     1       0.837   2.178  22.277  0.00  0.00    +0.000 OA
ATOM      2  C   UNL     1       1.410   2.813  21.402  0.00  0.00    +0.000 C 
ATOM      3  C   UNL     1       0.750   3.106  20.109  0.00  0.00    +0.000 C 
ATOM      4  C   UNL     1       1.368   3.854  19.185  0.00  0.00    +0.000 C 
ATOM      5  C   UNL     1       2.722   4.466  19.369  0.00  0.00    +0.000 C 
ATOM      6  C   UNL     1       3.379   4.068  20.653  0.00  0.00    +0.000 C 
ATOM      7  C   UNL     1       2.793   3.312  21.592  0.00  0.00    +0.000 C 
ATOM      8  O   UNL     1       2.550   5.878  19.361  0.00  0.00    +0.000 OA
ATOM      9  C   UNL     1       3.394   6.389  18.318  0.00  0.00    +0.000 C 
ATOM     10  C   UNL     1       3.586   5.185  17.391  0.00  0.00    +0.000 C 
ATOM     11  O   UNL     1       3.572   4.073  18.300  0.00  0.00    +0.000 OA
ENDROOT
BRANCH   9  12
ATOM     12  C   UNL     1       2.702   7.584  17.653  0.00  0.00    +0.000 C 
BRANCH  12  13
ATOM     13  C   UNL     1       1.848   8.423  18.586  0.00  0.00    +0.000 A 
ATOM     14  C   UNL     1       1.791   8.155  19.958  0.00  0.00    +0.000 A 
ATOM     15  C   UNL     1       1.053   8.978  20.817  0.00  0.00    +0.000 A 
ATOM     16  C   UNL     1       0.355  10.071  20.315  0.00  0.00    +0.000 A 
ATOM     17  C   UNL     1       0.380  10.336  18.948  0.00  0.00    +0.000 A 
ATOM     18  C   UNL     1       1.116   9.516  18.088  0.00  0.00    +0.000 A 
ENDBRANCH  12  13
ENDBRANCH   9  12
BRANCH  10  19
ATOM     19  C   UNL     1       4.893   5.191  16.587  0.00  0.00    +0.000 C 
BRANCH  19  20
ATOM     20  C   UNL     1       6.050   5.845  17.327  0.00  0.00    +0.000 A 
ATOM     21  C   UNL     1       6.537   7.102  16.948  0.00  0.00    +0.000 A 
ATOM     22  C   UNL     1       7.617   7.680  17.627  0.00  0.00    +0.000 A 
ATOM     23  C   UNL     1       8.224   7.009  18.688  0.00  0.00    +0.000 A 
ATOM     24  C   UNL     1       7.746   5.760  19.077  0.00  0.00    +0.000 A 
ATOM     25  C   UNL     1       6.667   5.182  18.400  0.00  0.00    +0.000 A 
ENDBRANCH  19  20
ENDBRANCH  10  19
TORSDOF 4
ENDMDL
MODEL 6
REMARK VINA RESULT:      -8.0      2.500      6.986
REMARK  Name = 
REMARK  4 active torsions:
REMARK  status: ('A' for Active; 'I' for Inactive)
REMARK    1  A    between atoms: C_9  and  C_10
REMARK    2  A    between atoms: C_10  and  C_11
REMARK    3  A    between atoms: C_17  and  C_18
REMARK    4  A    between atoms: C_18  and  C_19
REMARK                            x       y       z     vdW  Elec       q    Type
REMARK                         _______ _______ _______ _____ _____    ______ ____
ROOT
ATOM      1  O   UNL     1      -0.347  11.399  22.900  0.00  0.00    +0.000 OA
ATOM      2  C   UNL     1       0.111  10.474  22.242  0.00  0.00    +0.000 C 
ATOM      3  C   UNL     1       1.378   9.811  22.629  0.00  0.00    +0.000 C 
ATOM      4  C   UNL     1       1.834   8.761  21.932  0.00  0.00    +0.000 C 
ATOM      5  C   UNL     1       1.126   8.161  20.758  0.00  0.00    +0.000 C 
ATOM      6  C   UNL     1      -0.100   8.920  20.358  0.00  0.00    +0.000 C 
ATOM      7  C   UNL     1      -0.576   9.981  21.025  0.00  0.00    +0.000 C 
ATOM      8  O   UNL     1       0.746   6.840  21.125  0.00  0.00    +0.000 OA
ATOM      9  C   UNL     1       1.325   5.959  20.151  0.00  0.00    +0.000 C 
ATOM     10  C   UNL     1       2.493   6.772  19.583  0.00  0.00    +0.000 C 
ATOM     11  O   UNL     1       2.004   8.122  19.641  0.00  0.00    +0.000 OA
ENDROOT
BRANCH   9  12
ATOM     12  C   UNL     1       1.750   4.658  20.840  0.00  0.00    +0.000 C 
BRANCH  12  13
ATOM     13  C   UNL     1       2.308   3.599  19.906  0.00  0.00    +0.000 A 
ATOM     14  C   UNL     1       1.672   3.283  18.701  0.00  0.00    +0.000 A 
ATOM     15  C   UNL     1       2.234   2.354  17.818  0.00  0.00    +0.000 A 
ATOM     16  C   UNL     1       3.432   1.721  18.133  0.00  0.00    +0.000 A 
ATOM     17  C   UNL     1       4.064   2.004  19.340  0.00  0.00    +0.000 A 
ATOM     18  C   UNL     1       3.506   2.933  20.224  0.00  0.00    +0.000 A 
ENDBRANCH  12  13
ENDBRANCH   9  12
BRANCH  10  19
ATOM     19  C   UNL     1       2.886   6.417  18.142  0.00  0.00    +0.000 C 
BRANCH  19  20
ATOM     20  C   UNL     1       4.251   5.755  18.039  0.00  0.00    +0.000 A 
ATOM     21  C   UNL     1       5.186   5.854  19.076  0.00  0.00    +0.000 A 
ATOM     22  C   UNL     1       6.448   5.256  18.956  0.00  0.00    +0.000 A 
ATOM     23  C   UNL     1       6.789   4.556  17.799  0.00  0.00    +0.000 A 
ATOM     24  C   UNL     1       5.865   4.447  16.762  0.00  0.00    +0.000 A 
ATOM     25  C   UNL     1       4.606   5.044  16.882  0.00  0.00    +0.000 A 
ENDBRANCH  19  20
ENDBRANCH  10  19
TORSDOF 4
ENDMDL
MODEL 7
REMARK VINA RESULT:      -8.0      1.879      6.559
REMARK  Name = 
REMARK  4 active torsions:
REMARK  status: ('A' for Active; 'I' for Inactive)
REMARK    1  A    between atoms: C_9  and  C_10
REMARK    2  A    between atoms: C_10  and  C_11
REMARK    3  A    between atoms: C_17  and  C_18
REMARK    4  A    between atoms: C_18  and  C_19
REMARK                            x       y       z     vdW  Elec       q    Type
REMARK                         _______ _______ _______ _____ _____    ______ ____
ROOT
ATOM      1  O   UNL     1       0.410  10.926  20.432  0.00  0.00    +0.000 OA
ATOM      2  C   UNL     1       0.949   9.959  19.911  0.00  0.00    +0.000 C 
ATOM      3  C   UNL     1       1.346   8.778  20.712  0.00  0.00    +0.000 C 
ATOM      4  C   UNL     1       1.880   7.703  20.117  0.00  0.00    +0.000 C 
ATOM      5  C   UNL     1       2.096   7.581  18.640  0.00  0.00    +0.000 C 
ATOM      6  C   UNL     1       1.759   8.831  17.891  0.00  0.00    +0.000 C 
ATOM      7  C   UNL     1       1.236   9.927  18.457  0.00  0.00    +0.000 C 
ATOM      8  O   UNL     1       1.256   6.530  18.178  0.00  0.00    +0.000 OA
ATOM      9  C   UNL     1       2.110   5.578  17.525  0.00  0.00    +0.000 C 
ATOM     10  C   UNL     1       3.486   5.849  18.143  0.00  0.00    +0.000 C 
ATOM     11  O   UNL     1       3.457   7.266  18.382  0.00  0.00    +0.000 OA
ENDROOT
BRANCH   9  12
ATOM     12  C   UNL     1       1.579   4.164  17.787  0.00  0.00    +0.000 C 
BRANCH  12  13
ATOM     13  C   UNL     1       1.901   3.611  19.164  0.00  0.00    +0.000 A 
ATOM     14  C   UNL     1       1.008   3.749  20.231  0.00  0.00    +0.000 A 
ATOM     15  C   UNL     1       1.287   3.175  21.476  0.00  0.00    +0.000 A 
ATOM     16  C   UNL     1       2.468   2.464  21.674  0.00  0.00    +0.000 A 
ATOM     17  C   UNL     1       3.379   2.340  20.629  0.00  0.00    +0.000 A 
ATOM     18  C   UNL     1       3.102   2.912  19.384  0.00  0.00    +0.000 A 
ENDBRANCH  12  13
ENDBRANCH   9  12
BRANCH  10  19
ATOM     19  C   UNL     1       4.678   5.492  17.245  0.00  0.00    +0.000 C 
BRANCH  19  20
ATOM     20  C   UNL     1       5.995   6.073  17.736  0.00  0.00    +0.000 A 
ATOM     21  C   UNL     1       6.688   5.497  18.807  0.00  0.00    +0.000 A 
ATOM     22  C   UNL     1       7.888   6.059  19.262  0.00  0.00    +0.000 A 
ATOM     23  C   UNL     1       8.407   7.202  18.654  0.00  0.00    +0.000 A 
ATOM     24  C   UNL     1       7.728   7.782  17.585  0.00  0.00    +0.000 A 
ATOM     25  C   UNL     1       6.530   7.221  17.131  0.00  0.00    +0.000 A 
ENDBRANCH  19  20
ENDBRANCH  10  19
TORSDOF 4
ENDMDL
MODEL 8
REMARK VINA RESULT:      -8.0      1.844      6.524
REMARK  Name = 
REMARK  4 active torsions:
REMARK  status: ('A' for Active; 'I' for Inactive)
REMARK    1  A    between atoms: C_9  and  C_10
REMARK    2  A    between atoms: C_10  and  C_11
REMARK    3  A    between atoms: C_17  and  C_18
REMARK    4  A    between atoms: C_18  and  C_19
REMARK                            x       y       z     vdW  Elec       q    Type
REMARK                         _______ _______ _______ _____ _____    ______ ____
ROOT
ATOM      1  O   UNL     1       0.444  10.822  19.942  0.00  0.00    +0.000 OA
ATOM      2  C   UNL     1       1.018   9.822  19.530  0.00  0.00    +0.000 C 
ATOM      3  C   UNL     1       1.328   8.689  20.432  0.00  0.00    +0.000 C 
ATOM      4  C   UNL     1       1.901   7.577  19.953  0.00  0.00    +0.000 C 
ATOM      5  C   UNL     1       2.248   7.365  18.511  0.00  0.00    +0.000 C 
ATOM      6  C   UNL     1       1.994   8.570  17.662  0.00  0.00    +0.000 C 
ATOM      7  C   UNL     1       1.434   9.702  18.113  0.00  0.00    +0.000 C 
ATOM      8  O   UNL     1       1.442   6.294  18.038  0.00  0.00    +0.000 OA
ATOM      9  C   UNL     1       2.340   5.300  17.523  0.00  0.00    +0.000 C 
ATOM     10  C   UNL     1       3.657   5.599  18.245  0.00  0.00    +0.000 C 
ATOM     11  O   UNL     1       3.623   7.028  18.397  0.00  0.00    +0.000 OA
ENDROOT
BRANCH   9  12
ATOM     12  C   UNL     1       1.771   3.907  17.819  0.00  0.00    +0.000 C 
BRANCH  12  13
ATOM     13  C   UNL     1       2.004   3.415  19.236  0.00  0.00    +0.000 A 
ATOM     14  C   UNL     1       1.029   3.563  20.228  0.00  0.00    +0.000 A 
ATOM     15  C   UNL     1       1.230   3.044  21.511  0.00  0.00    +0.000 A 
ATOM     16  C   UNL     1       2.412   2.381  21.824  0.00  0.00    +0.000 A 
ATOM     17  C   UNL     1       3.404   2.248  20.856  0.00  0.00    +0.000 A 
ATOM     18  C   UNL     1       3.206   2.764  19.573  0.00  0.00    +0.000 A 
ENDBRANCH  12  13
ENDBRANCH   9  12
BRANCH  10  19
ATOM     19  C   UNL     1       4.922   5.182  17.482  0.00  0.00    +0.000 C 
BRANCH  19  20
ATOM     20  C   UNL     1       6.146   6.004  17.853  0.00  0.00    +0.000 A 
ATOM     21  C   UNL     1       6.460   7.186  17.172  0.00  0.00    +0.000 A 
ATOM     22  C   UNL     1       7.604   7.920  17.512  0.00  0.00    +0.000 A 
ATOM     23  C   UNL     1       8.446   7.481  18.533  0.00  0.00    +0.000 A 
ATOM     24  C   UNL     1       8.142   6.309  19.221  0.00  0.00    +0.000 A 
ATOM     25  C   UNL     1       7.000   5.576  18.881  0.00  0.00    +0.000 A 
ENDBRANCH  19  20
ENDBRANCH  10  19
TORSDOF 4
ENDMDL
MODEL 9
REMARK VINA RESULT:      -7.9      1.705      3.030
REMARK  Name = 
REMARK  4 active torsions:
REMARK  status: ('A' for Active; 'I' for Inactive)
REMARK    1  A    between atoms: C_9  and  C_10
REMARK    2  A    between atoms: C_10  and  C_11
REMARK    3  A    between atoms: C_17  and  C_18
REMARK    4  A    between atoms: C_18  and  C_19
REMARK                            x       y       z     vdW  Elec       q    Type
REMARK                         _______ _______ _______ _____ _____    ______ ____
ROOT
ATOM      1  O   UNL     1       8.183   5.521  12.911  0.00  0.00    +0.000 OA
ATOM      2  C   UNL     1       7.395   5.179  13.783  0.00  0.00    +0.000 C 
ATOM      3  C   UNL     1       7.842   4.957  15.178  0.00  0.00    +0.000 C 
ATOM      4  C   UNL     1       6.956   4.642  16.133  0.00  0.00    +0.000 C 
ATOM      5  C   UNL     1       5.482   4.513  15.901  0.00  0.00    +0.000 C 
ATOM      6  C   UNL     1       5.097   4.662  14.464  0.00  0.00    +0.000 C 
ATOM      7  C   UNL     1       5.959   4.964  13.483  0.00  0.00    +0.000 C 
ATOM      8  O   UNL     1       4.847   5.540  16.653  0.00  0.00    +0.000 OA
ATOM      9  C   UNL     1       3.910   4.891  17.525  0.00  0.00    +0.000 C 
ATOM     10  C   UNL     1       4.456   3.464  17.640  0.00  0.00    +0.000 C 
ATOM     11  O   UNL     1       5.040   3.238  16.347  0.00  0.00    +0.000 OA
ENDROOT
BRANCH   9  12
ATOM     12  C   UNL     1       3.858   5.646  18.858  0.00  0.00    +0.000 C 
BRANCH  12  13
ATOM     13  C   UNL     1       2.938   6.854  18.867  0.00  0.00    +0.000 A 
ATOM     14  C   UNL     1       2.151   7.161  19.982  0.00  0.00    +0.000 A 
ATOM     15  C   UNL     1       1.359   8.315  20.003  0.00  0.00    +0.000 A 
ATOM     16  C   UNL     1       1.335   9.170  18.905  0.00  0.00    +0.000 A 
ATOM     17  C   UNL     1       2.092   8.865  17.777  0.00  0.00    +0.000 A 
ATOM     18  C   UNL     1       2.885   7.714  17.755  0.00  0.00    +0.000 A 
ENDBRANCH  12  13
ENDBRANCH   9  12
BRANCH  10  19
ATOM     19  C   UNL     1       3.400   2.390  17.935  0.00  0.00    +0.000 C 
BRANCH  19  20
ATOM     20  C   UNL     1       2.674   2.608  19.253  0.00  0.00    +0.000 A 
ATOM     21  C   UNL     1       3.328   2.433  20.479  0.00  0.00    +0.000 A 
ATOM     22  C   UNL     1       2.639   2.616  21.685  0.00  0.00    +0.000 A 
ATOM     23  C   UNL     1       1.290   2.973  21.679  0.00  0.00    +0.000 A 
ATOM     24  C   UNL     1       0.631   3.154  20.466  0.00  0.00    +0.000 A 
ATOM     25  C   UNL     1       1.318   2.971  19.262  0.00  0.00    +0.000 A 
ENDBRANCH  19  20
ENDBRANCH  10  19
TORSDOF 4
ENDMDL
