MODEL 1
REMARK VINA RESULT:      -7.1      0.000      0.000
REMARK  Name = 
REMARK  7 active torsions:
REMARK  status: ('A' for Active; 'I' for Inactive)
REMARK    1  A    between atoms: C_1  and  N_2
REMARK    2  A    between atoms: N_2  and  C_3
REMARK    3  A    between atoms: N_2  and  C_4
REMARK    4  A    between atoms: C_4  and  C_5
REMARK    5  A    between atoms: C_5  and  C_6
REMARK    6  A    between atoms: C_6  and  N_7
REMARK    7  A    between atoms: C_8  and  C_10
REMARK                            x       y       z     vdW  Elec       q    Type
REMARK                         _______ _______ _______ _____ _____    ______ ____
ROOT
ATOM      1  C   UNL     1       3.200   4.125  18.668  0.00  0.00    +0.000 A 
ATOM      2  C   UNL     1       3.265   2.868  19.289  0.00  0.00    +0.000 A 
ATOM      3  C   UNL     1       2.738   2.692  20.560  0.00  0.00    +0.000 A 
ATOM      4  C   UNL     1       2.155   3.774  21.218  0.00  0.00    +0.000 A 
ATOM      5  C   UNL     1       2.078   5.030  20.630  0.00  0.00    +0.000 A 
ATOM      6  N   UNL     1       1.502   6.028  21.336  0.00  0.00    +0.000 NA
ATOM      7  C   UNL     1       1.478   7.203  20.692  0.00  0.00    +0.000 A 
ATOM      8  C   UNL     1       1.972   7.410  19.423  0.00  0.00    +0.000 A 
ATOM      9  N   UNL     1       2.534   6.439  18.697  0.00  0.00    +0.000 NA
ATOM     10  C   UNL     1       2.606   5.220  19.306  0.00  0.00    +0.000 A 
ATOM     11  C   UNL     1       1.801   8.776  19.020  0.00  0.00    +0.000 A 
ATOM     12  C   UNL     1       2.143   9.434  17.852  0.00  0.00    +0.000 A 
ATOM     13  C   UNL     1       1.839  10.795  17.756  0.00  0.00    +0.000 A 
ATOM     14  C   UNL     1       1.205  11.475  18.816  0.00  0.00    +0.000 A 
ATOM     15  C   UNL     1       0.863  10.809  19.996  0.00  0.00    +0.000 A 
ATOM     16  C   UNL     1       1.172   9.466  20.068  0.00  0.00    +0.000 A 
ATOM     17  C   UNL     1       0.942   8.497  21.173  0.00  0.00    +0.000 C 
ATOM     18  O   UNL     1       0.419   8.750  22.235  0.00  0.00    +0.000 OA
ENDROOT
BRANCH   1  20
ATOM     19  N   UNL     1       4.677   5.277  17.103  0.00  0.00    +0.000 N 
ATOM     20  C   UNL     1       3.807   4.235  17.311  0.00  0.00    +0.000 C 
ATOM     21  O   UNL     1       3.496   3.432  16.439  0.00  0.00    +0.000 OA
ATOM     22  H   UNL     1       4.939   5.861  17.895  0.00  0.00    +0.000 HD
BRANCH  19  23
ATOM     23  C   UNL     1       5.320   5.524  15.835  0.00  0.00    +0.000 C 
BRANCH  23  24
ATOM     24  C   UNL     1       6.832   5.335  15.913  0.00  0.00    +0.000 C 
BRANCH  24  25
ATOM     25  C   UNL     1       7.332   4.977  17.323  0.00  0.00    +0.000 C 
BRANCH  25  27
ATOM     26  C   UNL     1       7.870   5.749  19.563  0.00  0.00    +0.000 C 
ATOM     27  N   UNL     1       7.199   6.071  18.303  0.00  0.00    +0.000 NA
ATOM     28  C   UNL     1       7.749   7.315  17.758  0.00  0.00    +0.000 C 
ENDBRANCH  25  27
ENDBRANCH  24  25
ENDBRANCH  23  24
ENDBRANCH  19  23
ENDBRANCH   1  20
TORSDOF 5
ENDMDL
MODEL 2
REMARK VINA RESULT:      -7.0      2.196      4.786
REMARK  Name = 
REMARK  7 active torsions:
REMARK  status: ('A' for Active; 'I' for Inactive)
REMARK    1  A    between atoms: C_1  and  N_2
REMARK    2  A    between atoms: N_2  and  C_3
REMARK    3  A    between atoms: N_2  and  C_4
REMARK    4  A    between atoms: C_4  and  C_5
REMARK    5  A    between atoms: C_5  and  C_6
REMARK    6  A    between atoms: C_6  and  N_7
REMARK    7  A    between atoms: C_8  and  C_10
REMARK                            x       y       z     vdW  Elec       q    Type
REMARK                         _______ _______ _______ _____ _____    ______ ____
ROOT
ATOM      1  C   UNL     1       4.652   4.728  18.334  0.00  0.00    +0.000 A 
ATOM      2  C   UNL     1       5.556   4.339  17.334  0.00  0.00    +0.000 A 
ATOM      3  C   UNL     1       5.804   5.178  16.257  0.00  0.00    +0.000 A 
ATOM      4  C   UNL     1       5.141   6.401  16.171  0.00  0.00    +0.000 A 
ATOM      5  C   UNL     1       4.241   6.812  17.145  0.00  0.00    +0.000 A 
ATOM      6  N   UNL     1       3.635   8.010  16.986  0.00  0.00    +0.000 NA
ATOM      7  C   UNL     1       2.779   8.319  17.970  0.00  0.00    +0.000 A 
ATOM      8  C   UNL     1       2.524   7.522  19.064  0.00  0.00    +0.000 A 
ATOM      9  N   UNL     1       3.117   6.340  19.253  0.00  0.00    +0.000 NA
ATOM     10  C   UNL     1       3.987   5.958  18.274  0.00  0.00    +0.000 A 
ATOM     11  C   UNL     1       1.557   8.131  19.931  0.00  0.00    +0.000 A 
ATOM     12  C   UNL     1       1.001   7.704  21.123  0.00  0.00    +0.000 A 
ATOM     13  C   UNL     1       0.066   8.537  21.744  0.00  0.00    +0.000 A 
ATOM     14  C   UNL     1      -0.299   9.774  21.172  0.00  0.00    +0.000 A 
ATOM     15  C   UNL     1       0.263  10.203  19.967  0.00  0.00    +0.000 A 
ATOM     16  C   UNL     1       1.183   9.364  19.372  0.00  0.00    +0.000 A 
ATOM     17  C   UNL     1       1.943   9.534  18.104  0.00  0.00    +0.000 C 
ATOM     18  O   UNL     1       1.867  10.485  17.360  0.00  0.00    +0.000 OA
ENDROOT
BRANCH   1  20
ATOM     19  N   UNL     1       3.305   3.951  20.216  0.00  0.00    +0.000 N 
ATOM     20  C   UNL     1       4.426   3.762  19.446  0.00  0.00    +0.000 C 
ATOM     21  O   UNL     1       5.243   2.871  19.653  0.00  0.00    +0.000 OA
ATOM     22  H   UNL     1       2.638   4.670  19.940  0.00  0.00    +0.000 HD
BRANCH  19  23
ATOM     23  C   UNL     1       2.971   3.111  21.340  0.00  0.00    +0.000 C 
BRANCH  23  24
ATOM     24  C   UNL     1       1.550   2.561  21.242  0.00  0.00    +0.000 C 
BRANCH  24  25
ATOM     25  C   UNL     1       0.663   3.331  20.249  0.00  0.00    +0.000 C 
BRANCH  25  27
ATOM     26  C   UNL     1       1.041   3.735  17.883  0.00  0.00    +0.000 C 
ATOM     27  N   UNL     1       0.640   2.754  18.893  0.00  0.00    +0.000 NA
ATOM     28  C   UNL     1       1.523   1.586  18.818  0.00  0.00    +0.000 C 
ENDBRANCH  25  27
ENDBRANCH  24  25
ENDBRANCH  23  24
ENDBRANCH  19  23
ENDBRANCH   1  20
TORSDOF 5
ENDMDL
MODEL 3
REMARK VINA RESULT:      -6.9      3.571      7.735
REMARK  Name = 
REMARK  7 active torsions:
REMARK  status: ('A' for Active; 'I' for Inactive)
REMARK    1  A    between atoms: C_1  and  N_2
REMARK    2  A    between atoms: N_2  and  C_3
REMARK    3  A    between atoms: N_2  and  C_4
REMARK    4  A    between atoms: C_4  and  C_5
REMARK    5  A    between atoms: C_5  and  C_6
REMARK    6  A    between atoms: C_6  and  N_7
REMARK    7  A    between atoms: C_8  and  C_10
REMARK                            x       y       z     vdW  Elec       q    Type
REMARK                         _______ _______ _______ _____ _____    ______ ____
ROOT
ATOM      1  C   UNL     1       5.450   4.369  18.345  0.00  0.00    +0.000 A 
ATOM      2  C   UNL     1       5.873   5.004  19.523  0.00  0.00    +0.000 A 
ATOM      3  C   UNL     1       6.915   5.919  19.485  0.00  0.00    +0.000 A 
ATOM      4  C   UNL     1       7.544   6.193  18.271  0.00  0.00    +0.000 A 
ATOM      5  C   UNL     1       7.149   5.580  17.090  0.00  0.00    +0.000 A 
ATOM      6  N   UNL     1       7.813   5.896  15.956  0.00  0.00    +0.000 NA
ATOM      7  C   UNL     1       7.366   5.251  14.869  0.00  0.00    +0.000 A 
ATOM      8  C   UNL     1       6.322   4.353  14.865  0.00  0.00    +0.000 A 
ATOM      9  N   UNL     1       5.640   4.031  15.969  0.00  0.00    +0.000 NA
ATOM     10  C   UNL     1       6.059   4.641  17.115  0.00  0.00    +0.000 A 
ATOM     11  C   UNL     1       6.094   3.833  13.548  0.00  0.00    +0.000 A 
ATOM     12  C   UNL     1       5.172   2.918  13.074  0.00  0.00    +0.000 A 
ATOM     13  C   UNL     1       5.199   2.609  11.712  0.00  0.00    +0.000 A 
ATOM     14  C   UNL     1       6.138   3.210  10.848  0.00  0.00    +0.000 A 
ATOM     15  C   UNL     1       7.070   4.133  11.329  0.00  0.00    +0.000 A 
ATOM     16  C   UNL     1       7.024   4.423  12.678  0.00  0.00    +0.000 A 
ATOM     17  C   UNL     1       7.871   5.347  13.480  0.00  0.00    +0.000 C 
ATOM     18  O   UNL     1       8.778   6.023  13.050  0.00  0.00    +0.000 OA
ENDROOT
BRANCH   1  20
ATOM     19  N   UNL     1       3.295   3.505  17.592  0.00  0.00    +0.000 N 
ATOM     20  C   UNL     1       4.339   3.384  18.476  0.00  0.00    +0.000 C 
ATOM     21  O   UNL     1       4.375   2.540  19.365  0.00  0.00    +0.000 OA
ATOM     22  H   UNL     1       3.369   4.186  16.838  0.00  0.00    +0.000 HD
BRANCH  19  23
ATOM     23  C   UNL     1       2.141   2.640  17.615  0.00  0.00    +0.000 C 
BRANCH  23  24
ATOM     24  C   UNL     1       1.012   3.214  18.466  0.00  0.00    +0.000 C 
BRANCH  24  25
ATOM     25  C   UNL     1       0.889   2.550  19.848  0.00  0.00    +0.000 C 
BRANCH  25  27
ATOM     26  C   UNL     1       2.151   2.981  21.879  0.00  0.00    +0.000 C 
ATOM     27  N   UNL     1       1.107   3.472  20.978  0.00  0.00    +0.000 NA
ATOM     28  C   UNL     1       1.469   4.805  20.488  0.00  0.00    +0.000 C 
ENDBRANCH  25  27
ENDBRANCH  24  25
ENDBRANCH  23  24
ENDBRANCH  19  23
ENDBRANCH   1  20
TORSDOF 5
ENDMDL
MODEL 4
REMARK VINA RESULT:      -6.8      3.885      6.259
REMARK  Name = 
REMARK  7 active torsions:
REMARK  status: ('A' for Active; 'I' for Inactive)
REMARK    1  A    between atoms: C_1  and  N_2
REMARK    2  A    between atoms: N_2  and  C_3
REMARK    3  A    between atoms: N_2  and  C_4
REMARK    4  A    between atoms: C_4  and  C_5
REMARK    5  A    between atoms: C_5  and  C_6
REMARK    6  A    between atoms: C_6  and  N_7
REMARK    7  A    between atoms: C_8  and  C_10
REMARK                            x       y       z     vdW  Elec       q    Type
REMARK                         _______ _______ _______ _____ _____    ______ ____
ROOT
ATOM      1  C   UNL     1       6.864   5.677  16.903  0.00  0.00    +0.000 A 
ATOM      2  C   UNL     1       7.526   5.687  15.666  0.00  0.00    +0.000 A 
ATOM      3  C   UNL     1       7.048   4.920  14.614  0.00  0.00    +0.000 A 
ATOM      4  C   UNL     1       5.913   4.132  14.799  0.00  0.00    +0.000 A 
ATOM      5  C   UNL     1       5.237   4.100  16.012  0.00  0.00    +0.000 A 
ATOM      6  N   UNL     1       4.147   3.306  16.112  0.00  0.00    +0.000 NA
ATOM      7  C   UNL     1       3.566   3.335  17.319  0.00  0.00    +0.000 A 
ATOM      8  C   UNL     1       4.000   4.100  18.379  0.00  0.00    +0.000 A 
ATOM      9  N   UNL     1       5.065   4.903  18.305  0.00  0.00    +0.000 NA
ATOM     10  C   UNL     1       5.715   4.904  17.105  0.00  0.00    +0.000 A 
ATOM     11  C   UNL     1       3.167   3.904  19.531  0.00  0.00    +0.000 A 
ATOM     12  C   UNL     1       3.223   4.448  20.801  0.00  0.00    +0.000 A 
ATOM     13  C   UNL     1       2.250   4.053  21.724  0.00  0.00    +0.000 A 
ATOM     14  C   UNL     1       1.245   3.128  21.371  0.00  0.00    +0.000 A 
ATOM     15  C   UNL     1       1.193   2.578  20.088  0.00  0.00    +0.000 A 
ATOM     16  C   UNL     1       2.163   2.983  19.193  0.00  0.00    +0.000 A 
ATOM     17  C   UNL     1       2.374   2.583  17.776  0.00  0.00    +0.000 C 
ATOM     18  O   UNL     1       1.691   1.800  17.155  0.00  0.00    +0.000 OA
ENDROOT
BRANCH   1  20
ATOM     19  N   UNL     1       7.846   7.784  17.648  0.00  0.00    +0.000 N 
ATOM     20  C   UNL     1       7.454   6.512  17.987  0.00  0.00    +0.000 C 
ATOM     21  O   UNL     1       7.596   6.040  19.110  0.00  0.00    +0.000 OA
ATOM     22  H   UNL     1       7.633   8.128  16.714  0.00  0.00    +0.000 HD
BRANCH  19  23
ATOM     23  C   UNL     1       8.456   8.695  18.585  0.00  0.00    +0.000 C 
BRANCH  23  24
ATOM     24  C   UNL     1       8.508  10.122  18.045  0.00  0.00    +0.000 C 
BRANCH  24  25
ATOM     25  C   UNL     1       9.503  11.023  18.795  0.00  0.00    +0.000 C 
BRANCH  25  27
ATOM     26  C   UNL     1      10.240  12.908  17.449  0.00  0.00    +0.000 C 
ATOM     27  N   UNL     1      10.575  11.572  17.944  0.00  0.00    +0.000 NA
ATOM     28  C   UNL     1      11.839  11.627  18.685  0.00  0.00    +0.000 C 
ENDBRANCH  25  27
ENDBRANCH  24  25
ENDBRANCH  23  24
ENDBRANCH  19  23
ENDBRANCH   1  20
TORSDOF 5
ENDMDL
MODEL 5
REMARK VINA RESULT:      -6.7      2.553      4.804
REMARK  Name = 
REMARK  7 active torsions:
REMARK  status: ('A' for Active; 'I' for Inactive)
REMARK    1  A    between atoms: C_1  and  N_2
REMARK    2  A    between atoms: N_2  and  C_3
REMARK    3  A    between atoms: N_2  and  C_4
REMARK    4  A    between atoms: C_4  and  C_5
REMARK    5  A    between atoms: C_5  and  C_6
REMARK    6  A    between atoms: C_6  and  N_7
REMARK    7  A    between atoms: C_8  and  C_10
REMARK                            x       y       z     vdW  Elec       q    Type
REMARK                         _______ _______ _______ _____ _____    ______ ____
ROOT
ATOM      1  C   UNL     1       3.406   6.235  18.811  0.00  0.00    +0.000 A 
ATOM      2  C   UNL     1       4.146   5.934  17.658  0.00  0.00    +0.000 A 
ATOM      3  C   UNL     1       4.195   6.837  16.606  0.00  0.00    +0.000 A 
ATOM      4  C   UNL     1       3.494   8.039  16.700  0.00  0.00    +0.000 A 
ATOM      5  C   UNL     1       2.752   8.364  17.828  0.00  0.00    +0.000 A 
ATOM      6  N   UNL     1       2.097   9.546  17.839  0.00  0.00    +0.000 NA
ATOM      7  C   UNL     1       1.403   9.770  18.964  0.00  0.00    +0.000 A 
ATOM      8  C   UNL     1       1.349   8.907  20.036  0.00  0.00    +0.000 A 
ATOM      9  N   UNL     1       1.997   7.738  20.057  0.00  0.00    +0.000 NA
ATOM     10  C   UNL     1       2.708   7.442  18.931  0.00  0.00    +0.000 A 
ATOM     11  C   UNL     1       0.519   9.433  21.080  0.00  0.00    +0.000 A 
ATOM     12  C   UNL     1       0.175   8.922  22.318  0.00  0.00    +0.000 A 
ATOM     13  C   UNL     1      -0.669   9.686  23.129  0.00  0.00    +0.000 A 
ATOM     14  C   UNL     1      -1.154  10.938  22.697  0.00  0.00    +0.000 A 
ATOM     15  C   UNL     1      -0.807  11.452  21.445  0.00  0.00    +0.000 A 
ATOM     16  C   UNL     1       0.028  10.680  20.662  0.00  0.00    +0.000 A 
ATOM     17  C   UNL     1       0.568  10.945  19.301  0.00  0.00    +0.000 C 
ATOM     18  O   UNL     1       0.347  11.932  18.636  0.00  0.00    +0.000 OA
ENDROOT
BRANCH   1  20
ATOM     19  N   UNL     1       2.161   4.844  20.383  0.00  0.00    +0.000 N 
ATOM     20  C   UNL     1       3.389   5.202  19.886  0.00  0.00    +0.000 C 
ATOM     21  O   UNL     1       4.446   4.740  20.302  0.00  0.00    +0.000 OA
ATOM     22  H   UNL     1       1.325   5.220  19.939  0.00  0.00    +0.000 HD
BRANCH  19  23
ATOM     23  C   UNL     1       1.992   3.878  21.441  0.00  0.00    +0.000 C 
BRANCH  23  24
ATOM     24  C   UNL     1       1.712   2.478  20.900  0.00  0.00    +0.000 C 
BRANCH  24  25
ATOM     25  C   UNL     1       1.164   2.477  19.463  0.00  0.00    +0.000 C 
BRANCH  25  27
ATOM     26  C   UNL     1       2.335   2.904  17.377  0.00  0.00    +0.000 C 
ATOM     27  N   UNL     1       2.107   1.947  18.461  0.00  0.00    +0.000 NA
ATOM     28  C   UNL     1       3.386   1.608  19.092  0.00  0.00    +0.000 C 
ENDBRANCH  25  27
ENDBRANCH  24  25
ENDBRANCH  23  24
ENDBRANCH  19  23
ENDBRANCH   1  20
TORSDOF 5
ENDMDL
MODEL 6
REMARK VINA RESULT:      -6.7      2.602      8.127
REMARK  Name = 
REMARK  7 active torsions:
REMARK  status: ('A' for Active; 'I' for Inactive)
REMARK    1  A    between atoms: C_1  and  N_2
REMARK    2  A    between atoms: N_2  and  C_3
REMARK    3  A    between atoms: N_2  and  C_4
REMARK    4  A    between atoms: C_4  and  C_5
REMARK    5  A    between atoms: C_5  and  C_6
REMARK    6  A    between atoms: C_6  and  N_7
REMARK    7  A    between atoms: C_8  and  C_10
REMARK                            x       y       z     vdW  Elec       q    Type
REMARK                         _______ _______ _______ _____ _____    ______ ____
ROOT
ATOM      1  C   UNL     1       0.791   9.350  20.028  0.00  0.00    +0.000 A 
ATOM      2  C   UNL     1       0.755  10.577  19.349  0.00  0.00    +0.000 A 
ATOM      3  C   UNL     1       1.508  10.757  18.198  0.00  0.00    +0.000 A 
ATOM      4  C   UNL     1       2.308   9.714  17.731  0.00  0.00    +0.000 A 
ATOM      5  C   UNL     1       2.365   8.490  18.383  0.00  0.00    +0.000 A 
ATOM      6  N   UNL     1       3.168   7.532  17.869  0.00  0.00    +0.000 NA
ATOM      7  C   UNL     1       3.164   6.388  18.569  0.00  0.00    +0.000 A 
ATOM      8  C   UNL     1       2.413   6.167  19.702  0.00  0.00    +0.000 A 
ATOM      9  N   UNL     1       1.601   7.091  20.225  0.00  0.00    +0.000 NA
ATOM     10  C   UNL     1       1.576   8.287  19.568  0.00  0.00    +0.000 A 
ATOM     11  C   UNL     1       2.635   4.847  20.217  0.00  0.00    +0.000 A 
ATOM     12  C   UNL     1       2.111   4.197  21.320  0.00  0.00    +0.000 A 
ATOM     13  C   UNL     1       2.529   2.886  21.565  0.00  0.00    +0.000 A 
ATOM     14  C   UNL     1       3.455   2.247  20.715  0.00  0.00    +0.000 A 
ATOM     15  C   UNL     1       3.984   2.906  19.602  0.00  0.00    +0.000 A 
ATOM     16  C   UNL     1       3.558   4.200  19.380  0.00  0.00    +0.000 A 
ATOM     17  C   UNL     1       3.932   5.152  18.299  0.00  0.00    +0.000 C 
ATOM     18  O   UNL     1       4.710   4.925  17.400  0.00  0.00    +0.000 OA
ENDROOT
BRANCH   1  20
ATOM     19  N   UNL     1      -0.179  10.390  22.013  0.00  0.00    +0.000 N 
ATOM     20  C   UNL     1      -0.031   9.246  21.268  0.00  0.00    +0.000 C 
ATOM     21  O   UNL     1      -0.511   8.165  21.590  0.00  0.00    +0.000 OA
ATOM     22  H   UNL     1       0.190  11.265  21.645  0.00  0.00    +0.000 HD
BRANCH  19  23
ATOM     23  C   UNL     1      -0.925  10.434  23.247  0.00  0.00    +0.000 C 
BRANCH  23  24
ATOM     24  C   UNL     1      -1.953  11.562  23.256  0.00  0.00    +0.000 C 
BRANCH  24  25
ATOM     25  C   UNL     1      -1.543  12.770  22.397  0.00  0.00    +0.000 C 
BRANCH  25  27
ATOM     26  C   UNL     1      -3.369  12.829  20.795  0.00  0.00    +0.000 C 
ATOM     27  N   UNL     1      -1.927  12.655  20.978  0.00  0.00    +0.000 NA
ATOM     28  C   UNL     1      -1.208  13.646  20.172  0.00  0.00    +0.000 C 
ENDBRANCH  25  27
ENDBRANCH  24  25
ENDBRANCH  23  24
ENDBRANCH  19  23
ENDBRANCH   1  20
TORSDOF 5
ENDMDL
MODEL 7
REMARK VINA RESULT:      -6.7      1.257      2.052
REMARK  Name = 
REMARK  7 active torsions:
REMARK  status: ('A' for Active; 'I' for Inactive)
REMARK    1  A    between atoms: C_1  and  N_2
REMARK    2  A    between atoms: N_2  and  C_3
REMARK    3  A    between atoms: N_2  and  C_4
REMARK    4  A    between atoms: C_4  and  C_5
REMARK    5  A    between atoms: C_5  and  C_6
REMARK    6  A    between atoms: C_6  and  N_7
REMARK    7  A    between atoms: C_8  and  C_10
REMARK                            x       y       z     vdW  Elec       q    Type
REMARK                         _______ _______ _______ _____ _____    ______ ____
ROOT
ATOM      1  C   UNL     1       3.309   4.500  18.734  0.00  0.00    +0.000 A 
ATOM      2  C   UNL     1       3.368   3.226  19.317  0.00  0.00    +0.000 A 
ATOM      3  C   UNL     1       2.739   2.986  20.530  0.00  0.00    +0.000 A 
ATOM      4  C   UNL     1       2.061   4.023  21.168  0.00  0.00    +0.000 A 
ATOM      5  C   UNL     1       1.987   5.295  20.617  0.00  0.00    +0.000 A 
ATOM      6  N   UNL     1       1.314   6.247  21.301  0.00  0.00    +0.000 NA
ATOM      7  C   UNL     1       1.302   7.443  20.695  0.00  0.00    +0.000 A 
ATOM      8  C   UNL     1       1.896   7.712  19.482  0.00  0.00    +0.000 A 
ATOM      9  N   UNL     1       2.556   6.787  18.778  0.00  0.00    +0.000 NA
ATOM     10  C   UNL     1       2.621   5.551  19.352  0.00  0.00    +0.000 A 
ATOM     11  C   UNL     1       1.709   9.084  19.110  0.00  0.00    +0.000 A 
ATOM     12  C   UNL     1       2.126   9.794  17.998  0.00  0.00    +0.000 A 
ATOM     13  C   UNL     1       1.781  11.146  17.919  0.00  0.00    +0.000 A 
ATOM     14  C   UNL     1       1.031  11.766  18.940  0.00  0.00    +0.000 A 
ATOM     15  C   UNL     1       0.613  11.048  20.063  0.00  0.00    +0.000 A 
ATOM     16  C   UNL     1       0.966   9.714  20.120  0.00  0.00    +0.000 A 
ATOM     17  C   UNL     1       0.676   8.699  21.168  0.00  0.00    +0.000 C 
ATOM     18  O   UNL     1       0.054   8.897  22.187  0.00  0.00    +0.000 OA
ENDROOT
BRANCH   1  20
ATOM     19  N   UNL     1       4.738   5.844  17.280  0.00  0.00    +0.000 N 
ATOM     20  C   UNL     1       4.028   4.680  17.440  0.00  0.00    +0.000 C 
ATOM     21  O   UNL     1       3.940   3.819  16.571  0.00  0.00    +0.000 OA
ATOM     22  H   UNL     1       4.821   6.479  18.072  0.00  0.00    +0.000 HD
BRANCH  19  23
ATOM     23  C   UNL     1       5.461   6.166  16.074  0.00  0.00    +0.000 C 
BRANCH  23  24
ATOM     24  C   UNL     1       6.890   5.630  16.103  0.00  0.00    +0.000 C 
BRANCH  24  25
ATOM     25  C   UNL     1       7.129   4.473  15.119  0.00  0.00    +0.000 C 
BRANCH  25  27
ATOM     26  C   UNL     1       7.938   5.216  12.951  0.00  0.00    +0.000 C 
ATOM     27  N   UNL     1       6.771   4.787  13.724  0.00  0.00    +0.000 NA
ATOM     28  C   UNL     1       6.157   3.623  13.078  0.00  0.00    +0.000 C 
ENDBRANCH  25  27
ENDBRANCH  24  25
ENDBRANCH  23  24
ENDBRANCH  19  23
ENDBRANCH   1  20
TORSDOF 5
ENDMDL
MODEL 8
REMARK VINA RESULT:      -6.7      2.160      4.709
REMARK  Name = 
REMARK  7 active torsions:
REMARK  status: ('A' for Active; 'I' for Inactive)
REMARK    1  A    between atoms: C_1  and  N_2
REMARK    2  A    between atoms: N_2  and  C_3
REMARK    3  A    between atoms: N_2  and  C_4
REMARK    4  A    between atoms: C_4  and  C_5
REMARK    5  A    between atoms: C_5  and  C_6
REMARK    6  A    between atoms: C_6  and  N_7
REMARK    7  A    between atoms: C_8  and  C_10
REMARK                            x       y       z     vdW  Elec       q    Type
REMARK                         _______ _______ _______ _____ _____    ______ ____
ROOT
ATOM      1  C   UNL     1       4.639   4.654  17.425  0.00  0.00    +0.000 A 
ATOM      2  C   UNL     1       5.504   4.402  16.350  0.00  0.00    +0.000 A 
ATOM      3  C   UNL     1       5.776   5.401  15.426  0.00  0.00    +0.000 A 
ATOM      4  C   UNL     1       5.174   6.650  15.569  0.00  0.00    +0.000 A 
ATOM      5  C   UNL     1       4.312   6.929  16.621  0.00  0.00    +0.000 A 
ATOM      6  N   UNL     1       3.765   8.163  16.685  0.00  0.00    +0.000 NA
ATOM      7  C   UNL     1       2.942   8.337  17.729  0.00  0.00    +0.000 A 
ATOM      8  C   UNL     1       2.665   7.377  18.677  0.00  0.00    +0.000 A 
ATOM      9  N   UNL     1       3.202   6.153  18.645  0.00  0.00    +0.000 NA
ATOM     10  C   UNL     1       4.035   5.906  17.593  0.00  0.00    +0.000 A 
ATOM     11  C   UNL     1       1.745   7.872  19.659  0.00  0.00    +0.000 A 
ATOM     12  C   UNL     1       1.189   7.272  20.774  0.00  0.00    +0.000 A 
ATOM     13  C   UNL     1       0.308   8.028  21.552  0.00  0.00    +0.000 A 
ATOM     14  C   UNL     1      -0.004   9.360  21.210  0.00  0.00    +0.000 A 
ATOM     15  C   UNL     1       0.558   9.964  20.082  0.00  0.00    +0.000 A 
ATOM     16  C   UNL     1       1.425   9.198  19.329  0.00  0.00    +0.000 A 
ATOM     17  C   UNL     1       2.170   9.549  18.090  0.00  0.00    +0.000 C 
ATOM     18  O   UNL     1       2.130  10.616  17.522  0.00  0.00    +0.000 OA
ENDROOT
BRANCH   1  20
ATOM     19  N   UNL     1       3.269   2.757  18.120  0.00  0.00    +0.000 N 
ATOM     20  C   UNL     1       4.383   3.522  18.361  0.00  0.00    +0.000 C 
ATOM     21  O   UNL     1       5.139   3.334  19.308  0.00  0.00    +0.000 OA
ATOM     22  H   UNL     1       2.729   2.931  17.275  0.00  0.00    +0.000 HD
BRANCH  19  23
ATOM     23  C   UNL     1       2.883   1.646  18.955  0.00  0.00    +0.000 C 
BRANCH  23  24
ATOM     24  C   UNL     1       1.441   1.768  19.441  0.00  0.00    +0.000 C 
BRANCH  24  25
ATOM     25  C   UNL     1       1.041   3.205  19.813  0.00  0.00    +0.000 C 
BRANCH  25  27
ATOM     26  C   UNL     1       1.263   2.342  22.074  0.00  0.00    +0.000 C 
ATOM     27  N   UNL     1       1.259   3.540  21.232  0.00  0.00    +0.000 NA
ATOM     28  C   UNL     1       2.524   4.261  21.400  0.00  0.00    +0.000 C 
ENDBRANCH  25  27
ENDBRANCH  24  25
ENDBRANCH  23  24
ENDBRANCH  19  23
ENDBRANCH   1  20
TORSDOF 5
ENDMDL
MODEL 9
REMARK VINA RESULT:      -6.6      3.164      8.638
REMARK  Name = 
REMARK  7 active torsions:
REMARK  status: ('A' for Active; 'I' for Inactive)
REMARK    1  A    between atoms: C_1  and  N_2
REMARK    2  A    between atoms: N_2  and  C_3
REMARK    3  A    between atoms: N_2  and  C_4
REMARK    4  A    between atoms: C_4  and  C_5
REMARK    5  A    between atoms: C_5  and  C_6
REMARK    6  A    between atoms: C_6  and  N_7
REMARK    7  A    between atoms: C_8  and  C_10
REMARK                            x       y       z     vdW  Elec       q    Type
REMARK                         _______ _______ _______ _____ _____    ______ ____
ROOT
ATOM      1  C   UNL     1       1.081   9.722  20.244  0.00  0.00    +0.000 A 
ATOM      2  C   UNL     1       1.036  10.944  19.557  0.00  0.00    +0.000 A 
ATOM      3  C   UNL     1       1.565  11.043  18.278  0.00  0.00    +0.000 A 
ATOM      4  C   UNL     1       2.151   9.924  17.689  0.00  0.00    +0.000 A 
ATOM      5  C   UNL     1       2.212   8.702  18.345  0.00  0.00    +0.000 A 
ATOM      6  N   UNL     1       2.800   7.665  17.707  0.00  0.00    +0.000 NA
ATOM      7  C   UNL     1       2.818   6.530  18.420  0.00  0.00    +0.000 A 
ATOM      8  C   UNL     1       2.285   6.390  19.682  0.00  0.00    +0.000 A 
ATOM      9  N   UNL     1       1.685   7.393  20.331  0.00  0.00    +0.000 NA
ATOM     10  C   UNL     1       1.652   8.583  19.665  0.00  0.00    +0.000 A 
ATOM     11  C   UNL     1       2.470   5.055  20.174  0.00  0.00    +0.000 A 
ATOM     12  C   UNL     1       2.109   4.465  21.372  0.00  0.00    +0.000 A 
ATOM     13  C   UNL     1       2.433   3.119  21.561  0.00  0.00    +0.000 A 
ATOM     14  C   UNL     1       3.108   2.387  20.562  0.00  0.00    +0.000 A 
ATOM     15  C   UNL     1       3.474   2.986  19.354  0.00  0.00    +0.000 A 
ATOM     16  C   UNL     1       3.143   4.315  19.189  0.00  0.00    +0.000 A 
ATOM     17  C   UNL     1       3.393   5.221  18.035  0.00  0.00    +0.000 C 
ATOM     18  O   UNL     1       3.954   4.914  17.008  0.00  0.00    +0.000 OA
ENDROOT
BRANCH   1  20
ATOM     19  N   UNL     1      -0.591  10.496  21.846  0.00  0.00    +0.000 N 
ATOM     20  C   UNL     1       0.510   9.706  21.621  0.00  0.00    +0.000 C 
ATOM     21  O   UNL     1       1.044   9.031  22.494  0.00  0.00    +0.000 OA
ATOM     22  H   UNL     1      -1.020  10.974  21.056  0.00  0.00    +0.000 HD
BRANCH  19  23
ATOM     23  C   UNL     1      -1.235  10.600  23.133  0.00  0.00    +0.000 C 
BRANCH  23  24
ATOM     24  C   UNL     1      -1.665  12.030  23.445  0.00  0.00    +0.000 C 
BRANCH  24  25
ATOM     25  C   UNL     1      -2.804  12.537  22.545  0.00  0.00    +0.000 C 
BRANCH  25  27
ATOM     26  C   UNL     1      -4.259  12.596  24.490  0.00  0.00    +0.000 C 
ATOM     27  N   UNL     1      -4.153  12.257  23.070  0.00  0.00    +0.000 NA
ATOM     28  C   UNL     1      -5.162  13.001  22.312  0.00  0.00    +0.000 C 
ENDBRANCH  25  27
ENDBRANCH  24  25
ENDBRANCH  23  24
ENDBRANCH  19  23
ENDBRANCH   1  20
TORSDOF 5
ENDMDL
