MODEL 1
REMARK VINA RESULT:      -7.7      0.000      0.000
REMARK  Name = 
REMARK  8 active torsions:
REMARK  status: ('A' for Active; 'I' for Inactive)
REMARK    1  A    between atoms: C_1  and  C_2
REMARK    2  A    between atoms: C_5  and  N_6
REMARK    3  A    between atoms: C_10  and  S_11
REMARK    4  A    between atoms: S_11  and  N_14
REMARK    5  A    between atoms: N_14  and  C_15
REMARK    6  A    between atoms: N_18  and  C_19
REMARK    7  A    between atoms: C_19  and  C_20
REMARK    8  A    between atoms: C_26  and  C_27
REMARK                            x       y       z     vdW  Elec       q    Type
REMARK                         _______ _______ _______ _____ _____    ______ ____
ROOT
ATOM      1  C   UNL     1       1.964   5.053  19.247  0.00  0.00    +0.000 C 
ATOM      2  C   UNL     1       2.160   6.330  18.441  0.00  0.00    +0.000 C 
ATOM      3  C   UNL     1       2.532   7.377  19.476  0.00  0.00    +0.000 C 
ATOM      4  N   UNL     1       1.789   7.011  20.689  0.00  0.00    +0.000 NA
ATOM      5  C   UNL     1       1.821   5.537  20.705  0.00  0.00    +0.000 C 
ENDROOT
BRANCH   1   6
ATOM      6  N   UNL     1       3.115   4.135  19.185  0.00  0.00    +0.000 NA
ATOM      7  H   UNL     1       3.929   4.447  19.702  0.00  0.00    +0.000 HD
BRANCH   6   8
ATOM      8  S   UNL     1       3.468   3.279  17.788  0.00  0.00    +0.000 S 
ATOM      9  O   UNL     1       2.398   3.514  16.845  0.00  0.00    +0.000 OA
ATOM     10  O   UNL     1       3.865   1.948  18.176  0.00  0.00    +0.000 OA
BRANCH   8  17
ATOM     11  C   UNL     1       5.670   4.939  19.512  0.00  0.00    +0.000 C 
ATOM     12  C   UNL     1       5.838   4.790  18.023  0.00  0.00    +0.000 A 
ATOM     13  C   UNL     1       6.972   5.392  17.441  0.00  0.00    +0.000 A 
ATOM     14  C   UNL     1       7.231   5.283  16.075  0.00  0.00    +0.000 A 
ATOM     15  C   UNL     1       6.353   4.566  15.259  0.00  0.00    +0.000 A 
ATOM     16  C   UNL     1       5.210   3.968  15.801  0.00  0.00    +0.000 A 
ATOM     17  C   UNL     1       4.945   4.091  17.177  0.00  0.00    +0.000 A 
BRANCH  15  18
ATOM     18  N   UNL     1       6.627   4.447  13.821  0.00  0.00    +0.000 N 
ATOM     19  O   UNL     1       6.058   3.537  13.201  0.00  0.00    +0.000 OA
ATOM     20  O   UNL     1       7.418   5.254  13.318  0.00  0.00    +0.000 OA
ENDBRANCH  15  18
ENDBRANCH   8  17
ENDBRANCH   6   8
ENDBRANCH   1   6
BRANCH   4  21
ATOM     21  C   UNL     1       0.410   7.532  20.664  0.00  0.00    +0.000 C 
BRANCH  21  22
ATOM     22  C   UNL     1       0.426   9.019  20.802  0.00  0.00    +0.000 A 
ATOM     23  C   UNL     1       1.105   9.776  21.781  0.00  0.00    +0.000 A 
ATOM     24  N   UNL     1       0.943  11.091  21.644  0.00  0.00    +0.000 NA
ATOM     25  N   UNL     1       0.165  11.229  20.544  0.00  0.00    +0.000 N 
ATOM     26  C   UNL     1      -0.279  12.421  19.966  0.00  0.00    +0.000 A 
ATOM     27  C   UNL     1      -1.022  12.396  18.845  0.00  0.00    +0.000 A 
ATOM     28  C   UNL     1      -1.343  11.105  18.248  0.00  0.00    +0.000 A 
ATOM     29  C   UNL     1      -0.945   9.948  18.814  0.00  0.00    +0.000 A 
ATOM     30  C   UNL     1      -0.161   9.982  20.005  0.00  0.00    +0.000 A 
BRANCH  28  31
ATOM     31  C   UNL     1      -2.159  11.073  16.966  0.00  0.00    +0.000 C 
ATOM     32  N   UNL     1      -2.835  11.046  15.902  0.00  0.00    +0.000 NA
ENDBRANCH  28  31
ENDBRANCH  21  22
ENDBRANCH   4  21
TORSDOF 7
ENDMDL
MODEL 2
REMARK VINA RESULT:      -7.6      5.314     10.511
REMARK  Name = 
REMARK  8 active torsions:
REMARK  status: ('A' for Active; 'I' for Inactive)
REMARK    1  A    between atoms: C_1  and  C_2
REMARK    2  A    between atoms: C_5  and  N_6
REMARK    3  A    between atoms: C_10  and  S_11
REMARK    4  A    between atoms: S_11  and  N_14
REMARK    5  A    between atoms: N_14  and  C_15
REMARK    6  A    between atoms: N_18  and  C_19
REMARK    7  A    between atoms: C_19  and  C_20
REMARK    8  A    between atoms: C_26  and  C_27
REMARK                            x       y       z     vdW  Elec       q    Type
REMARK                         _______ _______ _______ _____ _____    ______ ____
ROOT
ATOM      1  C   UNL     1      -1.169  10.495  18.860  0.00  0.00    +0.000 C 
ATOM      2  C   UNL     1      -0.221  11.289  19.748  0.00  0.00    +0.000 C 
ATOM      3  C   UNL     1       1.130  11.164  19.066  0.00  0.00    +0.000 C 
ATOM      4  N   UNL     1       1.141   9.825  18.461  0.00  0.00    +0.000 NA
ATOM      5  C   UNL     1      -0.240   9.630  17.982  0.00  0.00    +0.000 C 
ENDROOT
BRANCH   1   6
ATOM      6  N   UNL     1      -1.984  11.337  17.966  0.00  0.00    +0.000 NA
ATOM      7  H   UNL     1      -1.779  12.328  18.020  0.00  0.00    +0.000 HD
BRANCH   6   8
ATOM      8  S   UNL     1      -3.593  10.978  17.665  0.00  0.00    +0.000 S 
ATOM      9  O   UNL     1      -3.769   9.555  17.843  0.00  0.00    +0.000 OA
ATOM     10  O   UNL     1      -3.973  11.647  16.444  0.00  0.00    +0.000 OA
BRANCH   8  17
ATOM     11  C   UNL     1      -6.778  10.903  18.322  0.00  0.00    +0.000 C 
ATOM     12  C   UNL     1      -5.850  11.718  19.186  0.00  0.00    +0.000 A 
ATOM     13  C   UNL     1      -6.427  12.421  20.262  0.00  0.00    +0.000 A 
ATOM     14  C   UNL     1      -5.647  13.178  21.136  0.00  0.00    +0.000 A 
ATOM     15  C   UNL     1      -4.265  13.247  20.947  0.00  0.00    +0.000 A 
ATOM     16  C   UNL     1      -3.661  12.573  19.881  0.00  0.00    +0.000 A 
ATOM     17  C   UNL     1      -4.452  11.822  18.993  0.00  0.00    +0.000 A 
BRANCH  15  18
ATOM     18  N   UNL     1      -3.442  14.040  21.870  0.00  0.00    +0.000 N 
ATOM     19  O   UNL     1      -3.522  13.780  23.079  0.00  0.00    +0.000 OA
ATOM     20  O   UNL     1      -2.728  14.927  21.385  0.00  0.00    +0.000 OA
ENDBRANCH  15  18
ENDBRANCH   8  17
ENDBRANCH   6   8
ENDBRANCH   1   6
BRANCH   4  21
ATOM     21  C   UNL     1       1.539   8.789  19.431  0.00  0.00    +0.000 C 
BRANCH  21  22
ATOM     22  C   UNL     1       2.396   7.766  18.760  0.00  0.00    +0.000 A 
ATOM     23  C   UNL     1       3.241   7.962  17.646  0.00  0.00    +0.000 A 
ATOM     24  N   UNL     1       3.893   6.863  17.274  0.00  0.00    +0.000 NA
ATOM     25  N   UNL     1       3.505   5.915  18.160  0.00  0.00    +0.000 N 
ATOM     26  C   UNL     1       3.922   4.583  18.210  0.00  0.00    +0.000 A 
ATOM     27  C   UNL     1       3.470   3.766  19.179  0.00  0.00    +0.000 A 
ATOM     28  C   UNL     1       2.547   4.304  20.172  0.00  0.00    +0.000 A 
ATOM     29  C   UNL     1       2.115   5.580  20.114  0.00  0.00    +0.000 A 
ATOM     30  C   UNL     1       2.595   6.439  19.082  0.00  0.00    +0.000 A 
BRANCH  28  31
ATOM     31  C   UNL     1       2.055   3.394  21.285  0.00  0.00    +0.000 C 
ATOM     32  N   UNL     1       1.646   2.639  22.209  0.00  0.00    +0.000 NA
ENDBRANCH  28  31
ENDBRANCH  21  22
ENDBRANCH   4  21
TORSDOF 7
ENDMDL
MODEL 3
REMARK VINA RESULT:      -7.5      1.296      1.394
REMARK  Name = 
REMARK  8 active torsions:
REMARK  status: ('A' for Active; 'I' for Inactive)
REMARK    1  A    between atoms: C_1  and  C_2
REMARK    2  A    between atoms: C_5  and  N_6
REMARK    3  A    between atoms: C_10  and  S_11
REMARK    4  A    between atoms: S_11  and  N_14
REMARK    5  A    between atoms: N_14  and  C_15
REMARK    6  A    between atoms: N_18  and  C_19
REMARK    7  A    between atoms: C_19  and  C_20
REMARK    8  A    between atoms: C_26  and  C_27
REMARK                            x       y       z     vdW  Elec       q    Type
REMARK                         _______ _______ _______ _____ _____    ______ ____
ROOT
ATOM      1  C   UNL     1       2.500   5.878  18.864  0.00  0.00    +0.000 C 
ATOM      2  C   UNL     1       2.939   6.566  17.578  0.00  0.00    +0.000 C 
ATOM      3  C   UNL     1       3.254   7.990  18.000  0.00  0.00    +0.000 C 
ATOM      4  N   UNL     1       2.305   8.299  19.078  0.00  0.00    +0.000 NA
ATOM      5  C   UNL     1       2.188   7.038  19.833  0.00  0.00    +0.000 C 
ENDROOT
BRANCH   1   6
ATOM      6  N   UNL     1       3.551   5.046  19.476  0.00  0.00    +0.000 NA
ATOM      7  H   UNL     1       4.255   5.567  19.986  0.00  0.00    +0.000 HD
BRANCH   6   8
ATOM      8  S   UNL     1       4.127   3.673  18.707  0.00  0.00    +0.000 S 
ATOM      9  O   UNL     1       3.042   3.111  17.937  0.00  0.00    +0.000 OA
ATOM     10  O   UNL     1       4.854   2.896  19.682  0.00  0.00    +0.000 OA
BRANCH   8  17
ATOM     11  C   UNL     1       6.732   5.483  19.425  0.00  0.00    +0.000 C 
ATOM     12  C   UNL     1       6.447   5.107  17.994  0.00  0.00    +0.000 A 
ATOM     13  C   UNL     1       7.351   5.572  17.017  0.00  0.00    +0.000 A 
ATOM     14  C   UNL     1       7.190   5.252  15.669  0.00  0.00    +0.000 A 
ATOM     15  C   UNL     1       6.112   4.456  15.270  0.00  0.00    +0.000 A 
ATOM     16  C   UNL     1       5.189   3.990  16.212  0.00  0.00    +0.000 A 
ATOM     17  C   UNL     1       5.347   4.326  17.569  0.00  0.00    +0.000 A 
BRANCH  15  18
ATOM     18  N   UNL     1       5.944   4.115  13.852  0.00  0.00    +0.000 N 
ATOM     19  O   UNL     1       4.830   3.712  13.486  0.00  0.00    +0.000 OA
ATOM     20  O   UNL     1       6.927   4.238  13.110  0.00  0.00    +0.000 OA
ENDBRANCH  15  18
ENDBRANCH   8  17
ENDBRANCH   6   8
ENDBRANCH   1   6
BRANCH   4  21
ATOM     21  C   UNL     1       1.004   8.747  18.549  0.00  0.00    +0.000 C 
BRANCH  21  22
ATOM     22  C   UNL     1       0.440   9.817  19.427  0.00  0.00    +0.000 A 
ATOM     23  C   UNL     1       1.028  10.363  20.588  0.00  0.00    +0.000 A 
ATOM     24  N   UNL     1       0.293  11.316  21.158  0.00  0.00    +0.000 NA
ATOM     25  N   UNL     1      -0.796  11.435  20.362  0.00  0.00    +0.000 N 
ATOM     26  C   UNL     1      -1.867  12.317  20.520  0.00  0.00    +0.000 A 
ATOM     27  C   UNL     1      -2.865  12.341  19.619  0.00  0.00    +0.000 A 
ATOM     28  C   UNL     1      -2.798  11.435  18.478  0.00  0.00    +0.000 A 
ATOM     29  C   UNL     1      -1.784  10.558  18.332  0.00  0.00    +0.000 A 
ATOM     30  C   UNL     1      -0.731  10.536  19.293  0.00  0.00    +0.000 A 
BRANCH  28  31
ATOM     31  C   UNL     1      -3.909  11.476  17.442  0.00  0.00    +0.000 C 
ATOM     32  N   UNL     1      -4.831  11.510  16.582  0.00  0.00    +0.000 NA
ENDBRANCH  28  31
ENDBRANCH  21  22
ENDBRANCH   4  21
TORSDOF 7
ENDMDL
MODEL 4
REMARK VINA RESULT:      -7.5      3.789      9.483
REMARK  Name = 
REMARK  8 active torsions:
REMARK  status: ('A' for Active; 'I' for Inactive)
REMARK    1  A    between atoms: C_1  and  C_2
REMARK    2  A    between atoms: C_5  and  N_6
REMARK    3  A    between atoms: C_10  and  S_11
REMARK    4  A    between atoms: S_11  and  N_14
REMARK    5  A    between atoms: N_14  and  C_15
REMARK    6  A    between atoms: N_18  and  C_19
REMARK    7  A    between atoms: C_19  and  C_20
REMARK    8  A    between atoms: C_26  and  C_27
REMARK                            x       y       z     vdW  Elec       q    Type
REMARK                         _______ _______ _______ _____ _____    ______ ____
ROOT
ATOM      1  C   UNL     1       2.237   6.988  18.394  0.00  0.00    +0.000 C 
ATOM      2  C   UNL     1       2.536   5.823  19.328  0.00  0.00    +0.000 C 
ATOM      3  C   UNL     1       4.052   5.751  19.369  0.00  0.00    +0.000 C 
ATOM      4  N   UNL     1       4.500   6.157  18.031  0.00  0.00    +0.000 NA
ATOM      5  C   UNL     1       3.563   7.227  17.642  0.00  0.00    +0.000 C 
ENDROOT
BRANCH   1   6
ATOM      6  N   UNL     1       1.884   8.234  19.098  0.00  0.00    +0.000 NA
ATOM      7  H   UNL     1       1.387   8.096  19.970  0.00  0.00    +0.000 HD
BRANCH   6   8
ATOM      8  S   UNL     1       1.433   9.610  18.254  0.00  0.00    +0.000 S 
ATOM      9  O   UNL     1       0.263   9.283  17.471  0.00  0.00    +0.000 OA
ATOM     10  O   UNL     1       2.621  10.166  17.653  0.00  0.00    +0.000 OA
BRANCH   8  17
ATOM     11  C   UNL     1       1.450  12.860  18.154  0.00  0.00    +0.000 C 
ATOM     12  C   UNL     1       0.993  12.147  19.400  0.00  0.00    +0.000 A 
ATOM     13  C   UNL     1       0.584  12.950  20.485  0.00  0.00    +0.000 A 
ATOM     14  C   UNL     1       0.116  12.383  21.671  0.00  0.00    +0.000 A 
ATOM     15  C   UNL     1       0.049  10.993  21.795  0.00  0.00    +0.000 A 
ATOM     16  C   UNL     1       0.460  10.167  20.743  0.00  0.00    +0.000 A 
ATOM     17  C   UNL     1       0.944  10.742  19.554  0.00  0.00    +0.000 A 
BRANCH  15  18
ATOM     18  N   UNL     1      -0.448  10.396  23.041  0.00  0.00    +0.000 N 
ATOM     19  O   UNL     1      -1.622  10.630  23.362  0.00  0.00    +0.000 OA
ATOM     20  O   UNL     1       0.338   9.705  23.701  0.00  0.00    +0.000 OA
ENDBRANCH  15  18
ENDBRANCH   8  17
ENDBRANCH   6   8
ENDBRANCH   1   6
BRANCH   4  21
ATOM     21  C   UNL     1       4.476   5.031  17.080  0.00  0.00    +0.000 C 
BRANCH  21  22
ATOM     22  C   UNL     1       5.662   5.104  16.175  0.00  0.00    +0.000 A 
ATOM     23  C   UNL     1       6.961   5.546  16.508  0.00  0.00    +0.000 A 
ATOM     24  N   UNL     1       7.819   5.488  15.491  0.00  0.00    +0.000 NA
ATOM     25  N   UNL     1       7.100   4.979  14.462  0.00  0.00    +0.000 N 
ATOM     26  C   UNL     1       7.552   4.706  13.169  0.00  0.00    +0.000 A 
ATOM     27  C   UNL     1       6.721   4.164  12.260  0.00  0.00    +0.000 A 
ATOM     28  C   UNL     1       5.350   3.864  12.658  0.00  0.00    +0.000 A 
ATOM     29  C   UNL     1       4.897   4.152  13.894  0.00  0.00    +0.000 A 
ATOM     30  C   UNL     1       5.781   4.730  14.851  0.00  0.00    +0.000 A 
BRANCH  28  31
ATOM     31  C   UNL     1       4.416   3.226  11.644  0.00  0.00    +0.000 C 
ATOM     32  N   UNL     1       3.639   2.697  10.802  0.00  0.00    +0.000 NA
ENDBRANCH  28  31
ENDBRANCH  21  22
ENDBRANCH   4  21
TORSDOF 7
ENDMDL
MODEL 5
REMARK VINA RESULT:      -7.5      5.330     10.477
REMARK  Name = 
REMARK  8 active torsions:
REMARK  status: ('A' for Active; 'I' for Inactive)
REMARK    1  A    between atoms: C_1  and  C_2
REMARK    2  A    between atoms: C_5  and  N_6
REMARK    3  A    between atoms: C_10  and  S_11
REMARK    4  A    between atoms: S_11  and  N_14
REMARK    5  A    between atoms: N_14  and  C_15
REMARK    6  A    between atoms: N_18  and  C_19
REMARK    7  A    between atoms: C_19  and  C_20
REMARK    8  A    between atoms: C_26  and  C_27
REMARK                            x       y       z     vdW  Elec       q    Type
REMARK                         _______ _______ _______ _____ _____    ______ ____
ROOT
ATOM      1  C   UNL     1       1.279  10.084  19.857  0.00  0.00    +0.000 C 
ATOM      2  C   UNL     1       1.241  10.380  18.364  0.00  0.00    +0.000 C 
ATOM      3  C   UNL     1       1.110   9.015  17.712  0.00  0.00    +0.000 C 
ATOM      4  N   UNL     1       1.861   8.094  18.575  0.00  0.00    +0.000 NA
ATOM      5  C   UNL     1       1.592   8.575  19.943  0.00  0.00    +0.000 C 
ENDROOT
BRANCH   1   6
ATOM      6  N   UNL     1      -0.007  10.319  20.538  0.00  0.00    +0.000 NA
ATOM      7  H   UNL     1      -0.812  10.322  19.923  0.00  0.00    +0.000 HD
BRANCH   6   8
ATOM      8  S   UNL     1      -0.121  11.375  21.835  0.00  0.00    +0.000 S 
ATOM      9  O   UNL     1       0.815  12.452  21.610  0.00  0.00    +0.000 OA
ATOM     10  O   UNL     1      -0.104  10.589  23.045  0.00  0.00    +0.000 OA
BRANCH   8  17
ATOM     11  C   UNL     1      -1.571  12.471  19.138  0.00  0.00    +0.000 C 
ATOM     12  C   UNL     1      -2.313  12.482  20.449  0.00  0.00    +0.000 A 
ATOM     13  C   UNL     1      -3.632  12.978  20.435  0.00  0.00    +0.000 A 
ATOM     14  C   UNL     1      -4.411  13.001  21.592  0.00  0.00    +0.000 A 
ATOM     15  C   UNL     1      -3.880  12.525  22.793  0.00  0.00    +0.000 A 
ATOM     16  C   UNL     1      -2.569  12.039  22.845  0.00  0.00    +0.000 A 
ATOM     17  C   UNL     1      -1.782  12.030  21.680  0.00  0.00    +0.000 A 
BRANCH  15  18
ATOM     18  N   UNL     1      -4.701  12.544  24.011  0.00  0.00    +0.000 N 
ATOM     19  O   UNL     1      -4.120  12.723  25.092  0.00  0.00    +0.000 OA
ATOM     20  O   UNL     1      -5.919  12.369  23.886  0.00  0.00    +0.000 OA
ENDBRANCH  15  18
ENDBRANCH   8  17
ENDBRANCH   6   8
ENDBRANCH   1   6
BRANCH   4  21
ATOM     21  C   UNL     1       3.301   8.100  18.261  0.00  0.00    +0.000 C 
BRANCH  21  22
ATOM     22  C   UNL     1       3.722   6.751  17.777  0.00  0.00    +0.000 A 
ATOM     23  C   UNL     1       4.484   6.460  16.625  0.00  0.00    +0.000 A 
ATOM     24  N   UNL     1       4.714   5.160  16.454  0.00  0.00    +0.000 NA
ATOM     25  N   UNL     1       4.122   4.563  17.517  0.00  0.00    +0.000 N 
ATOM     26  C   UNL     1       4.094   3.198  17.811  0.00  0.00    +0.000 A 
ATOM     27  C   UNL     1       3.491   2.758  18.931  0.00  0.00    +0.000 A 
ATOM     28  C   UNL     1       2.880   3.735  19.825  0.00  0.00    +0.000 A 
ATOM     29  C   UNL     1       2.877   5.051  19.534  0.00  0.00    +0.000 A 
ATOM     30  C   UNL     1       3.513   5.510  18.344  0.00  0.00    +0.000 A 
BRANCH  28  31
ATOM     31  C   UNL     1       2.223   3.247  21.105  0.00  0.00    +0.000 C 
ATOM     32  N   UNL     1       1.677   2.841  22.167  0.00  0.00    +0.000 NA
ENDBRANCH  28  31
ENDBRANCH  21  22
ENDBRANCH   4  21
TORSDOF 7
ENDMDL
MODEL 6
REMARK VINA RESULT:      -7.5      6.003     10.642
REMARK  Name = 
REMARK  8 active torsions:
REMARK  status: ('A' for Active; 'I' for Inactive)
REMARK    1  A    between atoms: C_1  and  C_2
REMARK    2  A    between atoms: C_5  and  N_6
REMARK    3  A    between atoms: C_10  and  S_11
REMARK    4  A    between atoms: S_11  and  N_14
REMARK    5  A    between atoms: N_14  and  C_15
REMARK    6  A    between atoms: N_18  and  C_19
REMARK    7  A    between atoms: C_19  and  C_20
REMARK    8  A    between atoms: C_26  and  C_27
REMARK                            x       y       z     vdW  Elec       q    Type
REMARK                         _______ _______ _______ _____ _____    ______ ____
ROOT
ATOM      1  C   UNL     1      -2.268  12.342  21.961  0.00  0.00    +0.000 C 
ATOM      2  C   UNL     1      -1.090  12.775  22.823  0.00  0.00    +0.000 C 
ATOM      3  C   UNL     1       0.028  13.037  21.830  0.00  0.00    +0.000 C 
ATOM      4  N   UNL     1      -0.171  12.063  20.748  0.00  0.00    +0.000 NA
ATOM      5  C   UNL     1      -1.636  11.978  20.601  0.00  0.00    +0.000 C 
ENDROOT
BRANCH   1   6
ATOM      6  N   UNL     1      -3.255  13.411  21.731  0.00  0.00    +0.000 NA
ATOM      7  H   UNL     1      -2.871  14.349  21.754  0.00  0.00    +0.000 HD
BRANCH   6   8
ATOM      8  S   UNL     1      -4.820  13.289  22.320  0.00  0.00    +0.000 S 
ATOM      9  O   UNL     1      -5.374  14.622  22.380  0.00  0.00    +0.000 OA
ATOM     10  O   UNL     1      -4.789  12.423  23.474  0.00  0.00    +0.000 OA
BRANCH   8  17
ATOM     11  C   UNL     1      -7.810  12.017  22.439  0.00  0.00    +0.000 C 
ATOM     12  C   UNL     1      -6.979  11.870  21.191  0.00  0.00    +0.000 A 
ATOM     13  C   UNL     1      -7.559  11.172  20.113  0.00  0.00    +0.000 A 
ATOM     14  C   UNL     1      -6.880  11.010  18.904  0.00  0.00    +0.000 A 
ATOM     15  C   UNL     1      -5.599  11.546  18.753  0.00  0.00    +0.000 A 
ATOM     16  C   UNL     1      -4.989  12.233  19.808  0.00  0.00    +0.000 A 
ATOM     17  C   UNL     1      -5.671  12.382  21.029  0.00  0.00    +0.000 A 
BRANCH  15  18
ATOM     18  N   UNL     1      -4.886  11.380  17.480  0.00  0.00    +0.000 N 
ATOM     19  O   UNL     1      -5.138  12.185  16.571  0.00  0.00    +0.000 OA
ATOM     20  O   UNL     1      -4.086  10.441  17.387  0.00  0.00    +0.000 OA
ENDBRANCH  15  18
ENDBRANCH   8  17
ENDBRANCH   6   8
ENDBRANCH   1   6
BRANCH   4  21
ATOM     21  C   UNL     1       0.427  10.756  21.071  0.00  0.00    +0.000 C 
BRANCH  21  22
ATOM     22  C   UNL     1       1.073  10.178  19.854  0.00  0.00    +0.000 A 
ATOM     23  C   UNL     1       1.416  10.860  18.667  0.00  0.00    +0.000 A 
ATOM     24  N   UNL     1       1.993  10.082  17.754  0.00  0.00    +0.000 NA
ATOM     25  N   UNL     1       2.064   8.861  18.337  0.00  0.00    +0.000 N 
ATOM     26  C   UNL     1       2.607   7.695  17.793  0.00  0.00    +0.000 A 
ATOM     27  C   UNL     1       2.637   6.560  18.515  0.00  0.00    +0.000 A 
ATOM     28  C   UNL     1       2.100   6.579  19.871  0.00  0.00    +0.000 A 
ATOM     29  C   UNL     1       1.547   7.692  20.394  0.00  0.00    +0.000 A 
ATOM     30  C   UNL     1       1.515   8.890  19.622  0.00  0.00    +0.000 A 
BRANCH  28  31
ATOM     31  C   UNL     1       2.156   5.307  20.700  0.00  0.00    +0.000 C 
ATOM     32  N   UNL     1       2.203   4.252  21.389  0.00  0.00    +0.000 NA
ENDBRANCH  28  31
ENDBRANCH  21  22
ENDBRANCH   4  21
TORSDOF 7
ENDMDL
MODEL 7
REMARK VINA RESULT:      -7.5      4.098      8.781
REMARK  Name = 
REMARK  8 active torsions:
REMARK  status: ('A' for Active; 'I' for Inactive)
REMARK    1  A    between atoms: C_1  and  C_2
REMARK    2  A    between atoms: C_5  and  N_6
REMARK    3  A    between atoms: C_10  and  S_11
REMARK    4  A    between atoms: S_11  and  N_14
REMARK    5  A    between atoms: N_14  and  C_15
REMARK    6  A    between atoms: N_18  and  C_19
REMARK    7  A    between atoms: C_19  and  C_20
REMARK    8  A    between atoms: C_26  and  C_27
REMARK                            x       y       z     vdW  Elec       q    Type
REMARK                         _______ _______ _______ _____ _____    ______ ____
ROOT
ATOM      1  C   UNL     1       1.273   7.515  20.606  0.00  0.00    +0.000 C 
ATOM      2  C   UNL     1       1.141   6.064  21.049  0.00  0.00    +0.000 C 
ATOM      3  C   UNL     1       2.499   5.454  20.751  0.00  0.00    +0.000 C 
ATOM      4  N   UNL     1       2.980   6.137  19.544  0.00  0.00    +0.000 NA
ATOM      5  C   UNL     1       2.528   7.531  19.709  0.00  0.00    +0.000 C 
ENDROOT
BRANCH   1   6
ATOM      6  N   UNL     1       1.500   8.453  21.720  0.00  0.00    +0.000 NA
ATOM      7  H   UNL     1       2.244   8.182  22.352  0.00  0.00    +0.000 HD
BRANCH   6   8
ATOM      8  S   UNL     1       0.222   9.250  22.457  0.00  0.00    +0.000 S 
ATOM      9  O   UNL     1       0.624   9.574  23.807  0.00  0.00    +0.000 OA
ATOM     10  O   UNL     1      -0.981   8.504  22.177  0.00  0.00    +0.000 OA
BRANCH   8  17
ATOM     11  C   UNL     1      -1.833  11.719  22.961  0.00  0.00    +0.000 C 
ATOM     12  C   UNL     1      -0.837  11.787  21.833  0.00  0.00    +0.000 A 
ATOM     13  C   UNL     1      -0.848  12.950  21.036  0.00  0.00    +0.000 A 
ATOM     14  C   UNL     1       0.056  13.120  19.987  0.00  0.00    +0.000 A 
ATOM     15  C   UNL     1       0.994  12.122  19.714  0.00  0.00    +0.000 A 
ATOM     16  C   UNL     1       1.024  10.949  20.476  0.00  0.00    +0.000 A 
ATOM     17  C   UNL     1       0.102  10.775  21.523  0.00  0.00    +0.000 A 
BRANCH  15  18
ATOM     18  N   UNL     1       1.950  12.302  18.613  0.00  0.00    +0.000 N 
ATOM     19  O   UNL     1       2.337  13.454  18.371  0.00  0.00    +0.000 OA
ATOM     20  O   UNL     1       2.301  11.294  17.986  0.00  0.00    +0.000 OA
ENDBRANCH  15  18
ENDBRANCH   8  17
ENDBRANCH   6   8
ENDBRANCH   1   6
BRANCH   4  21
ATOM     21  C   UNL     1       2.441   5.525  18.316  0.00  0.00    +0.000 C 
BRANCH  21  22
ATOM     22  C   UNL     1       3.541   4.866  17.551  0.00  0.00    +0.000 A 
ATOM     23  C   UNL     1       3.478   3.637  16.858  0.00  0.00    +0.000 A 
ATOM     24  N   UNL     1       4.620   3.308  16.256  0.00  0.00    +0.000 NA
ATOM     25  N   UNL     1       5.460   4.336  16.523  0.00  0.00    +0.000 N 
ATOM     26  C   UNL     1       6.783   4.479  16.098  0.00  0.00    +0.000 A 
ATOM     27  C   UNL     1       7.482   5.583  16.418  0.00  0.00    +0.000 A 
ATOM     28  C   UNL     1       6.828   6.621  17.206  0.00  0.00    +0.000 A 
ATOM     29  C   UNL     1       5.561   6.479  17.646  0.00  0.00    +0.000 A 
ATOM     30  C   UNL     1       4.827   5.305  17.307  0.00  0.00    +0.000 A 
BRANCH  28  31
ATOM     31  C   UNL     1       7.604   7.882  17.546  0.00  0.00    +0.000 C 
ATOM     32  N   UNL     1       8.249   8.929  17.828  0.00  0.00    +0.000 NA
ENDBRANCH  28  31
ENDBRANCH  21  22
ENDBRANCH   4  21
TORSDOF 7
ENDMDL
MODEL 8
REMARK VINA RESULT:      -7.4      1.299      1.495
REMARK  Name = 
REMARK  8 active torsions:
REMARK  status: ('A' for Active; 'I' for Inactive)
REMARK    1  A    between atoms: C_1  and  C_2
REMARK    2  A    between atoms: C_5  and  N_6
REMARK    3  A    between atoms: C_10  and  S_11
REMARK    4  A    between atoms: S_11  and  N_14
REMARK    5  A    between atoms: N_14  and  C_15
REMARK    6  A    between atoms: N_18  and  C_19
REMARK    7  A    between atoms: C_19  and  C_20
REMARK    8  A    between atoms: C_26  and  C_27
REMARK                            x       y       z     vdW  Elec       q    Type
REMARK                         _______ _______ _______ _____ _____    ______ ____
ROOT
ATOM      1  C   UNL     1       2.573   6.086  18.495  0.00  0.00    +0.000 C 
ATOM      2  C   UNL     1       1.925   7.295  17.833  0.00  0.00    +0.000 C 
ATOM      3  C   UNL     1       2.176   8.436  18.802  0.00  0.00    +0.000 C 
ATOM      4  N   UNL     1       2.133   7.831  20.140  0.00  0.00    +0.000 NA
ATOM      5  C   UNL     1       2.772   6.513  19.964  0.00  0.00    +0.000 C 
ENDROOT
BRANCH   1   6
ATOM      6  N   UNL     1       3.894   5.746  17.939  0.00  0.00    +0.000 NA
ATOM      7  H   UNL     1       4.301   6.466  17.353  0.00  0.00    +0.000 HD
BRANCH   6   8
ATOM      8  S   UNL     1       4.259   4.180  17.465  0.00  0.00    +0.000 S 
ATOM      9  O   UNL     1       3.068   3.607  16.881  0.00  0.00    +0.000 OA
ATOM     10  O   UNL     1       4.958   3.542  18.555  0.00  0.00    +0.000 OA
BRANCH   8  17
ATOM     11  C   UNL     1       7.128   5.696  17.682  0.00  0.00    +0.000 C 
ATOM     12  C   UNL     1       6.689   5.101  16.370  0.00  0.00    +0.000 A 
ATOM     13  C   UNL     1       7.570   5.235  15.278  0.00  0.00    +0.000 A 
ATOM     14  C   UNL     1       7.266   4.691  14.029  0.00  0.00    +0.000 A 
ATOM     15  C   UNL     1       6.066   3.998  13.850  0.00  0.00    +0.000 A 
ATOM     16  C   UNL     1       5.163   3.859  14.909  0.00  0.00    +0.000 A 
ATOM     17  C   UNL     1       5.466   4.421  16.162  0.00  0.00    +0.000 A 
BRANCH  15  18
ATOM     18  N   UNL     1       5.747   3.421  12.537  0.00  0.00    +0.000 N 
ATOM     19  O   UNL     1       6.662   2.853  11.922  0.00  0.00    +0.000 OA
ATOM     20  O   UNL     1       4.590   3.547  12.119  0.00  0.00    +0.000 OA
ENDBRANCH  15  18
ENDBRANCH   8  17
ENDBRANCH   6   8
ENDBRANCH   1   6
BRANCH   4  21
ATOM     21  C   UNL     1       0.753   7.712  20.643  0.00  0.00    +0.000 C 
BRANCH  21  22
ATOM     22  C   UNL     1       0.251   9.052  21.071  0.00  0.00    +0.000 A 
ATOM     23  C   UNL     1       0.486   9.694  22.306  0.00  0.00    +0.000 A 
ATOM     24  N   UNL     1      -0.085  10.894  22.398  0.00  0.00    +0.000 NA
ATOM     25  N   UNL     1      -0.694  11.079  21.202  0.00  0.00    +0.000 N 
ATOM     26  C   UNL     1      -1.422  12.197  20.788  0.00  0.00    +0.000 A 
ATOM     27  C   UNL     1      -1.941  12.246  19.548  0.00  0.00    +0.000 A 
ATOM     28  C   UNL     1      -1.722  11.116  18.652  0.00  0.00    +0.000 A 
ATOM     29  C   UNL     1      -1.047  10.020  19.053  0.00  0.00    +0.000 A 
ATOM     30  C   UNL     1      -0.502   9.973  20.370  0.00  0.00    +0.000 A 
BRANCH  28  31
ATOM     31  C   UNL     1      -2.283  11.179  17.242  0.00  0.00    +0.000 C 
ATOM     32  N   UNL     1      -2.748  11.232  16.070  0.00  0.00    +0.000 NA
ENDBRANCH  28  31
ENDBRANCH  21  22
ENDBRANCH   4  21
TORSDOF 7
ENDMDL
MODEL 9
REMARK VINA RESULT:      -7.4      2.840      3.912
REMARK  Name = 
REMARK  8 active torsions:
REMARK  status: ('A' for Active; 'I' for Inactive)
REMARK    1  A    between atoms: C_1  and  C_2
REMARK    2  A    between atoms: C_5  and  N_6
REMARK    3  A    between atoms: C_10  and  S_11
REMARK    4  A    between atoms: S_11  and  N_14
REMARK    5  A    between atoms: N_14  and  C_15
REMARK    6  A    between atoms: N_18  and  C_19
REMARK    7  A    between atoms: C_19  and  C_20
REMARK    8  A    between atoms: C_26  and  C_27
REMARK                            x       y       z     vdW  Elec       q    Type
REMARK                         _______ _______ _______ _____ _____    ______ ____
ROOT
ATOM      1  C   UNL     1       1.513   7.814  19.021  0.00  0.00    +0.000 C 
ATOM      2  C   UNL     1       1.825   8.536  17.717  0.00  0.00    +0.000 C 
ATOM      3  C   UNL     1       2.101   9.969  18.136  0.00  0.00    +0.000 C 
ATOM      4  N   UNL     1       1.218  10.219  19.283  0.00  0.00    +0.000 NA
ATOM      5  C   UNL     1       1.217   8.946  20.027  0.00  0.00    +0.000 C 
ENDROOT
BRANCH   1   6
ATOM      6  N   UNL     1       2.644   7.027  19.545  0.00  0.00    +0.000 NA
ATOM      7  H   UNL     1       3.543   7.490  19.479  0.00  0.00    +0.000 HD
BRANCH   6   8
ATOM      8  S   UNL     1       2.706   5.363  19.353  0.00  0.00    +0.000 S 
ATOM      9  O   UNL     1       1.533   4.961  18.609  0.00  0.00    +0.000 OA
ATOM     10  O   UNL     1       3.033   4.784  20.633  0.00  0.00    +0.000 OA
BRANCH   8  17
ATOM     11  C   UNL     1       3.175   3.036  17.130  0.00  0.00    +0.000 C 
ATOM     12  C   UNL     1       4.241   4.074  17.370  0.00  0.00    +0.000 A 
ATOM     13  C   UNL     1       5.415   3.978  16.596  0.00  0.00    +0.000 A 
ATOM     14  C   UNL     1       6.446   4.909  16.723  0.00  0.00    +0.000 A 
ATOM     15  C   UNL     1       6.320   5.960  17.636  0.00  0.00    +0.000 A 
ATOM     16  C   UNL     1       5.174   6.076  18.430  0.00  0.00    +0.000 A 
ATOM     17  C   UNL     1       4.143   5.128  18.308  0.00  0.00    +0.000 A 
BRANCH  15  18
ATOM     18  N   UNL     1       7.403   6.944  17.768  0.00  0.00    +0.000 N 
ATOM     19  O   UNL     1       8.193   6.805  18.713  0.00  0.00    +0.000 OA
ATOM     20  O   UNL     1       7.454   7.858  16.935  0.00  0.00    +0.000 OA
ENDBRANCH  15  18
ENDBRANCH   8  17
ENDBRANCH   6   8
ENDBRANCH   1   6
BRANCH   4  21
ATOM     21  C   UNL     1      -0.137  10.609  18.856  0.00  0.00    +0.000 C 
BRANCH  21  22
ATOM     22  C   UNL     1      -0.364  12.058  19.144  0.00  0.00    +0.000 A 
ATOM     23  C   UNL     1       0.095  13.158  18.387  0.00  0.00    +0.000 A 
ATOM     24  N   UNL     1      -0.275  14.336  18.885  0.00  0.00    +0.000 NA
ATOM     25  N   UNL     1      -1.013  14.032  19.980  0.00  0.00    +0.000 N 
ATOM     26  C   UNL     1      -1.646  14.925  20.846  0.00  0.00    +0.000 A 
ATOM     27  C   UNL     1      -2.378  14.466  21.877  0.00  0.00    +0.000 A 
ATOM     28  C   UNL     1      -2.499  13.024  22.061  0.00  0.00    +0.000 A 
ATOM     29  C   UNL     1      -1.867  12.155  21.247  0.00  0.00    +0.000 A 
ATOM     30  C   UNL     1      -1.089  12.648  20.159  0.00  0.00    +0.000 A 
BRANCH  28  31
ATOM     31  C   UNL     1      -3.347  12.499  23.207  0.00  0.00    +0.000 C 
ATOM     32  N   UNL     1      -4.051  12.064  24.159  0.00  0.00    +0.000 NA
ENDBRANCH  28  31
ENDBRANCH  21  22
ENDBRANCH   4  21
TORSDOF 7
ENDMDL
