MODEL 1
REMARK VINA RESULT:      -7.3      0.000      0.000
REMARK  Name = 
REMARK  9 active torsions:
REMARK  status: ('A' for Active; 'I' for Inactive)
REMARK    1  A    between atoms: C_1  and  C_2
REMARK    2  A    between atoms: C_2  and  N_3
REMARK    3  A    between atoms: N_3  and  C_4
REMARK    4  A    between atoms: C_4  and  C_5
REMARK    5  A    between atoms: C_5  and  C_6
REMARK    6  A    between atoms: C_14  and  C_15
REMARK    7  A    between atoms: N_17  and  C_18
REMARK    8  A    between atoms: C_18  and  C_19
REMARK    9  A    between atoms: C_23  and  N_24
REMARK                            x       y       z     vdW  Elec       q    Type
REMARK                         _______ _______ _______ _____ _____    ______ ____
ROOT
ATOM      1  N   UNL     1       3.852   4.382  18.227  0.00  0.00    +0.000 N 
ATOM      2  C   UNL     1       5.004   4.861  17.614  0.00  0.00    +0.000 A 
ATOM      3  N   UNL     1       5.814   5.668  18.308  0.00  0.00    +0.000 NA
ATOM      4  C   UNL     1       6.925   6.093  17.673  0.00  0.00    +0.000 A 
ATOM      5  C   UNL     1       7.229   5.794  16.379  0.00  0.00    +0.000 A 
ATOM      6  C   UNL     1       6.331   5.008  15.706  0.00  0.00    +0.000 A 
ATOM      7  N   UNL     1       5.260   4.501  16.337  0.00  0.00    +0.000 NA
ENDROOT
BRANCH   6   8
ATOM      8  N   UNL     1       6.598   4.706  14.382  0.00  0.00    +0.000 N 
ATOM      9  C   UNL     1       7.846   5.140  13.750  0.00  0.00    +0.000 C 
ATOM     10  C   UNL     1       7.567   5.233  12.232  0.00  0.00    +0.000 C 
ATOM     11  O   UNL     1       7.080   3.987  11.689  0.00  0.00    +0.000 OA
ATOM     12  C   UNL     1       5.887   3.558  12.372  0.00  0.00    +0.000 C 
ATOM     13  C   UNL     1       6.148   3.398  13.875  0.00  0.00    +0.000 C 
ENDBRANCH   6   8
BRANCH   4  14
ATOM     14  C   UNL     1       7.885   6.949  18.431  0.00  0.00    +0.000 C 
ATOM     15  O   UNL     1       8.505   6.507  19.393  0.00  0.00    +0.000 OA
ATOM     16  N   UNL     1       8.019   8.242  17.975  0.00  0.00    +0.000 N 
ATOM     17  H   UNL     1       7.418   8.536  17.214  0.00  0.00    +0.000 HD
BRANCH  16  18
ATOM     18  C   UNL     1       8.866   9.174  18.669  0.00  0.00    +0.000 C 
BRANCH  18  19
ATOM     19  C   UNL     1       8.842  10.495  17.976  0.00  0.00    +0.000 C 
ATOM     20  C   UNL     1       9.098  11.772  18.739  0.00  0.00    +0.000 C 
ATOM     21  C   UNL     1      10.123  11.263  17.763  0.00  0.00    +0.000 C 
ENDBRANCH  18  19
ENDBRANCH  16  18
ENDBRANCH   4  14
BRANCH   1  23
ATOM     22  C   UNL     1       2.863   2.080  17.991  0.00  0.00    +0.000 C 
ATOM     23  C   UNL     1       2.959   3.509  17.465  0.00  0.00    +0.000 C 
ENDBRANCH   1  23
BRANCH   1  24
ATOM     24  C   UNL     1       3.580   4.790  19.616  0.00  0.00    +0.000 C 
BRANCH  24  25
ATOM     25  C   UNL     1       2.143   5.275  19.865  0.00  0.00    +0.000 C 
BRANCH  25  26
ATOM     26  C   UNL     1       1.937   6.735  19.512  0.00  0.00    +0.000 A 
ATOM     27  C   UNL     1       1.474   7.639  20.480  0.00  0.00    +0.000 A 
ATOM     28  C   UNL     1       1.310   8.993  20.167  0.00  0.00    +0.000 A 
ATOM     29  C   UNL     1       1.603   9.450  18.884  0.00  0.00    +0.000 A 
ATOM     30  C   UNL     1       2.050   8.560  17.912  0.00  0.00    +0.000 A 
ATOM     31  C   UNL     1       2.212   7.205  18.222  0.00  0.00    +0.000 A 
ENDBRANCH  25  26
ENDBRANCH  24  25
ENDBRANCH   1  24
TORSDOF 8
ENDMDL
MODEL 2
REMARK VINA RESULT:      -7.3      2.794      6.932
REMARK  Name = 
REMARK  9 active torsions:
REMARK  status: ('A' for Active; 'I' for Inactive)
REMARK    1  A    between atoms: C_1  and  C_2
REMARK    2  A    between atoms: C_2  and  N_3
REMARK    3  A    between atoms: N_3  and  C_4
REMARK    4  A    between atoms: C_4  and  C_5
REMARK    5  A    between atoms: C_5  and  C_6
REMARK    6  A    between atoms: C_14  and  C_15
REMARK    7  A    between atoms: N_17  and  C_18
REMARK    8  A    between atoms: C_18  and  C_19
REMARK    9  A    between atoms: C_23  and  N_24
REMARK                            x       y       z     vdW  Elec       q    Type
REMARK                         _______ _______ _______ _____ _____    ______ ____
ROOT
ATOM      1  N   UNL     1       6.361   6.627  17.340  0.00  0.00    +0.000 N 
ATOM      2  C   UNL     1       5.008   6.529  17.643  0.00  0.00    +0.000 A 
ATOM      3  N   UNL     1       4.305   7.653  17.822  0.00  0.00    +0.000 NA
ATOM      4  C   UNL     1       2.994   7.503  18.099  0.00  0.00    +0.000 A 
ATOM      5  C   UNL     1       2.377   6.297  18.254  0.00  0.00    +0.000 A 
ATOM      6  C   UNL     1       3.164   5.185  18.111  0.00  0.00    +0.000 A 
ATOM      7  N   UNL     1       4.453   5.302  17.753  0.00  0.00    +0.000 NA
ENDROOT
BRANCH   6   8
ATOM      8  N   UNL     1       2.573   3.946  18.287  0.00  0.00    +0.000 N 
ATOM      9  C   UNL     1       1.117   3.797  18.253  0.00  0.00    +0.000 C 
ATOM     10  C   UNL     1       0.780   2.536  19.082  0.00  0.00    +0.000 C 
ATOM     11  O   UNL     1       1.464   1.362  18.594  0.00  0.00    +0.000 OA
ATOM     12  C   UNL     1       2.890   1.564  18.583  0.00  0.00    +0.000 C 
ATOM     13  C   UNL     1       3.262   2.774  17.718  0.00  0.00    +0.000 C 
ENDBRANCH   6   8
BRANCH   4  14
ATOM     14  C   UNL     1       2.161   8.732  18.250  0.00  0.00    +0.000 C 
ATOM     15  O   UNL     1       2.164   9.609  17.391  0.00  0.00    +0.000 OA
ATOM     16  N   UNL     1       1.406   8.803  19.399  0.00  0.00    +0.000 N 
ATOM     17  H   UNL     1       1.517   8.062  20.081  0.00  0.00    +0.000 HD
BRANCH  16  18
ATOM     18  C   UNL     1       0.617   9.973  19.681  0.00  0.00    +0.000 C 
BRANCH  18  19
ATOM     19  C   UNL     1       0.784  10.365  21.111  0.00  0.00    +0.000 C 
ATOM     20  C   UNL     1      -0.359  10.231  22.087  0.00  0.00    +0.000 C 
ATOM     21  C   UNL     1       0.825   9.309  22.187  0.00  0.00    +0.000 C 
ENDBRANCH  18  19
ENDBRANCH  16  18
ENDBRANCH   4  14
BRANCH   1  23
ATOM     22  C   UNL     1       7.128   4.850  15.732  0.00  0.00    +0.000 C 
ATOM     23  C   UNL     1       7.133   5.400  17.156  0.00  0.00    +0.000 C 
ENDBRANCH   1  23
BRANCH   1  24
ATOM     24  C   UNL     1       6.955   7.971  17.233  0.00  0.00    +0.000 C 
BRANCH  24  25
ATOM     25  C   UNL     1       8.204   8.184  18.104  0.00  0.00    +0.000 C 
BRANCH  25  26
ATOM     26  C   UNL     1       8.551   9.647  18.299  0.00  0.00    +0.000 A 
ATOM     27  C   UNL     1       8.019  10.621  17.441  0.00  0.00    +0.000 A 
ATOM     28  C   UNL     1       8.313  11.976  17.635  0.00  0.00    +0.000 A 
ATOM     29  C   UNL     1       9.144  12.363  18.684  0.00  0.00    +0.000 A 
ATOM     30  C   UNL     1       9.688  11.404  19.532  0.00  0.00    +0.000 A 
ATOM     31  C   UNL     1       9.398  10.050  19.339  0.00  0.00    +0.000 A 
ENDBRANCH  25  26
ENDBRANCH  24  25
ENDBRANCH   1  24
TORSDOF 8
ENDMDL
MODEL 3
REMARK VINA RESULT:      -7.2      2.848      7.104
REMARK  Name = 
REMARK  9 active torsions:
REMARK  status: ('A' for Active; 'I' for Inactive)
REMARK    1  A    between atoms: C_1  and  C_2
REMARK    2  A    between atoms: C_2  and  N_3
REMARK    3  A    between atoms: N_3  and  C_4
REMARK    4  A    between atoms: C_4  and  C_5
REMARK    5  A    between atoms: C_5  and  C_6
REMARK    6  A    between atoms: C_14  and  C_15
REMARK    7  A    between atoms: N_17  and  C_18
REMARK    8  A    between atoms: C_18  and  C_19
REMARK    9  A    between atoms: C_23  and  N_24
REMARK                            x       y       z     vdW  Elec       q    Type
REMARK                         _______ _______ _______ _____ _____    ______ ____
ROOT
ATOM      1  N   UNL     1       6.471   6.665  17.522  0.00  0.00    +0.000 N 
ATOM      2  C   UNL     1       5.105   6.597  17.776  0.00  0.00    +0.000 A 
ATOM      3  N   UNL     1       4.408   7.735  17.854  0.00  0.00    +0.000 NA
ATOM      4  C   UNL     1       3.085   7.613  18.088  0.00  0.00    +0.000 A 
ATOM      5  C   UNL     1       2.451   6.425  18.295  0.00  0.00    +0.000 A 
ATOM      6  C   UNL     1       3.231   5.300  18.257  0.00  0.00    +0.000 A 
ATOM      7  N   UNL     1       4.535   5.384  17.943  0.00  0.00    +0.000 NA
ENDROOT
BRANCH   6   8
ATOM      8  N   UNL     1       2.622   4.079  18.488  0.00  0.00    +0.000 N 
ATOM      9  C   UNL     1       3.364   2.827  18.327  0.00  0.00    +0.000 C 
ATOM     10  C   UNL     1       2.320   1.728  18.022  0.00  0.00    +0.000 C 
ATOM     11  O   UNL     1       1.307   1.638  19.047  0.00  0.00    +0.000 OA
ATOM     12  C   UNL     1       0.638   2.902  19.223  0.00  0.00    +0.000 C 
ATOM     13  C   UNL     1       1.642   4.003  19.586  0.00  0.00    +0.000 C 
ENDBRANCH   6   8
BRANCH   4  14
ATOM     14  C   UNL     1       2.260   8.856  18.126  0.00  0.00    +0.000 C 
ATOM     15  O   UNL     1       2.265   9.650  17.189  0.00  0.00    +0.000 OA
ATOM     16  N   UNL     1       1.506   9.037  19.264  0.00  0.00    +0.000 N 
ATOM     17  H   UNL     1       1.615   8.361  20.011  0.00  0.00    +0.000 HD
BRANCH  16  18
ATOM     18  C   UNL     1       0.724  10.232  19.438  0.00  0.00    +0.000 C 
BRANCH  18  19
ATOM     19  C   UNL     1      -0.710   9.947  19.145  0.00  0.00    +0.000 C 
ATOM     20  C   UNL     1      -1.681  11.070  18.877  0.00  0.00    +0.000 C 
ATOM     21  C   UNL     1      -1.258  10.163  17.756  0.00  0.00    +0.000 C 
ENDBRANCH  18  19
ENDBRANCH  16  18
ENDBRANCH   4  14
BRANCH   1  23
ATOM     22  C   UNL     1       7.249   4.761  16.073  0.00  0.00    +0.000 C 
ATOM     23  C   UNL     1       7.237   5.422  17.449  0.00  0.00    +0.000 C 
ENDBRANCH   1  23
BRANCH   1  24
ATOM     24  C   UNL     1       7.082   7.994  17.352  0.00  0.00    +0.000 C 
BRANCH  24  25
ATOM     25  C   UNL     1       8.324   8.239  18.224  0.00  0.00    +0.000 C 
BRANCH  25  26
ATOM     26  C   UNL     1       8.642   9.709  18.410  0.00  0.00    +0.000 A 
ATOM     27  C   UNL     1       8.150  10.659  17.502  0.00  0.00    +0.000 A 
ATOM     28  C   UNL     1       8.417  12.021  17.685  0.00  0.00    +0.000 A 
ATOM     29  C   UNL     1       9.181  12.439  18.772  0.00  0.00    +0.000 A 
ATOM     30  C   UNL     1       9.686  11.505  19.670  0.00  0.00    +0.000 A 
ATOM     31  C   UNL     1       9.423  10.143  19.488  0.00  0.00    +0.000 A 
ENDBRANCH  25  26
ENDBRANCH  24  25
ENDBRANCH   1  24
TORSDOF 8
ENDMDL
MODEL 4
REMARK VINA RESULT:      -7.1      0.392      1.300
REMARK  Name = 
REMARK  9 active torsions:
REMARK  status: ('A' for Active; 'I' for Inactive)
REMARK    1  A    between atoms: C_1  and  C_2
REMARK    2  A    between atoms: C_2  and  N_3
REMARK    3  A    between atoms: N_3  and  C_4
REMARK    4  A    between atoms: C_4  and  C_5
REMARK    5  A    between atoms: C_5  and  C_6
REMARK    6  A    between atoms: C_14  and  C_15
REMARK    7  A    between atoms: N_17  and  C_18
REMARK    8  A    between atoms: C_18  and  C_19
REMARK    9  A    between atoms: C_23  and  N_24
REMARK                            x       y       z     vdW  Elec       q    Type
REMARK                         _______ _______ _______ _____ _____    ______ ____
ROOT
ATOM      1  N   UNL     1       3.721   4.163  18.355  0.00  0.00    +0.000 N 
ATOM      2  C   UNL     1       4.870   4.641  17.736  0.00  0.00    +0.000 A 
ATOM      3  N   UNL     1       5.704   5.415  18.438  0.00  0.00    +0.000 NA
ATOM      4  C   UNL     1       6.812   5.840  17.797  0.00  0.00    +0.000 A 
ATOM      5  C   UNL     1       7.090   5.572  16.490  0.00  0.00    +0.000 A 
ATOM      6  C   UNL     1       6.168   4.820  15.810  0.00  0.00    +0.000 A 
ATOM      7  N   UNL     1       5.099   4.313  16.445  0.00  0.00    +0.000 NA
ENDROOT
BRANCH   6   8
ATOM      8  N   UNL     1       6.409   4.552  14.474  0.00  0.00    +0.000 N 
ATOM      9  C   UNL     1       5.357   3.996  13.619  0.00  0.00    +0.000 C 
ATOM     10  C   UNL     1       6.069   3.245  12.471  0.00  0.00    +0.000 C 
ATOM     11  O   UNL     1       6.978   4.097  11.740  0.00  0.00    +0.000 OA
ATOM     12  C   UNL     1       7.961   4.674  12.621  0.00  0.00    +0.000 C 
ATOM     13  C   UNL     1       7.286   5.479  13.738  0.00  0.00    +0.000 C 
ENDBRANCH   6   8
BRANCH   4  14
ATOM     14  C   UNL     1       7.798   6.659  18.562  0.00  0.00    +0.000 C 
ATOM     15  O   UNL     1       8.355   6.211  19.560  0.00  0.00    +0.000 OA
ATOM     16  N   UNL     1       8.031   7.924  18.070  0.00  0.00    +0.000 N 
ATOM     17  H   UNL     1       7.477   8.230  17.279  0.00  0.00    +0.000 HD
BRANCH  16  18
ATOM     18  C   UNL     1       8.911   8.825  18.765  0.00  0.00    +0.000 C 
BRANCH  18  19
ATOM     19  C   UNL     1       8.735  10.211  18.244  0.00  0.00    +0.000 C 
ATOM     20  C   UNL     1       9.175  11.404  19.057  0.00  0.00    +0.000 C 
ATOM     21  C   UNL     1       9.936  11.019  17.818  0.00  0.00    +0.000 C 
ENDBRANCH  18  19
ENDBRANCH  16  18
ENDBRANCH   4  14
BRANCH   1  23
ATOM     22  C   UNL     1       2.764   1.861  18.008  0.00  0.00    +0.000 C 
ATOM     23  C   UNL     1       2.802   3.327  17.584  0.00  0.00    +0.000 C 
ENDBRANCH   1  23
BRANCH   1  24
ATOM     24  C   UNL     1       3.479   4.536  19.758  0.00  0.00    +0.000 C 
BRANCH  24  25
ATOM     25  C   UNL     1       2.067   5.078  20.037  0.00  0.00    +0.000 C 
BRANCH  25  26
ATOM     26  C   UNL     1       1.915   6.548  19.702  0.00  0.00    +0.000 A 
ATOM     27  C   UNL     1       2.226   7.016  18.416  0.00  0.00    +0.000 A 
ATOM     28  C   UNL     1       2.060   8.367  18.093  0.00  0.00    +0.000 A 
ATOM     29  C   UNL     1       1.589   9.259  19.053  0.00  0.00    +0.000 A 
ATOM     30  C   UNL     1       1.291   8.809  20.336  0.00  0.00    +0.000 A 
ATOM     31  C   UNL     1       1.458   7.459  20.662  0.00  0.00    +0.000 A 
ENDBRANCH  25  26
ENDBRANCH  24  25
ENDBRANCH   1  24
TORSDOF 8
ENDMDL
MODEL 5
REMARK VINA RESULT:      -7.1      2.820      7.013
REMARK  Name = 
REMARK  9 active torsions:
REMARK  status: ('A' for Active; 'I' for Inactive)
REMARK    1  A    between atoms: C_1  and  C_2
REMARK    2  A    between atoms: C_2  and  N_3
REMARK    3  A    between atoms: N_3  and  C_4
REMARK    4  A    between atoms: C_4  and  C_5
REMARK    5  A    between atoms: C_5  and  C_6
REMARK    6  A    between atoms: C_14  and  C_15
REMARK    7  A    between atoms: N_17  and  C_18
REMARK    8  A    between atoms: C_18  and  C_19
REMARK    9  A    between atoms: C_23  and  N_24
REMARK                            x       y       z     vdW  Elec       q    Type
REMARK                         _______ _______ _______ _____ _____    ______ ____
ROOT
ATOM      1  N   UNL     1       6.578   6.586  17.465  0.00  0.00    +0.000 N 
ATOM      2  C   UNL     1       5.208   6.522  17.693  0.00  0.00    +0.000 A 
ATOM      3  N   UNL     1       4.518   7.664  17.786  0.00  0.00    +0.000 NA
ATOM      4  C   UNL     1       3.191   7.548  17.992  0.00  0.00    +0.000 A 
ATOM      5  C   UNL     1       2.543   6.360  18.159  0.00  0.00    +0.000 A 
ATOM      6  C   UNL     1       3.316   5.230  18.107  0.00  0.00    +0.000 A 
ATOM      7  N   UNL     1       4.625   5.310  17.820  0.00  0.00    +0.000 NA
ENDROOT
BRANCH   6   8
ATOM      8  N   UNL     1       2.692   4.009  18.298  0.00  0.00    +0.000 N 
ATOM      9  C   UNL     1       1.242   3.876  18.151  0.00  0.00    +0.000 C 
ATOM     10  C   UNL     1       0.816   2.666  19.014  0.00  0.00    +0.000 C 
ATOM     11  O   UNL     1       1.519   1.459  18.647  0.00  0.00    +0.000 OA
ATOM     12  C   UNL     1       2.944   1.643  18.745  0.00  0.00    +0.000 C 
ATOM     13  C   UNL     1       3.406   2.800  17.851  0.00  0.00    +0.000 C 
ENDBRANCH   6   8
BRANCH   4  14
ATOM     14  C   UNL     1       2.374   8.796  18.045  0.00  0.00    +0.000 C 
ATOM     15  O   UNL     1       2.519   9.684  17.209  0.00  0.00    +0.000 OA
ATOM     16  N   UNL     1       1.466   8.871  19.077  0.00  0.00    +0.000 N 
ATOM     17  H   UNL     1       1.462   8.119  19.755  0.00  0.00    +0.000 HD
BRANCH  16  18
ATOM     18  C   UNL     1       0.673  10.057  19.264  0.00  0.00    +0.000 C 
BRANCH  18  19
ATOM     19  C   UNL     1      -0.392  10.126  18.221  0.00  0.00    +0.000 C 
ATOM     20  C   UNL     1      -1.850  10.138  18.608  0.00  0.00    +0.000 C 
ATOM     21  C   UNL     1      -1.211  11.382  18.057  0.00  0.00    +0.000 C 
ENDBRANCH  18  19
ENDBRANCH  16  18
ENDBRANCH   4  14
BRANCH   1  23
ATOM     22  C   UNL     1       7.336   4.690  15.995  0.00  0.00    +0.000 C 
ATOM     23  C   UNL     1       7.336   5.339  17.376  0.00  0.00    +0.000 C 
ENDBRANCH   1  23
BRANCH   1  24
ATOM     24  C   UNL     1       7.203   7.913  17.339  0.00  0.00    +0.000 C 
BRANCH  24  25
ATOM     25  C   UNL     1       8.332   8.183  18.347  0.00  0.00    +0.000 C 
BRANCH  25  26
ATOM     26  C   UNL     1       8.664   9.655  18.490  0.00  0.00    +0.000 A 
ATOM     27  C   UNL     1       9.495  10.095  19.532  0.00  0.00    +0.000 A 
ATOM     28  C   UNL     1       9.828  11.449  19.651  0.00  0.00    +0.000 A 
ATOM     29  C   UNL     1       9.329  12.371  18.733  0.00  0.00    +0.000 A 
ATOM     30  C   UNL     1       8.493  11.948  17.705  0.00  0.00    +0.000 A 
ATOM     31  C   UNL     1       8.156  10.595  17.585  0.00  0.00    +0.000 A 
ENDBRANCH  25  26
ENDBRANCH  24  25
ENDBRANCH   1  24
TORSDOF 8
ENDMDL
MODEL 6
REMARK VINA RESULT:      -7.0      3.138      7.161
REMARK  Name = 
REMARK  9 active torsions:
REMARK  status: ('A' for Active; 'I' for Inactive)
REMARK    1  A    between atoms: C_1  and  C_2
REMARK    2  A    between atoms: C_2  and  N_3
REMARK    3  A    between atoms: N_3  and  C_4
REMARK    4  A    between atoms: C_4  and  C_5
REMARK    5  A    between atoms: C_5  and  C_6
REMARK    6  A    between atoms: C_14  and  C_15
REMARK    7  A    between atoms: N_17  and  C_18
REMARK    8  A    between atoms: C_18  and  C_19
REMARK    9  A    between atoms: C_23  and  N_24
REMARK                            x       y       z     vdW  Elec       q    Type
REMARK                         _______ _______ _______ _____ _____    ______ ____
ROOT
ATOM      1  N   UNL     1       6.437   7.022  17.494  0.00  0.00    +0.000 N 
ATOM      2  C   UNL     1       5.071   6.863  17.705  0.00  0.00    +0.000 A 
ATOM      3  N   UNL     1       4.309   7.955  17.828  0.00  0.00    +0.000 NA
ATOM      4  C   UNL     1       2.990   7.748  18.016  0.00  0.00    +0.000 A 
ATOM      5  C   UNL     1       2.419   6.516  18.138  0.00  0.00    +0.000 A 
ATOM      6  C   UNL     1       3.262   5.440  18.058  0.00  0.00    +0.000 A 
ATOM      7  N   UNL     1       4.566   5.613  17.787  0.00  0.00    +0.000 NA
ENDROOT
BRANCH   6   8
ATOM      8  N   UNL     1       2.717   4.176  18.203  0.00  0.00    +0.000 N 
ATOM      9  C   UNL     1       1.272   3.965  18.093  0.00  0.00    +0.000 C 
ATOM     10  C   UNL     1       0.946   2.689  18.903  0.00  0.00    +0.000 C 
ATOM     11  O   UNL     1       1.705   1.546  18.452  0.00  0.00    +0.000 OA
ATOM     12  C   UNL     1       3.120   1.810  18.516  0.00  0.00    +0.000 C 
ATOM     13  C   UNL     1       3.484   3.036  17.671  0.00  0.00    +0.000 C 
ENDBRANCH   6   8
BRANCH   4  14
ATOM     14  C   UNL     1       2.095   8.939  18.101  0.00  0.00    +0.000 C 
ATOM     15  O   UNL     1       2.068   9.776  17.204  0.00  0.00    +0.000 OA
ATOM     16  N   UNL     1       1.317   9.021  19.235  0.00  0.00    +0.000 N 
ATOM     17  H   UNL     1       1.454   8.317  19.950  0.00  0.00    +0.000 HD
BRANCH  16  18
ATOM     18  C   UNL     1       0.467  10.160  19.454  0.00  0.00    +0.000 C 
BRANCH  18  19
ATOM     19  C   UNL     1      -0.927   9.843  19.025  0.00  0.00    +0.000 C 
ATOM     20  C   UNL     1      -1.917  10.946  18.743  0.00  0.00    +0.000 C 
ATOM     21  C   UNL     1      -1.367  10.125  17.610  0.00  0.00    +0.000 C 
ENDBRANCH  18  19
ENDBRANCH  16  18
ENDBRANCH   4  14
BRANCH   1  23
ATOM     22  C   UNL     1       7.817   5.293  18.694  0.00  0.00    +0.000 C 
ATOM     23  C   UNL     1       7.273   5.829  17.372  0.00  0.00    +0.000 C 
ENDBRANCH   1  23
BRANCH   1  24
ATOM     24  C   UNL     1       6.976   8.390  17.417  0.00  0.00    +0.000 C 
BRANCH  24  25
ATOM     25  C   UNL     1       8.425   8.530  17.911  0.00  0.00    +0.000 C 
BRANCH  25  26
ATOM     26  C   UNL     1       8.764   9.934  18.373  0.00  0.00    +0.000 A 
ATOM     27  C   UNL     1       8.502  11.034  17.542  0.00  0.00    +0.000 A 
ATOM     28  C   UNL     1       8.786  12.334  17.976  0.00  0.00    +0.000 A 
ATOM     29  C   UNL     1       9.337  12.541  19.238  0.00  0.00    +0.000 A 
ATOM     30  C   UNL     1       9.614  11.457  20.064  0.00  0.00    +0.000 A 
ATOM     31  C   UNL     1       9.333  10.156  19.633  0.00  0.00    +0.000 A 
ENDBRANCH  25  26
ENDBRANCH  24  25
ENDBRANCH   1  24
TORSDOF 8
ENDMDL
MODEL 7
REMARK VINA RESULT:      -6.9      2.871      6.901
REMARK  Name = 
REMARK  9 active torsions:
REMARK  status: ('A' for Active; 'I' for Inactive)
REMARK    1  A    between atoms: C_1  and  C_2
REMARK    2  A    between atoms: C_2  and  N_3
REMARK    3  A    between atoms: N_3  and  C_4
REMARK    4  A    between atoms: C_4  and  C_5
REMARK    5  A    between atoms: C_5  and  C_6
REMARK    6  A    between atoms: C_14  and  C_15
REMARK    7  A    between atoms: N_17  and  C_18
REMARK    8  A    between atoms: C_18  and  C_19
REMARK    9  A    between atoms: C_23  and  N_24
REMARK                            x       y       z     vdW  Elec       q    Type
REMARK                         _______ _______ _______ _____ _____    ______ ____
ROOT
ATOM      1  N   UNL     1       6.359   6.770  17.529  0.00  0.00    +0.000 N 
ATOM      2  C   UNL     1       4.994   6.691  17.780  0.00  0.00    +0.000 A 
ATOM      3  N   UNL     1       4.285   7.824  17.838  0.00  0.00    +0.000 NA
ATOM      4  C   UNL     1       2.963   7.692  18.070  0.00  0.00    +0.000 A 
ATOM      5  C   UNL     1       2.340   6.501  18.294  0.00  0.00    +0.000 A 
ATOM      6  C   UNL     1       3.132   5.383  18.275  0.00  0.00    +0.000 A 
ATOM      7  N   UNL     1       4.435   5.475  17.965  0.00  0.00    +0.000 NA
ENDROOT
BRANCH   6   8
ATOM      8  N   UNL     1       2.534   4.160  18.525  0.00  0.00    +0.000 N 
ATOM      9  C   UNL     1       1.351   4.064  19.383  0.00  0.00    +0.000 C 
ATOM     10  C   UNL     1       1.336   2.629  19.960  0.00  0.00    +0.000 C 
ATOM     11  O   UNL     1       1.346   1.624  18.923  0.00  0.00    +0.000 OA
ATOM     12  C   UNL     1       2.490   1.784  18.062  0.00  0.00    +0.000 C 
ATOM     13  C   UNL     1       2.500   3.180  17.426  0.00  0.00    +0.000 C 
ENDBRANCH   6   8
BRANCH   4  14
ATOM     14  C   UNL     1       2.124   8.927  18.086  0.00  0.00    +0.000 C 
ATOM     15  O   UNL     1       2.272   9.804  17.239  0.00  0.00    +0.000 OA
ATOM     16  N   UNL     1       1.193   9.002  19.097  0.00  0.00    +0.000 N 
ATOM     17  H   UNL     1       1.187   8.260  19.786  0.00  0.00    +0.000 HD
BRANCH  16  18
ATOM     18  C   UNL     1       0.376  10.176  19.249  0.00  0.00    +0.000 C 
BRANCH  18  19
ATOM     19  C   UNL     1       0.821  10.953  20.442  0.00  0.00    +0.000 C 
ATOM     20  C   UNL     1       1.352  12.358  20.295  0.00  0.00    +0.000 C 
ATOM     21  C   UNL     1       0.007  12.127  20.928  0.00  0.00    +0.000 C 
ENDBRANCH  18  19
ENDBRANCH  16  18
ENDBRANCH   4  14
BRANCH   1  23
ATOM     22  C   UNL     1       7.278   4.925  16.085  0.00  0.00    +0.000 C 
ATOM     23  C   UNL     1       7.138   5.534  17.477  0.00  0.00    +0.000 C 
ENDBRANCH   1  23
BRANCH   1  24
ATOM     24  C   UNL     1       6.957   8.102  17.340  0.00  0.00    +0.000 C 
BRANCH  24  25
ATOM     25  C   UNL     1       8.329   8.284  18.011  0.00  0.00    +0.000 C 
BRANCH  25  26
ATOM     26  C   UNL     1       8.632   9.726  18.366  0.00  0.00    +0.000 A 
ATOM     27  C   UNL     1       9.236  10.041  19.592  0.00  0.00    +0.000 A 
ATOM     28  C   UNL     1       9.544  11.368  19.912  0.00  0.00    +0.000 A 
ATOM     29  C   UNL     1       9.245  12.388  19.011  0.00  0.00    +0.000 A 
ATOM     30  C   UNL     1       8.633  12.089  17.799  0.00  0.00    +0.000 A 
ATOM     31  C   UNL     1       8.322  10.763  17.477  0.00  0.00    +0.000 A 
ENDBRANCH  25  26
ENDBRANCH  24  25
ENDBRANCH   1  24
TORSDOF 8
ENDMDL
MODEL 8
REMARK VINA RESULT:      -6.9      3.246      6.584
REMARK  Name = 
REMARK  9 active torsions:
REMARK  status: ('A' for Active; 'I' for Inactive)
REMARK    1  A    between atoms: C_1  and  C_2
REMARK    2  A    between atoms: C_2  and  N_3
REMARK    3  A    between atoms: N_3  and  C_4
REMARK    4  A    between atoms: C_4  and  C_5
REMARK    5  A    between atoms: C_5  and  C_6
REMARK    6  A    between atoms: C_14  and  C_15
REMARK    7  A    between atoms: N_17  and  C_18
REMARK    8  A    between atoms: C_18  and  C_19
REMARK    9  A    between atoms: C_23  and  N_24
REMARK                            x       y       z     vdW  Elec       q    Type
REMARK                         _______ _______ _______ _____ _____    ______ ____
ROOT
ATOM      1  N   UNL     1       1.734   8.585  18.968  0.00  0.00    +0.000 N 
ATOM      2  C   UNL     1       2.526   7.475  18.697  0.00  0.00    +0.000 A 
ATOM      3  N   UNL     1       3.272   7.473  17.587  0.00  0.00    +0.000 NA
ATOM      4  C   UNL     1       4.033   6.380  17.377  0.00  0.00    +0.000 A 
ATOM      5  C   UNL     1       4.040   5.285  18.189  0.00  0.00    +0.000 A 
ATOM      6  C   UNL     1       3.213   5.328  19.281  0.00  0.00    +0.000 A 
ATOM      7  N   UNL     1       2.508   6.436  19.560  0.00  0.00    +0.000 NA
ENDROOT
BRANCH   6   8
ATOM      8  N   UNL     1       3.179   4.222  20.112  0.00  0.00    +0.000 N 
ATOM      9  C   UNL     1       4.366   3.386  20.299  0.00  0.00    +0.000 C 
ATOM     10  C   UNL     1       3.862   1.981  20.704  0.00  0.00    +0.000 C 
ATOM     11  O   UNL     1       3.026   2.019  21.880  0.00  0.00    +0.000 OA
ATOM     12  C   UNL     1       1.901   2.897  21.684  0.00  0.00    +0.000 C 
ATOM     13  C   UNL     1       2.371   4.316  21.340  0.00  0.00    +0.000 C 
ENDBRANCH   6   8
BRANCH   4  14
ATOM     14  C   UNL     1       4.923   6.360  16.179  0.00  0.00    +0.000 C 
ATOM     15  O   UNL     1       4.854   7.238  15.324  0.00  0.00    +0.000 OA
ATOM     16  N   UNL     1       5.810   5.309  16.112  0.00  0.00    +0.000 N 
ATOM     17  H   UNL     1       5.751   4.598  16.832  0.00  0.00    +0.000 HD
BRANCH  16  18
ATOM     18  C   UNL     1       6.669   5.153  14.969  0.00  0.00    +0.000 C 
BRANCH  18  19
ATOM     19  C   UNL     1       6.328   3.894  14.245  0.00  0.00    +0.000 C 
ATOM     20  C   UNL     1       5.214   3.866  13.228  0.00  0.00    +0.000 C 
ATOM     21  C   UNL     1       6.644   3.755  12.776  0.00  0.00    +0.000 C 
ENDBRANCH  18  19
ENDBRANCH  16  18
ENDBRANCH   4  14
BRANCH   1  23
ATOM     22  C   UNL     1       1.633   9.030  21.443  0.00  0.00    +0.000 C 
ATOM     23  C   UNL     1       0.909   8.584  20.175  0.00  0.00    +0.000 C 
ENDBRANCH   1  23
BRANCH   1  24
ATOM     24  C   UNL     1       1.756   9.707  18.014  0.00  0.00    +0.000 C 
BRANCH  24  25
ATOM     25  C   UNL     1       1.118  11.002  18.541  0.00  0.00    +0.000 C 
BRANCH  25  26
ATOM     26  C   UNL     1      -0.392  11.022  18.400  0.00  0.00    +0.000 A 
ATOM     27  C   UNL     1      -1.028  10.171  17.485  0.00  0.00    +0.000 A 
ATOM     28  C   UNL     1      -2.423  10.165  17.372  0.00  0.00    +0.000 A 
ATOM     29  C   UNL     1      -3.189  11.014  18.168  0.00  0.00    +0.000 A 
ATOM     30  C   UNL     1      -2.567  11.873  19.069  0.00  0.00    +0.000 A 
ATOM     31  C   UNL     1      -1.173  11.882  19.183  0.00  0.00    +0.000 A 
ENDBRANCH  25  26
ENDBRANCH  24  25
ENDBRANCH   1  24
TORSDOF 8
ENDMDL
MODEL 9
REMARK VINA RESULT:      -6.8      3.225      7.327
REMARK  Name = 
REMARK  9 active torsions:
REMARK  status: ('A' for Active; 'I' for Inactive)
REMARK    1  A    between atoms: C_1  and  C_2
REMARK    2  A    between atoms: C_2  and  N_3
REMARK    3  A    between atoms: N_3  and  C_4
REMARK    4  A    between atoms: C_4  and  C_5
REMARK    5  A    between atoms: C_5  and  C_6
REMARK    6  A    between atoms: C_14  and  C_15
REMARK    7  A    between atoms: N_17  and  C_18
REMARK    8  A    between atoms: C_18  and  C_19
REMARK    9  A    between atoms: C_23  and  N_24
REMARK                            x       y       z     vdW  Elec       q    Type
REMARK                         _______ _______ _______ _____ _____    ______ ____
ROOT
ATOM      1  N   UNL     1       6.441   7.034  17.564  0.00  0.00    +0.000 N 
ATOM      2  C   UNL     1       5.065   6.934  17.738  0.00  0.00    +0.000 A 
ATOM      3  N   UNL     1       4.333   8.053  17.724  0.00  0.00    +0.000 NA
ATOM      4  C   UNL     1       3.002   7.901  17.883  0.00  0.00    +0.000 A 
ATOM      5  C   UNL     1       2.389   6.703  18.103  0.00  0.00    +0.000 A 
ATOM      6  C   UNL     1       3.202   5.602  18.160  0.00  0.00    +0.000 A 
ATOM      7  N   UNL     1       4.519   5.713  17.922  0.00  0.00    +0.000 NA
ENDROOT
BRANCH   6   8
ATOM      8  N   UNL     1       2.614   4.374  18.407  0.00  0.00    +0.000 N 
ATOM      9  C   UNL     1       3.304   3.129  18.066  0.00  0.00    +0.000 C 
ATOM     10  C   UNL     1       2.210   2.057  17.855  0.00  0.00    +0.000 C 
ATOM     11  O   UNL     1       1.356   1.913  19.010  0.00  0.00    +0.000 OA
ATOM     12  C   UNL     1       0.741   3.169  19.355  0.00  0.00    +0.000 C 
ATOM     13  C   UNL     1       1.804   4.239  19.631  0.00  0.00    +0.000 C 
ENDBRANCH   6   8
BRANCH   4  14
ATOM     14  C   UNL     1       2.141   9.118  17.817  0.00  0.00    +0.000 C 
ATOM     15  O   UNL     1       2.616  10.216  17.539  0.00  0.00    +0.000 OA
ATOM     16  N   UNL     1       0.805   8.919  18.082  0.00  0.00    +0.000 N 
ATOM     17  H   UNL     1       0.515   7.990  18.364  0.00  0.00    +0.000 HD
BRANCH  16  18
ATOM     18  C   UNL     1      -0.106  10.032  18.112  0.00  0.00    +0.000 C 
BRANCH  18  19
ATOM     19  C   UNL     1      -1.376   9.668  17.418  0.00  0.00    +0.000 C 
ATOM     20  C   UNL     1      -2.706  10.151  17.940  0.00  0.00    +0.000 C 
ATOM     21  C   UNL     1      -2.153  10.718  16.662  0.00  0.00    +0.000 C 
ENDBRANCH  18  19
ENDBRANCH  16  18
ENDBRANCH   4  14
BRANCH   1  23
ATOM     22  C   UNL     1       7.809   5.451  18.962  0.00  0.00    +0.000 C 
ATOM     23  C   UNL     1       7.245   5.813  17.591  0.00  0.00    +0.000 C 
ENDBRANCH   1  23
BRANCH   1  24
ATOM     24  C   UNL     1       7.024   8.373  17.374  0.00  0.00    +0.000 C 
BRANCH  24  25
ATOM     25  C   UNL     1       8.390   8.573  18.050  0.00  0.00    +0.000 C 
BRANCH  25  26
ATOM     26  C   UNL     1       8.685  10.024  18.378  0.00  0.00    +0.000 A 
ATOM     27  C   UNL     1       9.364  10.358  19.560  0.00  0.00    +0.000 A 
ATOM     28  C   UNL     1       9.665  11.693  19.852  0.00  0.00    +0.000 A 
ATOM     29  C   UNL     1       9.285  12.701  18.969  0.00  0.00    +0.000 A 
ATOM     30  C   UNL     1       8.600  12.382  17.801  0.00  0.00    +0.000 A 
ATOM     31  C   UNL     1       8.295  11.049  17.507  0.00  0.00    +0.000 A 
ENDBRANCH  25  26
ENDBRANCH  24  25
ENDBRANCH   1  24
TORSDOF 8
ENDMDL
