MODEL 1
REMARK VINA RESULT:      -7.9      0.000      0.000
REMARK  Name = 
REMARK  5 active torsions:
REMARK  status: ('A' for Active; 'I' for Inactive)
REMARK    1  A    between atoms: C_2  and  O_3
REMARK    2  A    between atoms: C_2  and  C_4
REMARK    3  A    between atoms: C_4  and  C_5
REMARK    4  A    between atoms: C_5  and  C_6
REMARK    5  A    between atoms: C_5  and  C_13
REMARK                            x       y       z     vdW  Elec       q    Type
REMARK                         _______ _______ _______ _____ _____    ______ ____
ROOT
ATOM      1  C   UNL     1       2.239   5.271  19.618  0.00  0.00    +0.000 C 
ENDROOT
BRANCH   1   2
ATOM      2  C   UNL     1       3.509   4.985  18.799  0.00  0.00    +0.000 A 
ATOM      3  C   UNL     1       3.449   4.594  17.449  0.00  0.00    +0.000 A 
ATOM      4  C   UNL     1       4.605   4.352  16.693  0.00  0.00    +0.000 A 
ATOM      5  C   UNL     1       5.854   4.497  17.311  0.00  0.00    +0.000 A 
ATOM      6  C   UNL     1       7.203   4.363  16.917  0.00  0.00    +0.000 A 
ATOM      7  N   UNL     1       8.057   4.615  17.912  0.00  0.00    +0.000 NA
ATOM      8  N   UNL     1       7.248   4.909  18.948  0.00  0.00    +0.000 N 
ATOM      9  C   UNL     1       5.910   4.862  18.648  0.00  0.00    +0.000 A 
ATOM     10  C   UNL     1       4.768   5.108  19.423  0.00  0.00    +0.000 A 
ATOM     11  H   UNL     1       7.677   5.143  19.836  0.00  0.00    +0.000 HD
ENDBRANCH   1   2
BRANCH   1  12
ATOM     12  C   UNL     1       1.890   6.760  19.623  0.00  0.00    +0.000 A 
ATOM     13  C   UNL     1       2.079   7.563  18.485  0.00  0.00    +0.000 A 
ATOM     14  C   UNL     1       1.795   8.929  18.519  0.00  0.00    +0.000 A 
ATOM     15  C   UNL     1       1.301   9.505  19.689  0.00  0.00    +0.000 A 
ATOM     16 CL   UNL     1       0.949  11.189  19.727  0.00  0.00    +0.000 Cl
ATOM     17  C   UNL     1       1.091   8.725  20.822  0.00  0.00    +0.000 A 
ATOM     18  C   UNL     1       1.385   7.358  20.790  0.00  0.00    +0.000 A 
ENDBRANCH   1  12
BRANCH   1  19
ATOM     19  C   UNL     1       2.315   4.702  21.048  0.00  0.00    +0.000 C 
BRANCH  19  21
ATOM     20  O   UNL     1       1.736   2.594  22.057  0.00  0.00    +0.000 OA
ATOM     21  C   UNL     1       1.509   3.440  21.205  0.00  0.00    +0.000 C 
BRANCH  21  22
ATOM     22  O   UNL     1       0.496   3.322  20.320  0.00  0.00    +0.000 OA
ATOM     23  H   UNL     1       0.565   3.904  19.540  0.00  0.00    +0.000 HD
ENDBRANCH  21  22
ENDBRANCH  19  21
ENDBRANCH   1  19
TORSDOF 5
ENDMDL
MODEL 2
REMARK VINA RESULT:      -7.9      0.328      1.104
REMARK  Name = 
REMARK  5 active torsions:
REMARK  status: ('A' for Active; 'I' for Inactive)
REMARK    1  A    between atoms: C_2  and  O_3
REMARK    2  A    between atoms: C_2  and  C_4
REMARK    3  A    between atoms: C_4  and  C_5
REMARK    4  A    between atoms: C_5  and  C_6
REMARK    5  A    between atoms: C_5  and  C_13
REMARK                            x       y       z     vdW  Elec       q    Type
REMARK                         _______ _______ _______ _____ _____    ______ ____
ROOT
ATOM      1  C   UNL     1       2.292   5.321  19.728  0.00  0.00    +0.000 C 
ENDROOT
BRANCH   1   2
ATOM      2  C   UNL     1       3.484   4.986  18.815  0.00  0.00    +0.000 A 
ATOM      3  C   UNL     1       3.302   4.505  17.505  0.00  0.00    +0.000 A 
ATOM      4  C   UNL     1       4.385   4.218  16.663  0.00  0.00    +0.000 A 
ATOM      5  C   UNL     1       5.685   4.408  17.150  0.00  0.00    +0.000 A 
ATOM      6  C   UNL     1       6.993   4.254  16.642  0.00  0.00    +0.000 A 
ATOM      7  N   UNL     1       7.933   4.574  17.535  0.00  0.00    +0.000 NA
ATOM      8  N   UNL     1       7.221   4.934  18.619  0.00  0.00    +0.000 N 
ATOM      9  C   UNL     1       5.862   4.862  18.450  0.00  0.00    +0.000 A 
ATOM     10  C   UNL     1       4.793   5.155  19.310  0.00  0.00    +0.000 A 
ATOM     11  H   UNL     1       7.728   5.228  19.446  0.00  0.00    +0.000 HD
ENDBRANCH   1   2
BRANCH   1  12
ATOM     12  C   UNL     1       1.944   6.810  19.684  0.00  0.00    +0.000 A 
ATOM     13  C   UNL     1       1.407   7.472  20.801  0.00  0.00    +0.000 A 
ATOM     14  C   UNL     1       1.055   8.821  20.730  0.00  0.00    +0.000 A 
ATOM     15  C   UNL     1       1.253   9.528  19.545  0.00  0.00    +0.000 A 
ATOM     16 CL   UNL     1       0.820  11.191  19.462  0.00  0.00    +0.000 Cl
ATOM     17  C   UNL     1       1.799   8.896  18.432  0.00  0.00    +0.000 A 
ATOM     18  C   UNL     1       2.142   7.542  18.500  0.00  0.00    +0.000 A 
ENDBRANCH   1  12
BRANCH   1  19
ATOM     19  C   UNL     1       2.496   4.829  21.174  0.00  0.00    +0.000 C 
BRANCH  19  21
ATOM     20  O   UNL     1       2.612   2.569  21.994  0.00  0.00    +0.000 OA
ATOM     21  C   UNL     1       1.995   3.425  21.377  0.00  0.00    +0.000 C 
BRANCH  21  22
ATOM     22  O   UNL     1       0.787   3.187  20.821  0.00  0.00    +0.000 OA
ATOM     23  H   UNL     1       0.460   2.274  20.930  0.00  0.00    +0.000 HD
ENDBRANCH  21  22
ENDBRANCH  19  21
ENDBRANCH   1  19
TORSDOF 5
ENDMDL
MODEL 3
REMARK VINA RESULT:      -7.9      4.495      6.378
REMARK  Name = 
REMARK  5 active torsions:
REMARK  status: ('A' for Active; 'I' for Inactive)
REMARK    1  A    between atoms: C_2  and  O_3
REMARK    2  A    between atoms: C_2  and  C_4
REMARK    3  A    between atoms: C_4  and  C_5
REMARK    4  A    between atoms: C_5  and  C_6
REMARK    5  A    between atoms: C_5  and  C_13
REMARK                            x       y       z     vdW  Elec       q    Type
REMARK                         _______ _______ _______ _____ _____    ______ ____
ROOT
ATOM      1  C   UNL     1       5.754   4.727  16.515  0.00  0.00    +0.000 C 
ENDROOT
BRANCH   1   2
ATOM      2  C   UNL     1       4.451   4.478  17.293  0.00  0.00    +0.000 A 
ATOM      3  C   UNL     1       3.803   5.505  18.003  0.00  0.00    +0.000 A 
ATOM      4  C   UNL     1       2.605   5.287  18.697  0.00  0.00    +0.000 A 
ATOM      5  C   UNL     1       2.046   4.003  18.686  0.00  0.00    +0.000 A 
ATOM      6  C   UNL     1       0.894   3.392  19.227  0.00  0.00    +0.000 A 
ATOM      7  N   UNL     1       0.810   2.094  18.924  0.00  0.00    +0.000 NA
ATOM      8  N   UNL     1       1.915   1.875  18.187  0.00  0.00    +0.000 N 
ATOM      9  C   UNL     1       2.697   2.986  18.002  0.00  0.00    +0.000 A 
ATOM     10  C   UNL     1       3.897   3.181  17.302  0.00  0.00    +0.000 A 
ATOM     11  H   UNL     1       2.073   0.939  17.832  0.00  0.00    +0.000 HD
ENDBRANCH   1   2
BRANCH   1  12
ATOM     12  C   UNL     1       6.599   5.827  17.159  0.00  0.00    +0.000 A 
ATOM     13  C   UNL     1       7.468   5.555  18.229  0.00  0.00    +0.000 A 
ATOM     14  C   UNL     1       8.200   6.579  18.834  0.00  0.00    +0.000 A 
ATOM     15  C   UNL     1       8.084   7.885  18.362  0.00  0.00    +0.000 A 
ATOM     16 CL   UNL     1       8.989   9.145  19.108  0.00  0.00    +0.000 Cl
ATOM     17  C   UNL     1       7.240   8.175  17.294  0.00  0.00    +0.000 A 
ATOM     18  C   UNL     1       6.500   7.151  16.695  0.00  0.00    +0.000 A 
ENDBRANCH   1  12
BRANCH   1  19
ATOM     19  C   UNL     1       5.508   5.004  15.019  0.00  0.00    +0.000 C 
BRANCH  19  21
ATOM     20  O   UNL     1       7.683   5.205  14.006  0.00  0.00    +0.000 OA
ATOM     21  C   UNL     1       6.658   4.557  14.157  0.00  0.00    +0.000 C 
BRANCH  21  22
ATOM     22  O   UNL     1       6.465   3.360  13.563  0.00  0.00    +0.000 OA
ATOM     23  H   UNL     1       5.770   2.808  13.971  0.00  0.00    +0.000 HD
ENDBRANCH  21  22
ENDBRANCH  19  21
ENDBRANCH   1  19
TORSDOF 5
ENDMDL
MODEL 4
REMARK VINA RESULT:      -7.8      4.374      6.067
REMARK  Name = 
REMARK  5 active torsions:
REMARK  status: ('A' for Active; 'I' for Inactive)
REMARK    1  A    between atoms: C_2  and  O_3
REMARK    2  A    between atoms: C_2  and  C_4
REMARK    3  A    between atoms: C_4  and  C_5
REMARK    4  A    between atoms: C_5  and  C_6
REMARK    5  A    between atoms: C_5  and  C_13
REMARK                            x       y       z     vdW  Elec       q    Type
REMARK                         _______ _______ _______ _____ _____    ______ ____
ROOT
ATOM      1  C   UNL     1       5.645   4.636  17.002  0.00  0.00    +0.000 C 
ENDROOT
BRANCH   1   2
ATOM      2  C   UNL     1       4.392   4.419  17.866  0.00  0.00    +0.000 A 
ATOM      3  C   UNL     1       3.164   5.033  17.559  0.00  0.00    +0.000 A 
ATOM      4  C   UNL     1       2.014   4.822  18.332  0.00  0.00    +0.000 A 
ATOM      5  C   UNL     1       2.099   3.981  19.448  0.00  0.00    +0.000 A 
ATOM      6  C   UNL     1       1.209   3.516  20.442  0.00  0.00    +0.000 A 
ATOM      7  N   UNL     1       1.799   2.704  21.322  0.00  0.00    +0.000 NA
ATOM      8  N   UNL     1       3.073   2.650  20.889  0.00  0.00    +0.000 N 
ATOM      9  C   UNL     1       3.317   3.392  19.762  0.00  0.00    +0.000 A 
ATOM     10  C   UNL     1       4.479   3.589  19.003  0.00  0.00    +0.000 A 
ATOM     11  H   UNL     1       3.729   2.079  21.409  0.00  0.00    +0.000 HD
ENDBRANCH   1   2
BRANCH   1  12
ATOM     12  C   UNL     1       6.474   5.824  17.492  0.00  0.00    +0.000 A 
ATOM     13  C   UNL     1       6.257   7.123  17.003  0.00  0.00    +0.000 A 
ATOM     14  C   UNL     1       7.052   8.189  17.429  0.00  0.00    +0.000 A 
ATOM     15  C   UNL     1       8.062   7.970  18.364  0.00  0.00    +0.000 A 
ATOM     16 CL   UNL     1       9.038   9.286  18.890  0.00  0.00    +0.000 Cl
ATOM     17  C   UNL     1       8.284   6.694  18.874  0.00  0.00    +0.000 A 
ATOM     18  C   UNL     1       7.494   5.625  18.439  0.00  0.00    +0.000 A 
ENDBRANCH   1  12
BRANCH   1  19
ATOM     19  C   UNL     1       5.318   4.754  15.501  0.00  0.00    +0.000 C 
BRANCH  19  21
ATOM     20  O   UNL     1       7.487   5.129  14.527  0.00  0.00    +0.000 OA
ATOM     21  C   UNL     1       6.498   4.419  14.630  0.00  0.00    +0.000 C 
BRANCH  21  22
ATOM     22  O   UNL     1       6.377   3.249  13.966  0.00  0.00    +0.000 OA
ATOM     23  H   UNL     1       6.779   3.239  13.077  0.00  0.00    +0.000 HD
ENDBRANCH  21  22
ENDBRANCH  19  21
ENDBRANCH   1  19
TORSDOF 5
ENDMDL
MODEL 5
REMARK VINA RESULT:      -7.8      4.350      6.134
REMARK  Name = 
REMARK  5 active torsions:
REMARK  status: ('A' for Active; 'I' for Inactive)
REMARK    1  A    between atoms: C_2  and  O_3
REMARK    2  A    between atoms: C_2  and  C_4
REMARK    3  A    between atoms: C_4  and  C_5
REMARK    4  A    between atoms: C_5  and  C_6
REMARK    5  A    between atoms: C_5  and  C_13
REMARK                            x       y       z     vdW  Elec       q    Type
REMARK                         _______ _______ _______ _____ _____    ______ ____
ROOT
ATOM      1  C   UNL     1       5.688   4.629  16.962  0.00  0.00    +0.000 C 
ENDROOT
BRANCH   1   2
ATOM      2  C   UNL     1       4.440   4.435  17.839  0.00  0.00    +0.000 A 
ATOM      3  C   UNL     1       3.231   5.103  17.567  0.00  0.00    +0.000 A 
ATOM      4  C   UNL     1       2.086   4.914  18.352  0.00  0.00    +0.000 A 
ATOM      5  C   UNL     1       2.156   4.039  19.444  0.00  0.00    +0.000 A 
ATOM      6  C   UNL     1       1.263   3.581  20.438  0.00  0.00    +0.000 A 
ATOM      7  N   UNL     1       1.835   2.724  21.287  0.00  0.00    +0.000 NA
ATOM      8  N   UNL     1       3.100   2.635  20.833  0.00  0.00    +0.000 N 
ATOM      9  C   UNL     1       3.354   3.398  19.722  0.00  0.00    +0.000 A 
ATOM     10  C   UNL     1       4.513   3.572  18.952  0.00  0.00    +0.000 A 
ATOM     11  H   UNL     1       3.741   2.025  21.327  0.00  0.00    +0.000 HD
ENDBRANCH   1   2
BRANCH   1  12
ATOM     12  C   UNL     1       6.561   5.781  17.462  0.00  0.00    +0.000 A 
ATOM     13  C   UNL     1       7.548   5.582  18.443  0.00  0.00    +0.000 A 
ATOM     14  C   UNL     1       8.307   6.653  18.919  0.00  0.00    +0.000 A 
ATOM     15  C   UNL     1       8.099   7.932  18.406  0.00  0.00    +0.000 A 
ATOM     16 CL   UNL     1       9.038   9.249  18.994  0.00  0.00    +0.000 Cl
ATOM     17  C   UNL     1       7.138   8.148  17.423  0.00  0.00    +0.000 A 
ATOM     18  C   UNL     1       6.371   7.077  16.953  0.00  0.00    +0.000 A 
ENDBRANCH   1  12
BRANCH   1  19
ATOM     19  C   UNL     1       5.344   4.786  15.468  0.00  0.00    +0.000 C 
BRANCH  19  21
ATOM     20  O   UNL     1       7.488   5.132  14.427  0.00  0.00    +0.000 OA
ATOM     21  C   UNL     1       6.501   4.427  14.574  0.00  0.00    +0.000 C 
BRANCH  21  22
ATOM     22  O   UNL     1       6.360   3.241  13.943  0.00  0.00    +0.000 OA
ATOM     23  H   UNL     1       6.150   2.489  14.530  0.00  0.00    +0.000 HD
ENDBRANCH  21  22
ENDBRANCH  19  21
ENDBRANCH   1  19
TORSDOF 5
ENDMDL
MODEL 6
REMARK VINA RESULT:      -7.7      4.391      6.681
REMARK  Name = 
REMARK  5 active torsions:
REMARK  status: ('A' for Active; 'I' for Inactive)
REMARK    1  A    between atoms: C_2  and  O_3
REMARK    2  A    between atoms: C_2  and  C_4
REMARK    3  A    between atoms: C_4  and  C_5
REMARK    4  A    between atoms: C_5  and  C_6
REMARK    5  A    between atoms: C_5  and  C_13
REMARK                            x       y       z     vdW  Elec       q    Type
REMARK                         _______ _______ _______ _____ _____    ______ ____
ROOT
ATOM      1  C   UNL     1       6.055   5.394  17.627  0.00  0.00    +0.000 C 
ENDROOT
BRANCH   1   2
ATOM      2  C   UNL     1       4.671   5.128  18.243  0.00  0.00    +0.000 A 
ATOM      3  C   UNL     1       3.553   5.920  17.925  0.00  0.00    +0.000 A 
ATOM      4  C   UNL     1       2.286   5.668  18.468  0.00  0.00    +0.000 A 
ATOM      5  C   UNL     1       2.138   4.600  19.362  0.00  0.00    +0.000 A 
ATOM      6  C   UNL     1       1.074   4.027  20.094  0.00  0.00    +0.000 A 
ATOM      7  N   UNL     1       1.461   2.986  20.834  0.00  0.00    +0.000 NA
ATOM      8  N   UNL     1       2.780   2.894  20.575  0.00  0.00    +0.000 N 
ATOM      9  C   UNL     1       3.246   3.833  19.691  0.00  0.00    +0.000 A 
ATOM     10  C   UNL     1       4.523   4.067  19.160  0.00  0.00    +0.000 A 
ATOM     11  H   UNL     1       3.305   2.157  21.031  0.00  0.00    +0.000 HD
ENDBRANCH   1   2
BRANCH   1  12
ATOM     12  C   UNL     1       6.130   4.924  16.174  0.00  0.00    +0.000 A 
ATOM     13  C   UNL     1       5.129   4.112  15.612  0.00  0.00    +0.000 A 
ATOM     14  C   UNL     1       5.235   3.656  14.296  0.00  0.00    +0.000 A 
ATOM     15  C   UNL     1       6.334   4.022  13.522  0.00  0.00    +0.000 A 
ATOM     16 CL   UNL     1       6.460   3.461  11.900  0.00  0.00    +0.000 Cl
ATOM     17  C   UNL     1       7.329   4.838  14.054  0.00  0.00    +0.000 A 
ATOM     18  C   UNL     1       7.228   5.287  15.374  0.00  0.00    +0.000 A 
ENDBRANCH   1  12
BRANCH   1  19
ATOM     19  C   UNL     1       7.203   4.809  18.472  0.00  0.00    +0.000 C 
BRANCH  19  21
ATOM     20  O   UNL     1       8.251   6.941  18.863  0.00  0.00    +0.000 OA
ATOM     21  C   UNL     1       7.896   5.857  19.301  0.00  0.00    +0.000 C 
BRANCH  21  22
ATOM     22  O   UNL     1       8.088   5.500  20.589  0.00  0.00    +0.000 OA
ATOM     23  H   UNL     1       8.230   4.545  20.732  0.00  0.00    +0.000 HD
ENDBRANCH  21  22
ENDBRANCH  19  21
ENDBRANCH   1  19
TORSDOF 5
ENDMDL
MODEL 7
REMARK VINA RESULT:      -7.7      4.496      6.332
REMARK  Name = 
REMARK  5 active torsions:
REMARK  status: ('A' for Active; 'I' for Inactive)
REMARK    1  A    between atoms: C_2  and  O_3
REMARK    2  A    between atoms: C_2  and  C_4
REMARK    3  A    between atoms: C_4  and  C_5
REMARK    4  A    between atoms: C_5  and  C_6
REMARK    5  A    between atoms: C_5  and  C_13
REMARK                            x       y       z     vdW  Elec       q    Type
REMARK                         _______ _______ _______ _____ _____    ______ ____
ROOT
ATOM      1  C   UNL     1       5.812   4.925  16.529  0.00  0.00    +0.000 C 
ENDROOT
BRANCH   1   2
ATOM      2  C   UNL     1       4.513   4.617  17.293  0.00  0.00    +0.000 A 
ATOM      3  C   UNL     1       3.844   5.601  18.044  0.00  0.00    +0.000 A 
ATOM      4  C   UNL     1       2.649   5.331  18.725  0.00  0.00    +0.000 A 
ATOM      5  C   UNL     1       2.116   4.037  18.660  0.00  0.00    +0.000 A 
ATOM      6  C   UNL     1       0.975   3.380  19.172  0.00  0.00    +0.000 A 
ATOM      7  N   UNL     1       0.918   2.095  18.816  0.00  0.00    +0.000 NA
ATOM      8  N   UNL     1       2.029   1.929  18.073  0.00  0.00    +0.000 N 
ATOM      9  C   UNL     1       2.789   3.063  17.936  0.00  0.00    +0.000 A 
ATOM     10  C   UNL     1       3.985   3.311  17.247  0.00  0.00    +0.000 A 
ATOM     11  H   UNL     1       2.206   1.012  17.679  0.00  0.00    +0.000 HD
ENDBRANCH   1   2
BRANCH   1  12
ATOM     12  C   UNL     1       6.622   6.030  17.209  0.00  0.00    +0.000 A 
ATOM     13  C   UNL     1       6.551   7.365  16.776  0.00  0.00    +0.000 A 
ATOM     14  C   UNL     1       7.330   8.354  17.380  0.00  0.00    +0.000 A 
ATOM     15  C   UNL     1       8.177   8.021  18.436  0.00  0.00    +0.000 A 
ATOM     16 CL   UNL     1       9.134   9.243  19.179  0.00  0.00    +0.000 Cl
ATOM     17  C   UNL     1       8.251   6.708  18.890  0.00  0.00    +0.000 A 
ATOM     18  C   UNL     1       7.478   5.716  18.279  0.00  0.00    +0.000 A 
ENDBRANCH   1  12
BRANCH   1  19
ATOM     19  C   UNL     1       5.565   5.237  15.041  0.00  0.00    +0.000 C 
BRANCH  19  21
ATOM     20  O   UNL     1       6.465   3.615  13.506  0.00  0.00    +0.000 OA
ATOM     21  C   UNL     1       6.621   4.642  14.148  0.00  0.00    +0.000 C 
BRANCH  21  22
ATOM     22  O   UNL     1       7.769   5.353  14.109  0.00  0.00    +0.000 OA
ATOM     23  H   UNL     1       8.580   4.815  14.024  0.00  0.00    +0.000 HD
ENDBRANCH  21  22
ENDBRANCH  19  21
ENDBRANCH   1  19
TORSDOF 5
ENDMDL
MODEL 8
REMARK VINA RESULT:      -7.6      4.395      6.636
REMARK  Name = 
REMARK  5 active torsions:
REMARK  status: ('A' for Active; 'I' for Inactive)
REMARK    1  A    between atoms: C_2  and  O_3
REMARK    2  A    between atoms: C_2  and  C_4
REMARK    3  A    between atoms: C_4  and  C_5
REMARK    4  A    between atoms: C_5  and  C_6
REMARK    5  A    between atoms: C_5  and  C_13
REMARK                            x       y       z     vdW  Elec       q    Type
REMARK                         _______ _______ _______ _____ _____    ______ ____
ROOT
ATOM      1  C   UNL     1       6.039   5.351  17.666  0.00  0.00    +0.000 C 
ENDROOT
BRANCH   1   2
ATOM      2  C   UNL     1       4.651   5.085  18.270  0.00  0.00    +0.000 A 
ATOM      3  C   UNL     1       3.530   5.862  17.925  0.00  0.00    +0.000 A 
ATOM      4  C   UNL     1       2.258   5.610  18.458  0.00  0.00    +0.000 A 
ATOM      5  C   UNL     1       2.108   4.556  19.368  0.00  0.00    +0.000 A 
ATOM      6  C   UNL     1       1.041   3.988  20.098  0.00  0.00    +0.000 A 
ATOM      7  N   UNL     1       1.427   2.962  20.860  0.00  0.00    +0.000 NA
ATOM      8  N   UNL     1       2.749   2.876  20.618  0.00  0.00    +0.000 N 
ATOM      9  C   UNL     1       3.219   3.804  19.723  0.00  0.00    +0.000 A 
ATOM     10  C   UNL     1       4.500   4.038  19.203  0.00  0.00    +0.000 A 
ATOM     11  H   UNL     1       3.274   2.152  21.093  0.00  0.00    +0.000 HD
ENDBRANCH   1   2
BRANCH   1  12
ATOM     12  C   UNL     1       6.134   4.859  16.221  0.00  0.00    +0.000 A 
ATOM     13  C   UNL     1       7.203   5.229  15.387  0.00  0.00    +0.000 A 
ATOM     14  C   UNL     1       7.251   4.806  14.057  0.00  0.00    +0.000 A 
ATOM     15  C   UNL     1       6.239   3.991  13.552  0.00  0.00    +0.000 A 
ATOM     16 CL   UNL     1       6.303   3.469  11.914  0.00  0.00    +0.000 Cl
ATOM     17  C   UNL     1       5.180   3.600  14.365  0.00  0.00    +0.000 A 
ATOM     18  C   UNL     1       5.126   4.032  15.694  0.00  0.00    +0.000 A 
ENDBRANCH   1  12
BRANCH   1  19
ATOM     19  C   UNL     1       7.182   4.787  18.532  0.00  0.00    +0.000 C 
BRANCH  19  21
ATOM     20  O   UNL     1       8.243   6.927  18.839  0.00  0.00    +0.000 OA
ATOM     21  C   UNL     1       7.888   5.860  19.318  0.00  0.00    +0.000 C 
BRANCH  21  22
ATOM     22  O   UNL     1       8.092   5.545  20.615  0.00  0.00    +0.000 OA
ATOM     23  H   UNL     1       8.884   5.000  20.784  0.00  0.00    +0.000 HD
ENDBRANCH  21  22
ENDBRANCH  19  21
ENDBRANCH   1  19
TORSDOF 5
ENDMDL
MODEL 9
REMARK VINA RESULT:      -7.6      4.388      6.207
REMARK  Name = 
REMARK  5 active torsions:
REMARK  status: ('A' for Active; 'I' for Inactive)
REMARK    1  A    between atoms: C_2  and  O_3
REMARK    2  A    between atoms: C_2  and  C_4
REMARK    3  A    between atoms: C_4  and  C_5
REMARK    4  A    between atoms: C_5  and  C_6
REMARK    5  A    between atoms: C_5  and  C_13
REMARK                            x       y       z     vdW  Elec       q    Type
REMARK                         _______ _______ _______ _____ _____    ______ ____
ROOT
ATOM      1  C   UNL     1       5.742   4.706  16.644  0.00  0.00    +0.000 C 
ENDROOT
BRANCH   1   2
ATOM      2  C   UNL     1       4.460   4.467  17.459  0.00  0.00    +0.000 A 
ATOM      3  C   UNL     1       3.478   3.549  17.044  0.00  0.00    +0.000 A 
ATOM      4  C   UNL     1       2.318   3.312  17.794  0.00  0.00    +0.000 A 
ATOM      5  C   UNL     1       2.132   4.022  18.987  0.00  0.00    +0.000 A 
ATOM      6  C   UNL     1       1.149   4.070  19.999  0.00  0.00    +0.000 A 
ATOM      7  N   UNL     1       1.443   4.946  20.962  0.00  0.00    +0.000 NA
ATOM      8  N   UNL     1       2.621   5.463  20.562  0.00  0.00    +0.000 N 
ATOM      9  C   UNL     1       3.092   4.943  19.384  0.00  0.00    +0.000 A 
ATOM     10  C   UNL     1       4.260   5.195  18.649  0.00  0.00    +0.000 A 
ATOM     11  H   UNL     1       3.056   6.166  21.148  0.00  0.00    +0.000 HD
ENDBRANCH   1   2
BRANCH   1  12
ATOM     12  C   UNL     1       6.598   5.820  17.247  0.00  0.00    +0.000 A 
ATOM     13  C   UNL     1       7.510   5.566  18.286  0.00  0.00    +0.000 A 
ATOM     14  C   UNL     1       8.253   6.603  18.854  0.00  0.00    +0.000 A 
ATOM     15  C   UNL     1       8.106   7.904  18.376  0.00  0.00    +0.000 A 
ATOM     16 CL   UNL     1       9.025   9.178  19.077  0.00  0.00    +0.000 Cl
ATOM     17  C   UNL     1       7.221   8.175  17.337  0.00  0.00    +0.000 A 
ATOM     18  C   UNL     1       6.469   7.138  16.774  0.00  0.00    +0.000 A 
ENDBRANCH   1  12
BRANCH   1  19
ATOM     19  C   UNL     1       5.457   4.955  15.150  0.00  0.00    +0.000 C 
BRANCH  19  21
ATOM     20  O   UNL     1       7.595   5.231  14.076  0.00  0.00    +0.000 OA
ATOM     21  C   UNL     1       6.606   4.539  14.271  0.00  0.00    +0.000 C 
BRANCH  21  22
ATOM     22  O   UNL     1       6.456   3.318  13.714  0.00  0.00    +0.000 OA
ATOM     23  H   UNL     1       6.710   3.265  12.772  0.00  0.00    +0.000 HD
ENDBRANCH  21  22
ENDBRANCH  19  21
ENDBRANCH   1  19
TORSDOF 5
ENDMDL
