MODEL 1
REMARK VINA RESULT:      -8.6      0.000      0.000
REMARK  Name = 
REMARK  4 active torsions:
REMARK  status: ('A' for Active; 'I' for Inactive)
REMARK    1  A    between atoms: C_2  and  C_4
REMARK    2  A    between atoms: C_8  and  C_9
REMARK    3  A    between atoms: C_11  and  C_12
REMARK    4  A    between atoms: C_16  and  C_17
REMARK                            x       y       z     vdW  Elec       q    Type
REMARK                         _______ _______ _______ _____ _____    ______ ____
ROOT
ATOM      1  C   UNL     1       2.562   7.045  18.696  0.00  0.00    +0.000 A 
ATOM      2  C   UNL     1       2.067   8.146  18.034  0.00  0.00    +0.000 A 
ATOM      3  C   UNL     1       1.467   8.897  19.018  0.00  0.00    +0.000 A 
ATOM      4  O   UNL     1       1.610   8.268  20.165  0.00  0.00    +0.000 OA
ATOM      5  N   UNL     1       2.261   7.150  20.007  0.00  0.00    +0.000 NA
ENDROOT
BRANCH   1  10
ATOM      6  C   UNL     1       5.452   5.036  17.272  0.00  0.00    +0.000 A 
ATOM      7  C   UNL     1       4.783   3.858  16.889  0.00  0.00    +0.000 A 
ATOM      8  C   UNL     1       3.417   3.711  17.123  0.00  0.00    +0.000 A 
ATOM      9  C   UNL     1       2.693   4.739  17.720  0.00  0.00    +0.000 A 
ATOM     10  C   UNL     1       3.332   5.933  18.098  0.00  0.00    +0.000 A 
ATOM     11  C   UNL     1       4.712   6.067  17.884  0.00  0.00    +0.000 A 
BRANCH   6  13
ATOM     12  N   UNL     1       7.333   6.136  16.266  0.00  0.00    +0.000 NA
ATOM     13  C   UNL     1       6.916   5.203  17.048  0.00  0.00    +0.000 C 
ATOM     14  N   UNL     1       7.861   4.344  17.676  0.00  0.00    +0.000 N 
ATOM     15  H   UNL     1       8.337   6.292  16.092  0.00  0.00    +0.000 HD
ATOM     16  H   UNL     1       8.870   4.468  17.507  0.00  0.00    +0.000 HD
ATOM     17  H   UNL     1       7.564   3.521  18.216  0.00  0.00    +0.000 HD
ENDBRANCH   6  13
ENDBRANCH   1  10
BRANCH   3  18
ATOM     18  C   UNL     1       0.782  10.194  18.844  0.00  0.00    +0.000 A 
ATOM     19  C   UNL     1       1.336  11.377  19.346  0.00  0.00    +0.000 A 
ATOM     20  N   UNL     1       0.695  12.556  19.169  0.00  0.00    +0.000 NA
ATOM     21  C   UNL     1      -0.493  12.642  18.519  0.00  0.00    +0.000 A 
ATOM     22  C   UNL     1      -1.120  11.488  17.992  0.00  0.00    +0.000 A 
ATOM     23  C   UNL     1      -0.444  10.259  18.168  0.00  0.00    +0.000 A 
BRANCH  22  24
ATOM     24  C   UNL     1      -2.453  11.557  17.279  0.00  0.00    +0.000 C 
ATOM     25  N   UNL     1      -2.552  11.363  16.007  0.00  0.00    +0.000 NA
ATOM     26  N   UNL     1      -3.660  11.844  17.978  0.00  0.00    +0.000 N 
ATOM     27  H   UNL     1      -1.769  11.151  15.379  0.00  0.00    +0.000 HD
ATOM     28  H   UNL     1      -3.702  12.021  18.989  0.00  0.00    +0.000 HD
ATOM     29  H   UNL     1      -4.547  11.894  17.461  0.00  0.00    +0.000 HD
ENDBRANCH  22  24
ENDBRANCH   3  18
TORSDOF 4
ENDMDL
MODEL 2
REMARK VINA RESULT:      -8.6      4.255      6.710
REMARK  Name = 
REMARK  4 active torsions:
REMARK  status: ('A' for Active; 'I' for Inactive)
REMARK    1  A    between atoms: C_2  and  C_4
REMARK    2  A    between atoms: C_8  and  C_9
REMARK    3  A    between atoms: C_11  and  C_12
REMARK    4  A    between atoms: C_16  and  C_17
REMARK                            x       y       z     vdW  Elec       q    Type
REMARK                         _______ _______ _______ _____ _____    ______ ____
ROOT
ATOM      1  C   UNL     1       6.002   5.150  15.905  0.00  0.00    +0.000 A 
ATOM      2  C   UNL     1       4.714   5.141  16.389  0.00  0.00    +0.000 A 
ATOM      3  C   UNL     1       4.838   5.530  17.702  0.00  0.00    +0.000 A 
ATOM      4  O   UNL     1       6.111   5.746  17.953  0.00  0.00    +0.000 OA
ATOM      5  N   UNL     1       6.840   5.523  16.895  0.00  0.00    +0.000 NA
ENDROOT
BRANCH   1  10
ATOM      6  C   UNL     1       6.120   3.560  12.459  0.00  0.00    +0.000 A 
ATOM      7  C   UNL     1       7.269   4.179  11.929  0.00  0.00    +0.000 A 
ATOM      8  C   UNL     1       7.973   5.123  12.674  0.00  0.00    +0.000 A 
ATOM      9  C   UNL     1       7.559   5.450  13.962  0.00  0.00    +0.000 A 
ATOM     10  C   UNL     1       6.425   4.838  14.523  0.00  0.00    +0.000 A 
ATOM     11  C   UNL     1       5.704   3.906  13.760  0.00  0.00    +0.000 A 
BRANCH   6  13
ATOM     12  N   UNL     1       5.841   1.395  11.464  0.00  0.00    +0.000 NA
ATOM     13  C   UNL     1       5.343   2.563  11.670  0.00  0.00    +0.000 C 
ATOM     14  N   UNL     1       4.064   2.882  11.133  0.00  0.00    +0.000 N 
ATOM     15  H   UNL     1       5.332   0.673  10.933  0.00  0.00    +0.000 HD
ATOM     16  H   UNL     1       3.542   2.184  10.584  0.00  0.00    +0.000 HD
ATOM     17  H   UNL     1       3.684   3.836  11.180  0.00  0.00    +0.000 HD
ENDBRANCH   6  13
ENDBRANCH   1  10
BRANCH   3  18
ATOM     18  C   UNL     1       3.743   5.693  18.681  0.00  0.00    +0.000 A 
ATOM     19  C   UNL     1       3.219   6.957  18.975  0.00  0.00    +0.000 A 
ATOM     20  N   UNL     1       2.211   7.082  19.870  0.00  0.00    +0.000 NA
ATOM     21  C   UNL     1       1.681   6.014  20.516  0.00  0.00    +0.000 A 
ATOM     22  C   UNL     1       2.167   4.706  20.280  0.00  0.00    +0.000 A 
ATOM     23  C   UNL     1       3.211   4.574  19.336  0.00  0.00    +0.000 A 
BRANCH  22  24
ATOM     24  C   UNL     1       1.603   3.501  21.003  0.00  0.00    +0.000 C 
ATOM     25  N   UNL     1       0.513   2.927  20.617  0.00  0.00    +0.000 NA
ATOM     26  N   UNL     1       2.248   2.946  22.145  0.00  0.00    +0.000 N 
ATOM     27  H   UNL     1      -0.056   3.219  19.815  0.00  0.00    +0.000 HD
ATOM     28  H   UNL     1       3.118   3.321  22.544  0.00  0.00    +0.000 HD
ATOM     29  H   UNL     1       1.833   2.133  22.618  0.00  0.00    +0.000 HD
ENDBRANCH  22  24
ENDBRANCH   3  18
TORSDOF 4
ENDMDL
MODEL 3
REMARK VINA RESULT:      -8.5      5.069      8.673
REMARK  Name = 
REMARK  4 active torsions:
REMARK  status: ('A' for Active; 'I' for Inactive)
REMARK    1  A    between atoms: C_2  and  C_4
REMARK    2  A    between atoms: C_8  and  C_9
REMARK    3  A    between atoms: C_11  and  C_12
REMARK    4  A    between atoms: C_16  and  C_17
REMARK                            x       y       z     vdW  Elec       q    Type
REMARK                         _______ _______ _______ _____ _____    ______ ____
ROOT
ATOM      1  C   UNL     1       4.822   5.162  17.894  0.00  0.00    +0.000 A 
ATOM      2  C   UNL     1       4.709   5.071  16.526  0.00  0.00    +0.000 A 
ATOM      3  C   UNL     1       5.994   4.849  16.089  0.00  0.00    +0.000 A 
ATOM      4  O   UNL     1       6.789   4.815  17.136  0.00  0.00    +0.000 OA
ATOM      5  N   UNL     1       6.118   5.004  18.238  0.00  0.00    +0.000 NA
ENDROOT
BRANCH   1  10
ATOM      6  C   UNL     1       1.980   4.435  20.304  0.00  0.00    +0.000 A 
ATOM      7  C   UNL     1       1.569   5.744  20.620  0.00  0.00    +0.000 A 
ATOM      8  C   UNL     1       2.232   6.845  20.080  0.00  0.00    +0.000 A 
ATOM      9  C   UNL     1       3.296   6.661  19.203  0.00  0.00    +0.000 A 
ATOM     10  C   UNL     1       3.719   5.366  18.857  0.00  0.00    +0.000 A 
ATOM     11  C   UNL     1       3.064   4.260  19.422  0.00  0.00    +0.000 A 
BRANCH   6  13
ATOM     12  N   UNL     1       0.327   2.697  20.243  0.00  0.00    +0.000 NA
ATOM     13  C   UNL     1       1.295   3.246  20.886  0.00  0.00    +0.000 C 
ATOM     14  N   UNL     1       1.689   2.713  22.146  0.00  0.00    +0.000 N 
ATOM     15  H   UNL     1      -0.166   1.867  20.606  0.00  0.00    +0.000 HD
ATOM     16  H   UNL     1       1.203   1.894  22.539  0.00  0.00    +0.000 HD
ATOM     17  H   UNL     1       2.380   3.190  22.740  0.00  0.00    +0.000 HD
ENDBRANCH   6  13
ENDBRANCH   1  10
BRANCH   3  18
ATOM     18  C   UNL     1       6.430   4.667  14.689  0.00  0.00    +0.000 A 
ATOM     19  C   UNL     1       7.482   5.420  14.155  0.00  0.00    +0.000 A 
ATOM     20  N   UNL     1       7.869   5.232  12.872  0.00  0.00    +0.000 NA
ATOM     21  C   UNL     1       7.263   4.331  12.059  0.00  0.00    +0.000 A 
ATOM     22  C   UNL     1       6.186   3.540  12.523  0.00  0.00    +0.000 A 
ATOM     23  C   UNL     1       5.790   3.729  13.867  0.00  0.00    +0.000 A 
BRANCH  22  24
ATOM     24  C   UNL     1       5.483   2.541  11.629  0.00  0.00    +0.000 C 
ATOM     25  N   UNL     1       4.318   2.783  11.127  0.00  0.00    +0.000 NA
ATOM     26  N   UNL     1       6.071   1.286  11.304  0.00  0.00    +0.000 N 
ATOM     27  H   UNL     1       3.776   3.641  11.278  0.00  0.00    +0.000 HD
ATOM     28  H   UNL     1       6.991   0.984  11.649  0.00  0.00    +0.000 HD
ATOM     29  H   UNL     1       5.561   0.627  10.702  0.00  0.00    +0.000 HD
ENDBRANCH  22  24
ENDBRANCH   3  18
TORSDOF 4
ENDMDL
MODEL 4
REMARK VINA RESULT:      -8.4      1.716      2.270
REMARK  Name = 
REMARK  4 active torsions:
REMARK  status: ('A' for Active; 'I' for Inactive)
REMARK    1  A    between atoms: C_2  and  C_4
REMARK    2  A    between atoms: C_8  and  C_9
REMARK    3  A    between atoms: C_11  and  C_12
REMARK    4  A    between atoms: C_16  and  C_17
REMARK                            x       y       z     vdW  Elec       q    Type
REMARK                         _______ _______ _______ _____ _____    ______ ____
ROOT
ATOM      1  C   UNL     1       2.471   7.260  18.532  0.00  0.00    +0.000 A 
ATOM      2  C   UNL     1       1.933   8.342  17.874  0.00  0.00    +0.000 A 
ATOM      3  C   UNL     1       1.354   9.095  18.869  0.00  0.00    +0.000 A 
ATOM      4  O   UNL     1       1.547   8.484  20.018  0.00  0.00    +0.000 OA
ATOM      5  N   UNL     1       2.212   7.375  19.851  0.00  0.00    +0.000 NA
ENDROOT
BRANCH   1  10
ATOM      6  C   UNL     1       3.596   3.754  17.604  0.00  0.00    +0.000 A 
ATOM      7  C   UNL     1       4.741   4.045  16.838  0.00  0.00    +0.000 A 
ATOM      8  C   UNL     1       5.119   5.366  16.602  0.00  0.00    +0.000 A 
ATOM      9  C   UNL     1       4.378   6.414  17.141  0.00  0.00    +0.000 A 
ATOM     10  C   UNL     1       3.240   6.153  17.922  0.00  0.00    +0.000 A 
ATOM     11  C   UNL     1       2.848   4.822  18.137  0.00  0.00    +0.000 A 
BRANCH   6  13
ATOM     12  N   UNL     1       1.920   2.043  17.752  0.00  0.00    +0.000 NA
ATOM     13  C   UNL     1       3.165   2.349  17.850  0.00  0.00    +0.000 C 
ATOM     14  N   UNL     1       4.106   1.340  18.202  0.00  0.00    +0.000 N 
ATOM     15  H   UNL     1       1.582   1.082  17.904  0.00  0.00    +0.000 HD
ATOM     16  H   UNL     1       3.793   0.374  18.375  0.00  0.00    +0.000 HD
ATOM     17  H   UNL     1       5.089   1.567  18.399  0.00  0.00    +0.000 HD
ENDBRANCH   6  13
ENDBRANCH   1  10
BRANCH   3  18
ATOM     18  C   UNL     1       0.640  10.378  18.702  0.00  0.00    +0.000 A 
ATOM     19  C   UNL     1       1.246  11.592  19.042  0.00  0.00    +0.000 A 
ATOM     20  N   UNL     1       0.576  12.756  18.875  0.00  0.00    +0.000 NA
ATOM     21  C   UNL     1      -0.690  12.797  18.390  0.00  0.00    +0.000 A 
ATOM     22  C   UNL     1      -1.373  11.610  18.035  0.00  0.00    +0.000 A 
ATOM     23  C   UNL     1      -0.668  10.396  18.199  0.00  0.00    +0.000 A 
BRANCH  22  24
ATOM     24  C   UNL     1      -2.793  11.630  17.509  0.00  0.00    +0.000 C 
ATOM     25  N   UNL     1      -3.063  11.358  16.277  0.00  0.00    +0.000 NA
ATOM     26  N   UNL     1      -3.896  11.956  18.349  0.00  0.00    +0.000 N 
ATOM     27  H   UNL     1      -2.371  11.109  15.561  0.00  0.00    +0.000 HD
ATOM     28  H   UNL     1      -3.801  12.195  19.344  0.00  0.00    +0.000 HD
ATOM     29  H   UNL     1      -4.846  11.971  17.957  0.00  0.00    +0.000 HD
ENDBRANCH  22  24
ENDBRANCH   3  18
TORSDOF 4
ENDMDL
MODEL 5
REMARK VINA RESULT:      -8.4      1.692      2.417
REMARK  Name = 
REMARK  4 active torsions:
REMARK  status: ('A' for Active; 'I' for Inactive)
REMARK    1  A    between atoms: C_2  and  C_4
REMARK    2  A    between atoms: C_8  and  C_9
REMARK    3  A    between atoms: C_11  and  C_12
REMARK    4  A    between atoms: C_16  and  C_17
REMARK                            x       y       z     vdW  Elec       q    Type
REMARK                         _______ _______ _______ _____ _____    ______ ____
ROOT
ATOM      1  C   UNL     1       2.481   7.160  18.672  0.00  0.00    +0.000 A 
ATOM      2  C   UNL     1       1.902   8.240  18.045  0.00  0.00    +0.000 A 
ATOM      3  C   UNL     1       1.366   8.985  19.070  0.00  0.00    +0.000 A 
ATOM      4  O   UNL     1       1.622   8.372  20.206  0.00  0.00    +0.000 OA
ATOM      5  N   UNL     1       2.287   7.270  20.002  0.00  0.00    +0.000 NA
ENDROOT
BRANCH   1  10
ATOM      6  C   UNL     1       3.615   3.668  17.706  0.00  0.00    +0.000 A 
ATOM      7  C   UNL     1       4.694   3.973  16.855  0.00  0.00    +0.000 A 
ATOM      8  C   UNL     1       5.024   5.299  16.577  0.00  0.00    +0.000 A 
ATOM      9  C   UNL     1       4.301   6.337  17.156  0.00  0.00    +0.000 A 
ATOM     10  C   UNL     1       3.229   6.063  18.021  0.00  0.00    +0.000 A 
ATOM     11  C   UNL     1       2.884   4.727  18.279  0.00  0.00    +0.000 A 
BRANCH   6  13
ATOM     12  N   UNL     1       4.148   1.352  18.039  0.00  0.00    +0.000 NA
ATOM     13  C   UNL     1       3.235   2.257  18.000  0.00  0.00    +0.000 C 
ATOM     14  N   UNL     1       1.878   1.891  18.230  0.00  0.00    +0.000 N 
ATOM     15  H   UNL     1       3.929   0.367  18.249  0.00  0.00    +0.000 HD
ATOM     16  H   UNL     1       1.631   0.911  18.426  0.00  0.00    +0.000 HD
ATOM     17  H   UNL     1       1.111   2.562  18.097  0.00  0.00    +0.000 HD
ENDBRANCH   6  13
ENDBRANCH   1  10
BRANCH   3  18
ATOM     18  C   UNL     1       0.633  10.262  18.944  0.00  0.00    +0.000 A 
ATOM     19  C   UNL     1       1.083  11.420  19.587  0.00  0.00    +0.000 A 
ATOM     20  N   UNL     1       0.400  12.581  19.452  0.00  0.00    +0.000 NA
ATOM     21  C   UNL     1      -0.732  12.670  18.710  0.00  0.00    +0.000 A 
ATOM     22  C   UNL     1      -1.255  11.540  18.039  0.00  0.00    +0.000 A 
ATOM     23  C   UNL     1      -0.534  10.331  18.172  0.00  0.00    +0.000 A 
BRANCH  22  24
ATOM     24  C   UNL     1      -2.526  11.611  17.221  0.00  0.00    +0.000 C 
ATOM     25  N   UNL     1      -3.644  11.999  17.738  0.00  0.00    +0.000 NA
ATOM     26  N   UNL     1      -2.550  11.250  15.844  0.00  0.00    +0.000 N 
ATOM     27  H   UNL     1      -3.776  12.285  18.714  0.00  0.00    +0.000 HD
ATOM     28  H   UNL     1      -1.723  10.923  15.328  0.00  0.00    +0.000 HD
ATOM     29  H   UNL     1      -3.434  11.301  15.320  0.00  0.00    +0.000 HD
ENDBRANCH  22  24
ENDBRANCH   3  18
TORSDOF 4
ENDMDL
MODEL 6
REMARK VINA RESULT:      -8.4      2.902      8.387
REMARK  Name = 
REMARK  4 active torsions:
REMARK  status: ('A' for Active; 'I' for Inactive)
REMARK    1  A    between atoms: C_2  and  C_4
REMARK    2  A    between atoms: C_8  and  C_9
REMARK    3  A    between atoms: C_11  and  C_12
REMARK    4  A    between atoms: C_16  and  C_17
REMARK                            x       y       z     vdW  Elec       q    Type
REMARK                         _______ _______ _______ _____ _____    ______ ____
ROOT
ATOM      1  C   UNL     1       3.288   6.225  18.157  0.00  0.00    +0.000 A 
ATOM      2  C   UNL     1       4.145   6.526  17.123  0.00  0.00    +0.000 A 
ATOM      3  C   UNL     1       4.651   5.309  16.731  0.00  0.00    +0.000 A 
ATOM      4  O   UNL     1       4.121   4.375  17.489  0.00  0.00    +0.000 OA
ATOM      5  N   UNL     1       3.300   4.891  18.361  0.00  0.00    +0.000 NA
ENDROOT
BRANCH   1  10
ATOM      6  C   UNL     1       1.312   9.340  19.054  0.00  0.00    +0.000 A 
ATOM      7  C   UNL     1       0.945   9.040  20.380  0.00  0.00    +0.000 A 
ATOM      8  C   UNL     1       1.311   7.826  20.958  0.00  0.00    +0.000 A 
ATOM      9  C   UNL     1       2.063   6.903  20.237  0.00  0.00    +0.000 A 
ATOM     10  C   UNL     1       2.456   7.182  18.917  0.00  0.00    +0.000 A 
ATOM     11  C   UNL     1       2.065   8.395  18.329  0.00  0.00    +0.000 A 
BRANCH   6  13
ATOM     12  N   UNL     1      -0.293  10.774  17.993  0.00  0.00    +0.000 NA
ATOM     13  C   UNL     1       0.913  10.625  18.412  0.00  0.00    +0.000 C 
ATOM     14  N   UNL     1       1.847  11.686  18.246  0.00  0.00    +0.000 N 
ATOM     15  H   UNL     1      -0.612  11.650  17.554  0.00  0.00    +0.000 HD
ATOM     16  H   UNL     1       1.559  12.566  17.795  0.00  0.00    +0.000 HD
ATOM     17  H   UNL     1       2.844  11.564  18.464  0.00  0.00    +0.000 HD
ENDBRANCH   6  13
ENDBRANCH   1  10
BRANCH   3  18
ATOM     18  C   UNL     1       5.619   5.066  15.641  0.00  0.00    +0.000 A 
ATOM     19  C   UNL     1       6.903   5.619  15.678  0.00  0.00    +0.000 A 
ATOM     20  N   UNL     1       7.776   5.378  14.671  0.00  0.00    +0.000 NA
ATOM     21  C   UNL     1       7.449   4.614  13.599  0.00  0.00    +0.000 A 
ATOM     22  C   UNL     1       6.166   4.029  13.486  0.00  0.00    +0.000 A 
ATOM     23  C   UNL     1       5.259   4.272  14.543  0.00  0.00    +0.000 A 
BRANCH  22  24
ATOM     24  C   UNL     1       5.773   3.187  12.291  0.00  0.00    +0.000 C 
ATOM     25  N   UNL     1       6.545   2.261  11.831  0.00  0.00    +0.000 NA
ATOM     26  N   UNL     1       4.535   3.382  11.615  0.00  0.00    +0.000 N 
ATOM     27  H   UNL     1       7.464   2.013  12.215  0.00  0.00    +0.000 HD
ATOM     28  H   UNL     1       3.844   4.091  11.889  0.00  0.00    +0.000 HD
ATOM     29  H   UNL     1       4.304   2.799  10.800  0.00  0.00    +0.000 HD
ENDBRANCH  22  24
ENDBRANCH   3  18
TORSDOF 4
ENDMDL
MODEL 7
REMARK VINA RESULT:      -8.3      2.388      8.638
REMARK  Name = 
REMARK  4 active torsions:
REMARK  status: ('A' for Active; 'I' for Inactive)
REMARK    1  A    between atoms: C_2  and  C_4
REMARK    2  A    between atoms: C_8  and  C_9
REMARK    3  A    between atoms: C_11  and  C_12
REMARK    4  A    between atoms: C_16  and  C_17
REMARK                            x       y       z     vdW  Elec       q    Type
REMARK                         _______ _______ _______ _____ _____    ______ ____
ROOT
ATOM      1  C   UNL     1       1.526   9.069  18.655  0.00  0.00    +0.000 A 
ATOM      2  C   UNL     1       2.023   7.898  19.179  0.00  0.00    +0.000 A 
ATOM      3  C   UNL     1       2.914   7.450  18.232  0.00  0.00    +0.000 A 
ATOM      4  O   UNL     1       2.925   8.306  17.234  0.00  0.00    +0.000 OA
ATOM      5  N   UNL     1       2.099   9.290  17.454  0.00  0.00    +0.000 NA
ENDROOT
BRANCH   1  10
ATOM      6  C   UNL     1      -0.610  10.748  21.307  0.00  0.00    +0.000 A 
ATOM      7  C   UNL     1      -1.367  11.629  20.510  0.00  0.00    +0.000 A 
ATOM      8  C   UNL     1      -1.158  11.694  19.133  0.00  0.00    +0.000 A 
ATOM      9  C   UNL     1      -0.212  10.872  18.528  0.00  0.00    +0.000 A 
ATOM     10  C   UNL     1       0.547   9.974  19.296  0.00  0.00    +0.000 A 
ATOM     11  C   UNL     1       0.352   9.928  20.685  0.00  0.00    +0.000 A 
BRANCH   6  13
ATOM     12  N   UNL     1       0.017   9.995  23.497  0.00  0.00    +0.000 NA
ATOM     13  C   UNL     1      -0.806  10.678  22.783  0.00  0.00    +0.000 C 
ATOM     14  N   UNL     1      -1.892  11.347  23.415  0.00  0.00    +0.000 N 
ATOM     15  H   UNL     1      -0.076   9.930  24.522  0.00  0.00    +0.000 HD
ATOM     16  H   UNL     1      -2.018  11.284  24.436  0.00  0.00    +0.000 HD
ATOM     17  H   UNL     1      -2.632  11.807  22.869  0.00  0.00    +0.000 HD
ENDBRANCH   6  13
ENDBRANCH   1  10
BRANCH   3  18
ATOM     18  C   UNL     1       3.737   6.224  18.305  0.00  0.00    +0.000 A 
ATOM     19  C   UNL     1       3.320   5.117  19.052  0.00  0.00    +0.000 A 
ATOM     20  N   UNL     1       4.086   4.002  19.100  0.00  0.00    +0.000 NA
ATOM     21  C   UNL     1       5.272   3.912  18.448  0.00  0.00    +0.000 A 
ATOM     22  C   UNL     1       5.765   4.994  17.681  0.00  0.00    +0.000 A 
ATOM     23  C   UNL     1       4.959   6.154  17.623  0.00  0.00    +0.000 A 
BRANCH  22  24
ATOM     24  C   UNL     1       7.094   4.923  16.960  0.00  0.00    +0.000 C 
ATOM     25  N   UNL     1       8.058   4.177  17.386  0.00  0.00    +0.000 NA
ATOM     26  N   UNL     1       7.345   5.681  15.781  0.00  0.00    +0.000 N 
ATOM     27  H   UNL     1       8.020   3.583  18.221  0.00  0.00    +0.000 HD
ATOM     28  H   UNL     1       6.655   6.311  15.353  0.00  0.00    +0.000 HD
ATOM     29  H   UNL     1       8.263   5.617  15.322  0.00  0.00    +0.000 HD
ENDBRANCH  22  24
ENDBRANCH   3  18
TORSDOF 4
ENDMDL
MODEL 8
REMARK VINA RESULT:      -8.3      1.074      8.596
REMARK  Name = 
REMARK  4 active torsions:
REMARK  status: ('A' for Active; 'I' for Inactive)
REMARK    1  A    between atoms: C_2  and  C_4
REMARK    2  A    between atoms: C_8  and  C_9
REMARK    3  A    between atoms: C_11  and  C_12
REMARK    4  A    between atoms: C_16  and  C_17
REMARK                            x       y       z     vdW  Elec       q    Type
REMARK                         _______ _______ _______ _____ _____    ______ ____
ROOT
ATOM      1  C   UNL     1       1.510   8.941  19.184  0.00  0.00    +0.000 A 
ATOM      2  C   UNL     1       2.081   8.204  18.172  0.00  0.00    +0.000 A 
ATOM      3  C   UNL     1       2.565   7.078  18.797  0.00  0.00    +0.000 A 
ATOM      4  O   UNL     1       2.289   7.165  20.080  0.00  0.00    +0.000 OA
ATOM      5  N   UNL     1       1.659   8.274  20.348  0.00  0.00    +0.000 NA
ENDROOT
BRANCH   1  10
ATOM      6  C   UNL     1      -1.060  11.542  18.165  0.00  0.00    +0.000 A 
ATOM      7  C   UNL     1      -0.475  12.706  18.700  0.00  0.00    +0.000 A 
ATOM      8  C   UNL     1       0.722  12.635  19.410  0.00  0.00    +0.000 A 
ATOM      9  C   UNL     1       1.365  11.413  19.579  0.00  0.00    +0.000 A 
ATOM     10  C   UNL     1       0.813  10.237  19.043  0.00  0.00    +0.000 A 
ATOM     11  C   UNL     1      -0.406  10.309  18.350  0.00  0.00    +0.000 A 
BRANCH   6  13
ATOM     12  N   UNL     1      -2.358  11.366  16.154  0.00  0.00    +0.000 NA
ATOM     13  C   UNL     1      -2.350  11.596  17.419  0.00  0.00    +0.000 C 
ATOM     14  N   UNL     1      -3.572  11.905  18.081  0.00  0.00    +0.000 N 
ATOM     15  H   UNL     1      -3.229  11.383  15.604  0.00  0.00    +0.000 HD
ATOM     16  H   UNL     1      -4.454  11.945  17.552  0.00  0.00    +0.000 HD
ATOM     17  H   UNL     1      -3.589  12.204  19.065  0.00  0.00    +0.000 HD
ENDBRANCH   6  13
ENDBRANCH   1  10
BRANCH   3  18
ATOM     18  C   UNL     1       3.268   5.947  18.157  0.00  0.00    +0.000 A 
ATOM     19  C   UNL     1       2.579   4.792  17.772  0.00  0.00    +0.000 A 
ATOM     20  N   UNL     1       3.242   3.771  17.182  0.00  0.00    +0.000 NA
ATOM     21  C   UNL     1       4.578   3.815  16.949  0.00  0.00    +0.000 A 
ATOM     22  C   UNL     1       5.344   4.945  17.319  0.00  0.00    +0.000 A 
ATOM     23  C   UNL     1       4.649   6.016  17.926  0.00  0.00    +0.000 A 
BRANCH  22  24
ATOM     24  C   UNL     1       6.838   5.009  17.086  0.00  0.00    +0.000 C 
ATOM     25  N   UNL     1       7.669   4.353  17.826  0.00  0.00    +0.000 NA
ATOM     26  N   UNL     1       7.398   5.800  16.043  0.00  0.00    +0.000 N 
ATOM     27  H   UNL     1       7.409   3.748  18.612  0.00  0.00    +0.000 HD
ATOM     28  H   UNL     1       6.836   6.367  15.396  0.00  0.00    +0.000 HD
ATOM     29  H   UNL     1       8.418   5.830  15.919  0.00  0.00    +0.000 HD
ENDBRANCH  22  24
ENDBRANCH   3  18
TORSDOF 4
ENDMDL
MODEL 9
REMARK VINA RESULT:      -8.3      1.764      8.465
REMARK  Name = 
REMARK  4 active torsions:
REMARK  status: ('A' for Active; 'I' for Inactive)
REMARK    1  A    between atoms: C_2  and  C_4
REMARK    2  A    between atoms: C_8  and  C_9
REMARK    3  A    between atoms: C_11  and  C_12
REMARK    4  A    between atoms: C_16  and  C_17
REMARK                            x       y       z     vdW  Elec       q    Type
REMARK                         _______ _______ _______ _____ _____    ______ ____
ROOT
ATOM      1  C   UNL     1       1.434   9.076  18.979  0.00  0.00    +0.000 A 
ATOM      2  C   UNL     1       2.046   8.348  17.985  0.00  0.00    +0.000 A 
ATOM      3  C   UNL     1       2.544   7.239  18.628  0.00  0.00    +0.000 A 
ATOM      4  O   UNL     1       2.237   7.326  19.904  0.00  0.00    +0.000 OA
ATOM      5  N   UNL     1       1.573   8.421  20.151  0.00  0.00    +0.000 NA
ENDROOT
BRANCH   1  10
ATOM      6  C   UNL     1      -1.226  11.588  17.964  0.00  0.00    +0.000 A 
ATOM      7  C   UNL     1      -0.640  12.783  18.424  0.00  0.00    +0.000 A 
ATOM      8  C   UNL     1       0.588  12.763  19.083  0.00  0.00    +0.000 A 
ATOM      9  C   UNL     1       1.260  11.560  19.275  0.00  0.00    +0.000 A 
ATOM     10  C   UNL     1       0.707  10.353  18.815  0.00  0.00    +0.000 A 
ATOM     11  C   UNL     1      -0.541  10.375  18.173  0.00  0.00    +0.000 A 
BRANCH   6  13
ATOM     12  N   UNL     1      -2.600  11.352  16.012  0.00  0.00    +0.000 NA
ATOM     13  C   UNL     1      -2.547  11.588  17.275  0.00  0.00    +0.000 C 
ATOM     14  N   UNL     1      -3.751  11.853  17.987  0.00  0.00    +0.000 N 
ATOM     15  H   UNL     1      -3.494  11.332  15.499  0.00  0.00    +0.000 HD
ATOM     16  H   UNL     1      -4.656  11.856  17.496  0.00  0.00    +0.000 HD
ATOM     17  H   UNL     1      -3.738  12.156  18.970  0.00  0.00    +0.000 HD
ENDBRANCH   6  13
ENDBRANCH   1  10
BRANCH   3  18
ATOM     18  C   UNL     1       3.290   6.122  18.011  0.00  0.00    +0.000 A 
ATOM     19  C   UNL     1       4.398   6.359  17.191  0.00  0.00    +0.000 A 
ATOM     20  N   UNL     1       5.071   5.321  16.641  0.00  0.00    +0.000 NA
ATOM     21  C   UNL     1       4.704   4.032  16.848  0.00  0.00    +0.000 A 
ATOM     22  C   UNL     1       3.587   3.713  17.657  0.00  0.00    +0.000 A 
ATOM     23  C   UNL     1       2.892   4.798  18.240  0.00  0.00    +0.000 A 
BRANCH  22  24
ATOM     24  C   UNL     1       3.148   2.283  17.887  0.00  0.00    +0.000 C 
ATOM     25  N   UNL     1       1.909   1.931  17.796  0.00  0.00    +0.000 NA
ATOM     26  N   UNL     1       4.081   1.260  18.221  0.00  0.00    +0.000 N 
ATOM     27  H   UNL     1       1.132   2.560  17.567  0.00  0.00    +0.000 HD
ATOM     28  H   UNL     1       5.090   1.424  18.325  0.00  0.00    +0.000 HD
ATOM     29  H   UNL     1       3.747   0.301  18.381  0.00  0.00    +0.000 HD
ENDBRANCH  22  24
ENDBRANCH   3  18
TORSDOF 4
ENDMDL
