MODEL 1
REMARK VINA RESULT:      -8.8      0.000      0.000
REMARK  Name = 
REMARK  7 active torsions:
REMARK  status: ('A' for Active; 'I' for Inactive)
REMARK    1  A    between atoms: C_5  and  C_6
REMARK    2  A    between atoms: C_10  and  C_11
REMARK    3  A    between atoms: C_18  and  N_19
REMARK    4  A    between atoms: N_19  and  C_20
REMARK    5  A    between atoms: C_20  and  C_21
REMARK    6  A    between atoms: C_21  and  C_22
REMARK    7  A    between atoms: C_22  and  N_23
REMARK                            x       y       z     vdW  Elec       q    Type
REMARK                         _______ _______ _______ _____ _____    ______ ____
ROOT
ATOM      1  C   UNL     1       1.049   9.355  19.002  0.00  0.00    +0.000 A 
ATOM      2  C   UNL     1       1.914   9.275  17.883  0.00  0.00    +0.000 A 
ATOM      3  C   UNL     1       2.673   8.148  18.066  0.00  0.00    +0.000 A 
ATOM      4  N   UNL     1       3.657   7.591  17.304  0.00  0.00    +0.000 NA
ATOM      5  C   UNL     1       4.177   6.479  17.742  0.00  0.00    +0.000 A 
ATOM      6  C   UNL     1       3.798   5.813  19.029  0.00  0.00    +0.000 A 
ATOM      7  C   UNL     1       2.820   6.385  19.754  0.00  0.00    +0.000 A 
ATOM      8  N   UNL     1       2.237   7.581  19.262  0.00  0.00    +0.000 N 
ATOM      9  N   UNL     1       1.259   8.334  19.849  0.00  0.00    +0.000 NA
ENDROOT
BRANCH   1  14
ATOM     10  F   UNL     1      -2.807  13.293  19.990  0.00  0.00    +0.000 F 
ATOM     11  C   UNL     1      -1.887  12.351  19.754  0.00  0.00    +0.000 A 
ATOM     12  C   UNL     1      -1.003  11.989  20.762  0.00  0.00    +0.000 A 
ATOM     13  C   UNL     1      -0.042  11.004  20.515  0.00  0.00    +0.000 A 
ATOM     14  C   UNL     1       0.039  10.385  19.257  0.00  0.00    +0.000 A 
ATOM     15  C   UNL     1      -0.867  10.763  18.254  0.00  0.00    +0.000 A 
ATOM     16  C   UNL     1      -1.831  11.744  18.504  0.00  0.00    +0.000 A 
ENDBRANCH   1  14
BRANCH   5  17
ATOM     17  C   UNL     1       5.236   5.808  16.932  0.00  0.00    +0.000 A 
ATOM     18  C   UNL     1       5.115   5.806  15.537  0.00  0.00    +0.000 A 
ATOM     19  C   UNL     1       6.079   5.170  14.752  0.00  0.00    +0.000 A 
ATOM     20  C   UNL     1       7.158   4.527  15.357  0.00  0.00    +0.000 A 
ATOM     21  C   UNL     1       7.274   4.511  16.745  0.00  0.00    +0.000 A 
ATOM     22  C   UNL     1       6.310   5.142  17.535  0.00  0.00    +0.000 A 
ENDBRANCH   5  17
BRANCH   7  23
ATOM     23  N   UNL     1       2.336   5.855  20.960  0.00  0.00    +0.000 N 
ATOM     24  H   UNL     1       3.140   5.653  21.572  0.00  0.00    +0.000 HD
BRANCH  23  25
ATOM     25  C   UNL     1       1.370   4.759  20.983  0.00  0.00    +0.000 C 
BRANCH  25  26
ATOM     26  C   UNL     1       2.028   3.486  21.502  0.00  0.00    +0.000 C 
BRANCH  26  27
ATOM     27  C   UNL     1       1.683   2.286  20.624  0.00  0.00    +0.000 C 
BRANCH  27  28
ATOM     28  N   UNL     1       2.256   2.379  19.298  0.00  0.00    +0.000 N 
ATOM     29  C   UNL     1       3.546   2.095  18.949  0.00  0.00    +0.000 A 
ATOM     30  C   UNL     1       3.625   2.409  17.612  0.00  0.00    +0.000 A 
ATOM     31  N   UNL     1       2.420   2.868  17.147  0.00  0.00    +0.000 NA
ATOM     32  C   UNL     1       1.615   2.842  18.185  0.00  0.00    +0.000 A 
ENDBRANCH  27  28
ENDBRANCH  26  27
ENDBRANCH  25  26
ENDBRANCH  23  25
ENDBRANCH   7  23
TORSDOF 7
ENDMDL
MODEL 2
REMARK VINA RESULT:      -8.8      0.316      1.225
REMARK  Name = 
REMARK  7 active torsions:
REMARK  status: ('A' for Active; 'I' for Inactive)
REMARK    1  A    between atoms: C_5  and  C_6
REMARK    2  A    between atoms: C_10  and  C_11
REMARK    3  A    between atoms: C_18  and  N_19
REMARK    4  A    between atoms: N_19  and  C_20
REMARK    5  A    between atoms: C_20  and  C_21
REMARK    6  A    between atoms: C_21  and  C_22
REMARK    7  A    between atoms: C_22  and  N_23
REMARK                            x       y       z     vdW  Elec       q    Type
REMARK                         _______ _______ _______ _____ _____    ______ ____
ROOT
ATOM      1  C   UNL     1       1.120   9.453  18.996  0.00  0.00    +0.000 A 
ATOM      2  C   UNL     1       1.983   9.368  17.877  0.00  0.00    +0.000 A 
ATOM      3  C   UNL     1       2.700   8.210  18.035  0.00  0.00    +0.000 A 
ATOM      4  N   UNL     1       3.665   7.635  17.261  0.00  0.00    +0.000 NA
ATOM      5  C   UNL     1       4.144   6.496  17.673  0.00  0.00    +0.000 A 
ATOM      6  C   UNL     1       3.738   5.814  18.944  0.00  0.00    +0.000 A 
ATOM      7  C   UNL     1       2.780   6.404  19.681  0.00  0.00    +0.000 A 
ATOM      8  N   UNL     1       2.241   7.632  19.216  0.00  0.00    +0.000 N 
ATOM      9  N   UNL     1       1.291   8.406  19.820  0.00  0.00    +0.000 NA
ENDROOT
BRANCH   1  14
ATOM     10  F   UNL     1      -2.609  13.495  20.049  0.00  0.00    +0.000 F 
ATOM     11  C   UNL     1      -1.717  12.531  19.797  0.00  0.00    +0.000 A 
ATOM     12  C   UNL     1      -2.036  11.522  18.897  0.00  0.00    +0.000 A 
ATOM     13  C   UNL     1      -1.103  10.515  18.633  0.00  0.00    +0.000 A 
ATOM     14  C   UNL     1       0.147  10.513  19.274  0.00  0.00    +0.000 A 
ATOM     15  C   UNL     1       0.450  11.545  20.177  0.00  0.00    +0.000 A 
ATOM     16  C   UNL     1      -0.482  12.554  20.435  0.00  0.00    +0.000 A 
ENDBRANCH   1  14
BRANCH   5  17
ATOM     17  C   UNL     1       5.179   5.806  16.849  0.00  0.00    +0.000 A 
ATOM     18  C   UNL     1       6.224   5.142  17.501  0.00  0.00    +0.000 A 
ATOM     19  C   UNL     1       7.219   4.503  16.757  0.00  0.00    +0.000 A 
ATOM     20  C   UNL     1       7.177   4.534  15.364  0.00  0.00    +0.000 A 
ATOM     21  C   UNL     1       6.148   5.207  14.710  0.00  0.00    +0.000 A 
ATOM     22  C   UNL     1       5.154   5.852  15.449  0.00  0.00    +0.000 A 
ENDBRANCH   5  17
BRANCH   7  23
ATOM     23  N   UNL     1       2.275   5.864  20.873  0.00  0.00    +0.000 N 
ATOM     24  H   UNL     1       3.056   5.753  21.536  0.00  0.00    +0.000 HD
BRANCH  23  25
ATOM     25  C   UNL     1       1.411   4.685  20.876  0.00  0.00    +0.000 C 
BRANCH  25  26
ATOM     26  C   UNL     1       2.063   3.555  21.664  0.00  0.00    +0.000 C 
BRANCH  26  27
ATOM     27  C   UNL     1       1.891   2.214  20.955  0.00  0.00    +0.000 C 
BRANCH  27  28
ATOM     28  N   UNL     1       2.344   2.246  19.580  0.00  0.00    +0.000 N 
ATOM     29  C   UNL     1       3.640   2.194  19.150  0.00  0.00    +0.000 A 
ATOM     30  C   UNL     1       3.562   2.334  17.783  0.00  0.00    +0.000 A 
ATOM     31  N   UNL     1       2.258   2.463  17.380  0.00  0.00    +0.000 NA
ATOM     32  C   UNL     1       1.547   2.410  18.483  0.00  0.00    +0.000 A 
ENDBRANCH  27  28
ENDBRANCH  26  27
ENDBRANCH  25  26
ENDBRANCH  23  25
ENDBRANCH   7  23
TORSDOF 7
ENDMDL
MODEL 3
REMARK VINA RESULT:      -8.4      0.539      1.120
REMARK  Name = 
REMARK  7 active torsions:
REMARK  status: ('A' for Active; 'I' for Inactive)
REMARK    1  A    between atoms: C_5  and  C_6
REMARK    2  A    between atoms: C_10  and  C_11
REMARK    3  A    between atoms: C_18  and  N_19
REMARK    4  A    between atoms: N_19  and  C_20
REMARK    5  A    between atoms: C_20  and  C_21
REMARK    6  A    between atoms: C_21  and  C_22
REMARK    7  A    between atoms: C_22  and  N_23
REMARK                            x       y       z     vdW  Elec       q    Type
REMARK                         _______ _______ _______ _____ _____    ______ ____
ROOT
ATOM      1  C   UNL     1       1.057   9.543  19.127  0.00  0.00    +0.000 A 
ATOM      2  C   UNL     1       1.992   9.502  18.065  0.00  0.00    +0.000 A 
ATOM      3  C   UNL     1       2.661   8.311  18.190  0.00  0.00    +0.000 A 
ATOM      4  N   UNL     1       3.659   7.755  17.446  0.00  0.00    +0.000 NA
ATOM      5  C   UNL     1       4.073   6.575  17.810  0.00  0.00    +0.000 A 
ATOM      6  C   UNL     1       3.559   5.825  19.001  0.00  0.00    +0.000 A 
ATOM      7  C   UNL     1       2.571   6.399  19.710  0.00  0.00    +0.000 A 
ATOM      8  N   UNL     1       2.104   7.673  19.296  0.00  0.00    +0.000 N 
ATOM      9  N   UNL     1       1.138   8.438  19.886  0.00  0.00    +0.000 NA
ENDROOT
BRANCH   1  14
ATOM     10  F   UNL     1      -2.600  13.646  20.197  0.00  0.00    +0.000 F 
ATOM     11  C   UNL     1      -1.726  12.667  19.942  0.00  0.00    +0.000 A 
ATOM     12  C   UNL     1      -1.239  12.502  18.652  0.00  0.00    +0.000 A 
ATOM     13  C   UNL     1      -0.324  11.478  18.386  0.00  0.00    +0.000 A 
ATOM     14  C   UNL     1       0.100  10.615  19.411  0.00  0.00    +0.000 A 
ATOM     15  C   UNL     1      -0.401  10.804  20.708  0.00  0.00    +0.000 A 
ATOM     16  C   UNL     1      -1.312  11.831  20.973  0.00  0.00    +0.000 A 
ENDBRANCH   1  14
BRANCH   5  17
ATOM     17  C   UNL     1       5.141   5.905  17.012  0.00  0.00    +0.000 A 
ATOM     18  C   UNL     1       5.036   5.904  15.615  0.00  0.00    +0.000 A 
ATOM     19  C   UNL     1       6.009   5.269  14.841  0.00  0.00    +0.000 A 
ATOM     20  C   UNL     1       7.082   4.626  15.458  0.00  0.00    +0.000 A 
ATOM     21  C   UNL     1       7.182   4.609  16.847  0.00  0.00    +0.000 A 
ATOM     22  C   UNL     1       6.209   5.239  17.626  0.00  0.00    +0.000 A 
ENDBRANCH   5  17
BRANCH   7  23
ATOM     23  N   UNL     1       1.968   5.798  20.827  0.00  0.00    +0.000 N 
ATOM     24  H   UNL     1       1.861   6.512  21.561  0.00  0.00    +0.000 HD
BRANCH  23  25
ATOM     25  C   UNL     1       2.464   4.542  21.383  0.00  0.00    +0.000 C 
BRANCH  25  26
ATOM     26  C   UNL     1       1.376   3.476  21.332  0.00  0.00    +0.000 C 
BRANCH  26  27
ATOM     27  C   UNL     1       1.870   2.211  20.636  0.00  0.00    +0.000 C 
BRANCH  27  28
ATOM     28  N   UNL     1       2.360   2.464  19.297  0.00  0.00    +0.000 N 
ATOM     29  C   UNL     1       1.636   2.953  18.247  0.00  0.00    +0.000 A 
ATOM     30  C   UNL     1       2.509   2.941  17.183  0.00  0.00    +0.000 A 
ATOM     31  N   UNL     1       3.737   2.466  17.566  0.00  0.00    +0.000 NA
ATOM     32  C   UNL     1       3.616   2.183  18.843  0.00  0.00    +0.000 A 
ENDBRANCH  27  28
ENDBRANCH  26  27
ENDBRANCH  25  26
ENDBRANCH  23  25
ENDBRANCH   7  23
TORSDOF 7
ENDMDL
MODEL 4
REMARK VINA RESULT:      -8.0      0.783      1.624
REMARK  Name = 
REMARK  7 active torsions:
REMARK  status: ('A' for Active; 'I' for Inactive)
REMARK    1  A    between atoms: C_5  and  C_6
REMARK    2  A    between atoms: C_10  and  C_11
REMARK    3  A    between atoms: C_18  and  N_19
REMARK    4  A    between atoms: N_19  and  C_20
REMARK    5  A    between atoms: C_20  and  C_21
REMARK    6  A    between atoms: C_21  and  C_22
REMARK    7  A    between atoms: C_22  and  N_23
REMARK                            x       y       z     vdW  Elec       q    Type
REMARK                         _______ _______ _______ _____ _____    ______ ____
ROOT
ATOM      1  C   UNL     1       1.169   9.334  18.976  0.00  0.00    +0.000 A 
ATOM      2  C   UNL     1       2.005   9.253  17.836  0.00  0.00    +0.000 A 
ATOM      3  C   UNL     1       2.747   8.110  17.987  0.00  0.00    +0.000 A 
ATOM      4  N   UNL     1       3.703   7.546  17.194  0.00  0.00    +0.000 NA
ATOM      5  C   UNL     1       4.213   6.420  17.605  0.00  0.00    +0.000 A 
ATOM      6  C   UNL     1       3.853   5.744  18.893  0.00  0.00    +0.000 A 
ATOM      7  C   UNL     1       2.903   6.324  19.648  0.00  0.00    +0.000 A 
ATOM      8  N   UNL     1       2.330   7.536  19.185  0.00  0.00    +0.000 N 
ATOM      9  N   UNL     1       1.380   8.298  19.805  0.00  0.00    +0.000 NA
ENDROOT
BRANCH   1  14
ATOM     10  F   UNL     1      -2.607  13.318  20.082  0.00  0.00    +0.000 F 
ATOM     11  C   UNL     1      -1.704  12.368  19.817  0.00  0.00    +0.000 A 
ATOM     12  C   UNL     1      -1.959  11.441  18.814  0.00  0.00    +0.000 A 
ATOM     13  C   UNL     1      -1.014  10.448  18.537  0.00  0.00    +0.000 A 
ATOM     14  C   UNL     1       0.184  10.378  19.268  0.00  0.00    +0.000 A 
ATOM     15  C   UNL     1       0.422  11.327  20.274  0.00  0.00    +0.000 A 
ATOM     16  C   UNL     1      -0.521  12.323  20.546  0.00  0.00    +0.000 A 
ENDBRANCH   1  14
BRANCH   5  17
ATOM     17  C   UNL     1       5.240   5.741  16.762  0.00  0.00    +0.000 A 
ATOM     18  C   UNL     1       6.311   5.097  17.394  0.00  0.00    +0.000 A 
ATOM     19  C   UNL     1       7.298   4.469  16.632  0.00  0.00    +0.000 A 
ATOM     20  C   UNL     1       7.224   4.490  15.240  0.00  0.00    +0.000 A 
ATOM     21  C   UNL     1       6.170   5.144  14.605  0.00  0.00    +0.000 A 
ATOM     22  C   UNL     1       5.183   5.777  15.363  0.00  0.00    +0.000 A 
ENDBRANCH   5  17
BRANCH   7  23
ATOM     23  N   UNL     1       2.439   5.786  20.858  0.00  0.00    +0.000 N 
ATOM     24  H   UNL     1       3.184   5.200  21.260  0.00  0.00    +0.000 HD
BRANCH  23  25
ATOM     25  C   UNL     1       1.139   5.126  20.956  0.00  0.00    +0.000 C 
BRANCH  25  26
ATOM     26  C   UNL     1       0.950   4.158  19.794  0.00  0.00    +0.000 C 
BRANCH  26  27
ATOM     27  C   UNL     1       1.289   2.727  20.201  0.00  0.00    +0.000 C 
BRANCH  27  28
ATOM     28  N   UNL     1       2.647   2.358  19.866  0.00  0.00    +0.000 N 
ATOM     29  C   UNL     1       3.073   1.805  18.691  0.00  0.00    +0.000 A 
ATOM     30  C   UNL     1       4.414   1.565  18.881  0.00  0.00    +0.000 A 
ATOM     31  N   UNL     1       4.808   1.963  20.133  0.00  0.00    +0.000 NA
ATOM     32  C   UNL     1       3.723   2.433  20.704  0.00  0.00    +0.000 A 
ENDBRANCH  27  28
ENDBRANCH  26  27
ENDBRANCH  25  26
ENDBRANCH  23  25
ENDBRANCH   7  23
TORSDOF 7
ENDMDL
MODEL 5
REMARK VINA RESULT:      -7.9      0.787      1.221
REMARK  Name = 
REMARK  7 active torsions:
REMARK  status: ('A' for Active; 'I' for Inactive)
REMARK    1  A    between atoms: C_5  and  C_6
REMARK    2  A    between atoms: C_10  and  C_11
REMARK    3  A    between atoms: C_18  and  N_19
REMARK    4  A    between atoms: N_19  and  C_20
REMARK    5  A    between atoms: C_20  and  C_21
REMARK    6  A    between atoms: C_21  and  C_22
REMARK    7  A    between atoms: C_22  and  N_23
REMARK                            x       y       z     vdW  Elec       q    Type
REMARK                         _______ _______ _______ _____ _____    ______ ____
ROOT
ATOM      1  C   UNL     1       1.123   9.063  19.492  0.00  0.00    +0.000 A 
ATOM      2  C   UNL     1       1.886   9.052  18.300  0.00  0.00    +0.000 A 
ATOM      3  C   UNL     1       2.661   7.922  18.352  0.00  0.00    +0.000 A 
ATOM      4  N   UNL     1       3.577   7.416  17.478  0.00  0.00    +0.000 NA
ATOM      5  C   UNL     1       4.136   6.286  17.804  0.00  0.00    +0.000 A 
ATOM      6  C   UNL     1       3.873   5.546  19.080  0.00  0.00    +0.000 A 
ATOM      7  C   UNL     1       2.960   6.069  19.918  0.00  0.00    +0.000 A 
ATOM      8  N   UNL     1       2.333   7.286  19.547  0.00  0.00    +0.000 N 
ATOM      9  N   UNL     1       1.408   7.997  20.259  0.00  0.00    +0.000 NA
ENDROOT
BRANCH   1  14
ATOM     10  F   UNL     1      -2.656  12.907  21.006  0.00  0.00    +0.000 F 
ATOM     11  C   UNL     1      -1.752  11.990  20.645  0.00  0.00    +0.000 A 
ATOM     12  C   UNL     1      -1.694  11.569  19.323  0.00  0.00    +0.000 A 
ATOM     13  C   UNL     1      -0.749  10.611  18.945  0.00  0.00    +0.000 A 
ATOM     14  C   UNL     1       0.136  10.068  19.892  0.00  0.00    +0.000 A 
ATOM     15  C   UNL     1       0.063  10.512  21.222  0.00  0.00    +0.000 A 
ATOM     16  C   UNL     1      -0.880  11.474  21.597  0.00  0.00    +0.000 A 
ENDBRANCH   1  14
BRANCH   5  17
ATOM     17  C   UNL     1       5.122   5.669  16.869  0.00  0.00    +0.000 A 
ATOM     18  C   UNL     1       4.643   4.944  15.770  0.00  0.00    +0.000 A 
ATOM     19  C   UNL     1       5.540   4.339  14.887  0.00  0.00    +0.000 A 
ATOM     20  C   UNL     1       6.914   4.448  15.104  0.00  0.00    +0.000 A 
ATOM     21  C   UNL     1       7.394   5.154  16.204  0.00  0.00    +0.000 A 
ATOM     22  C   UNL     1       6.502   5.757  17.093  0.00  0.00    +0.000 A 
ENDBRANCH   5  17
BRANCH   7  23
ATOM     23  N   UNL     1       2.586   5.468  21.130  0.00  0.00    +0.000 N 
ATOM     24  H   UNL     1       3.374   5.543  21.788  0.00  0.00    +0.000 HD
BRANCH  23  25
ATOM     25  C   UNL     1       1.991   4.134  21.173  0.00  0.00    +0.000 C 
BRANCH  25  26
ATOM     26  C   UNL     1       0.763   4.074  20.273  0.00  0.00    +0.000 C 
BRANCH  26  27
ATOM     27  C   UNL     1       0.679   2.739  19.537  0.00  0.00    +0.000 C 
BRANCH  27  28
ATOM     28  N   UNL     1       1.939   2.349  18.942  0.00  0.00    +0.000 N 
ATOM     29  C   UNL     1       2.961   1.687  19.562  0.00  0.00    +0.000 A 
ATOM     30  C   UNL     1       3.959   1.617  18.617  0.00  0.00    +0.000 A 
ATOM     31  N   UNL     1       3.564   2.212  17.446  0.00  0.00    +0.000 NA
ATOM     32  C   UNL     1       2.345   2.646  17.672  0.00  0.00    +0.000 A 
ENDBRANCH  27  28
ENDBRANCH  26  27
ENDBRANCH  25  26
ENDBRANCH  23  25
ENDBRANCH   7  23
TORSDOF 7
ENDMDL
MODEL 6
REMARK VINA RESULT:      -7.8      1.940      3.388
REMARK  Name = 
REMARK  7 active torsions:
REMARK  status: ('A' for Active; 'I' for Inactive)
REMARK    1  A    between atoms: C_5  and  C_6
REMARK    2  A    between atoms: C_10  and  C_11
REMARK    3  A    between atoms: C_18  and  N_19
REMARK    4  A    between atoms: N_19  and  C_20
REMARK    5  A    between atoms: C_20  and  C_21
REMARK    6  A    between atoms: C_21  and  C_22
REMARK    7  A    between atoms: C_22  and  N_23
REMARK                            x       y       z     vdW  Elec       q    Type
REMARK                         _______ _______ _______ _____ _____    ______ ____
ROOT
ATOM      1  C   UNL     1       2.983   7.198  18.666  0.00  0.00    +0.000 A 
ATOM      2  C   UNL     1       3.292   7.450  17.307  0.00  0.00    +0.000 A 
ATOM      3  C   UNL     1       4.168   6.465  16.926  0.00  0.00    +0.000 A 
ATOM      4  N   UNL     1       4.786   6.221  15.735  0.00  0.00    +0.000 NA
ATOM      5  C   UNL     1       5.553   5.170  15.678  0.00  0.00    +0.000 A 
ATOM      6  C   UNL     1       5.828   4.257  16.834  0.00  0.00    +0.000 A 
ATOM      7  C   UNL     1       5.199   4.523  17.993  0.00  0.00    +0.000 A 
ATOM      8  N   UNL     1       4.343   5.653  18.043  0.00  0.00    +0.000 N 
ATOM      9  N   UNL     1       3.637   6.115  19.118  0.00  0.00    +0.000 NA
ENDROOT
BRANCH   1  14
ATOM     10  F   UNL     1      -0.474  10.155  21.930  0.00  0.00    +0.000 F 
ATOM     11  C   UNL     1       0.351   9.449  21.150  0.00  0.00    +0.000 A 
ATOM     12  C   UNL     1       0.951   8.300  21.650  0.00  0.00    +0.000 A 
ATOM     13  C   UNL     1       1.812   7.561  20.833  0.00  0.00    +0.000 A 
ATOM     14  C   UNL     1       2.078   7.974  19.517  0.00  0.00    +0.000 A 
ATOM     15  C   UNL     1       1.457   9.135  19.030  0.00  0.00    +0.000 A 
ATOM     16  C   UNL     1       0.592   9.870  19.847  0.00  0.00    +0.000 A 
ENDBRANCH   1  14
BRANCH   5  17
ATOM     17  C   UNL     1       6.228   4.835  14.391  0.00  0.00    +0.000 A 
ATOM     18  C   UNL     1       5.680   3.830  13.585  0.00  0.00    +0.000 A 
ATOM     19  C   UNL     1       6.299   3.481  12.383  0.00  0.00    +0.000 A 
ATOM     20  C   UNL     1       7.471   4.126  11.988  0.00  0.00    +0.000 A 
ATOM     21  C   UNL     1       8.030   5.115  12.795  0.00  0.00    +0.000 A 
ATOM     22  C   UNL     1       7.417   5.465  14.000  0.00  0.00    +0.000 A 
ENDBRANCH   5  17
BRANCH   7  23
ATOM     23  N   UNL     1       5.332   3.734  19.146  0.00  0.00    +0.000 N 
ATOM     24  H   UNL     1       6.336   3.605  19.338  0.00  0.00    +0.000 HD
BRANCH  23  25
ATOM     25  C   UNL     1       4.600   2.480  19.307  0.00  0.00    +0.000 C 
BRANCH  25  26
ATOM     26  C   UNL     1       3.801   2.170  18.047  0.00  0.00    +0.000 C 
BRANCH  26  27
ATOM     27  C   UNL     1       2.373   1.750  18.385  0.00  0.00    +0.000 C 
BRANCH  27  28
ATOM     28  N   UNL     1       1.773   2.580  19.408  0.00  0.00    +0.000 N 
ATOM     29  C   UNL     1       1.200   3.806  19.226  0.00  0.00    +0.000 A 
ATOM     30  C   UNL     1       0.851   4.222  20.491  0.00  0.00    +0.000 A 
ATOM     31  N   UNL     1       1.193   3.279  21.425  0.00  0.00    +0.000 NA
ATOM     32  C   UNL     1       1.750   2.303  20.745  0.00  0.00    +0.000 A 
ENDBRANCH  27  28
ENDBRANCH  26  27
ENDBRANCH  25  26
ENDBRANCH  23  25
ENDBRANCH   7  23
TORSDOF 7
ENDMDL
MODEL 7
REMARK VINA RESULT:      -7.8      1.960      3.457
REMARK  Name = 
REMARK  7 active torsions:
REMARK  status: ('A' for Active; 'I' for Inactive)
REMARK    1  A    between atoms: C_5  and  C_6
REMARK    2  A    between atoms: C_10  and  C_11
REMARK    3  A    between atoms: C_18  and  N_19
REMARK    4  A    between atoms: N_19  and  C_20
REMARK    5  A    between atoms: C_20  and  C_21
REMARK    6  A    between atoms: C_21  and  C_22
REMARK    7  A    between atoms: C_22  and  N_23
REMARK                            x       y       z     vdW  Elec       q    Type
REMARK                         _______ _______ _______ _____ _____    ______ ____
ROOT
ATOM      1  C   UNL     1       2.997   7.133  18.656  0.00  0.00    +0.000 A 
ATOM      2  C   UNL     1       3.291   7.390  17.296  0.00  0.00    +0.000 A 
ATOM      3  C   UNL     1       4.184   6.424  16.908  0.00  0.00    +0.000 A 
ATOM      4  N   UNL     1       4.799   6.192  15.713  0.00  0.00    +0.000 NA
ATOM      5  C   UNL     1       5.588   5.158  15.651  0.00  0.00    +0.000 A 
ATOM      6  C   UNL     1       5.891   4.252  16.806  0.00  0.00    +0.000 A 
ATOM      7  C   UNL     1       5.265   4.505  17.969  0.00  0.00    +0.000 A 
ATOM      8  N   UNL     1       4.385   5.617  18.025  0.00  0.00    +0.000 N 
ATOM      9  N   UNL     1       3.678   6.064  19.105  0.00  0.00    +0.000 NA
ENDROOT
BRANCH   1  14
ATOM     10  F   UNL     1      -0.504  10.037  21.921  0.00  0.00    +0.000 F 
ATOM     11  C   UNL     1       0.334   9.343  21.143  0.00  0.00    +0.000 A 
ATOM     12  C   UNL     1       0.591   9.784  19.851  0.00  0.00    +0.000 A 
ATOM     13  C   UNL     1       1.467   9.060  19.037  0.00  0.00    +0.000 A 
ATOM     14  C   UNL     1       2.082   7.890  19.513  0.00  0.00    +0.000 A 
ATOM     15  C   UNL     1       1.812   7.465  20.824  0.00  0.00    +0.000 A 
ATOM     16  C   UNL     1       0.939   8.194  21.638  0.00  0.00    +0.000 A 
ENDBRANCH   1  14
BRANCH   5  17
ATOM     17  C   UNL     1       6.261   4.837  14.359  0.00  0.00    +0.000 A 
ATOM     18  C   UNL     1       5.727   3.820  13.558  0.00  0.00    +0.000 A 
ATOM     19  C   UNL     1       6.345   3.483  12.351  0.00  0.00    +0.000 A 
ATOM     20  C   UNL     1       7.500   4.152  11.948  0.00  0.00    +0.000 A 
ATOM     21  C   UNL     1       8.045   5.153  12.750  0.00  0.00    +0.000 A 
ATOM     22  C   UNL     1       7.433   5.491  13.959  0.00  0.00    +0.000 A 
ENDBRANCH   5  17
BRANCH   7  23
ATOM     23  N   UNL     1       5.424   3.721  19.122  0.00  0.00    +0.000 N 
ATOM     24  H   UNL     1       6.423   3.493  19.225  0.00  0.00    +0.000 HD
BRANCH  23  25
ATOM     25  C   UNL     1       4.588   2.549  19.374  0.00  0.00    +0.000 C 
BRANCH  25  26
ATOM     26  C   UNL     1       3.890   2.113  18.091  0.00  0.00    +0.000 C 
BRANCH  26  27
ATOM     27  C   UNL     1       2.413   1.818  18.336  0.00  0.00    +0.000 C 
BRANCH  27  28
ATOM     28  N   UNL     1       1.860   2.598  19.424  0.00  0.00    +0.000 N 
ATOM     29  C   UNL     1       1.835   2.248  20.744  0.00  0.00    +0.000 A 
ATOM     30  C   UNL     1       1.145   3.264  21.364  0.00  0.00    +0.000 A 
ATOM     31  N   UNL     1       0.760   4.217  20.456  0.00  0.00    +0.000 NA
ATOM     32  C   UNL     1       1.202   3.787  19.295  0.00  0.00    +0.000 A 
ENDBRANCH  27  28
ENDBRANCH  26  27
ENDBRANCH  25  26
ENDBRANCH  23  25
ENDBRANCH   7  23
TORSDOF 7
ENDMDL
MODEL 8
REMARK VINA RESULT:      -7.8      0.818      1.155
REMARK  Name = 
REMARK  7 active torsions:
REMARK  status: ('A' for Active; 'I' for Inactive)
REMARK    1  A    between atoms: C_5  and  C_6
REMARK    2  A    between atoms: C_10  and  C_11
REMARK    3  A    between atoms: C_18  and  N_19
REMARK    4  A    between atoms: N_19  and  C_20
REMARK    5  A    between atoms: C_20  and  C_21
REMARK    6  A    between atoms: C_21  and  C_22
REMARK    7  A    between atoms: C_22  and  N_23
REMARK                            x       y       z     vdW  Elec       q    Type
REMARK                         _______ _______ _______ _____ _____    ______ ____
ROOT
ATOM      1  C   UNL     1       1.157   9.489  18.997  0.00  0.00    +0.000 A 
ATOM      2  C   UNL     1       2.050   9.408  17.902  0.00  0.00    +0.000 A 
ATOM      3  C   UNL     1       2.748   8.239  18.063  0.00  0.00    +0.000 A 
ATOM      4  N   UNL     1       3.728   7.662  17.310  0.00  0.00    +0.000 NA
ATOM      5  C   UNL     1       4.180   6.511  17.719  0.00  0.00    +0.000 A 
ATOM      6  C   UNL     1       3.729   5.818  18.968  0.00  0.00    +0.000 A 
ATOM      7  C   UNL     1       2.758   6.410  19.685  0.00  0.00    +0.000 A 
ATOM      8  N   UNL     1       2.249   7.651  19.223  0.00  0.00    +0.000 N 
ATOM      9  N   UNL     1       1.291   8.428  19.810  0.00  0.00    +0.000 NA
ENDROOT
BRANCH   1  14
ATOM     10  F   UNL     1      -2.528  13.580  20.017  0.00  0.00    +0.000 F 
ATOM     11  C   UNL     1      -1.649  12.602  19.774  0.00  0.00    +0.000 A 
ATOM     12  C   UNL     1      -0.333  12.744  20.194  0.00  0.00    +0.000 A 
ATOM     13  C   UNL     1       0.586  11.721  19.942  0.00  0.00    +0.000 A 
ATOM     14  C   UNL     1       0.190  10.557  19.262  0.00  0.00    +0.000 A 
ATOM     15  C   UNL     1      -1.147  10.432  18.851  0.00  0.00    +0.000 A 
ATOM     16  C   UNL     1      -2.065  11.454  19.110  0.00  0.00    +0.000 A 
ENDBRANCH   1  14
BRANCH   5  17
ATOM     17  C   UNL     1       5.229   5.819  16.915  0.00  0.00    +0.000 A 
ATOM     18  C   UNL     1       5.115   5.818  15.519  0.00  0.00    +0.000 A 
ATOM     19  C   UNL     1       6.071   5.163  14.739  0.00  0.00    +0.000 A 
ATOM     20  C   UNL     1       7.134   4.500  15.350  0.00  0.00    +0.000 A 
ATOM     21  C   UNL     1       7.243   4.484  16.739  0.00  0.00    +0.000 A 
ATOM     22  C   UNL     1       6.288   5.134  17.523  0.00  0.00    +0.000 A 
ENDBRANCH   5  17
BRANCH   7  23
ATOM     23  N   UNL     1       2.213   5.859  20.856  0.00  0.00    +0.000 N 
ATOM     24  H   UNL     1       2.986   5.610  21.489  0.00  0.00    +0.000 HD
BRANCH  23  25
ATOM     25  C   UNL     1       1.209   4.799  20.809  0.00  0.00    +0.000 C 
BRANCH  25  26
ATOM     26  C   UNL     1       1.128   4.209  19.406  0.00  0.00    +0.000 C 
BRANCH  26  27
ATOM     27  C   UNL     1       1.283   2.691  19.433  0.00  0.00    +0.000 C 
BRANCH  27  28
ATOM     28  N   UNL     1       2.668   2.271  19.460  0.00  0.00    +0.000 N 
ATOM     29  C   UNL     1       3.314   1.538  18.505  0.00  0.00    +0.000 A 
ATOM     30  C   UNL     1       4.575   1.329  19.016  0.00  0.00    +0.000 A 
ATOM     31  N   UNL     1       4.707   1.921  20.245  0.00  0.00    +0.000 NA
ATOM     32  C   UNL     1       3.542   2.477  20.489  0.00  0.00    +0.000 A 
ENDBRANCH  27  28
ENDBRANCH  26  27
ENDBRANCH  25  26
ENDBRANCH  23  25
ENDBRANCH   7  23
TORSDOF 7
ENDMDL
MODEL 9
REMARK VINA RESULT:      -7.7      0.961      1.355
REMARK  Name = 
REMARK  7 active torsions:
REMARK  status: ('A' for Active; 'I' for Inactive)
REMARK    1  A    between atoms: C_5  and  C_6
REMARK    2  A    between atoms: C_10  and  C_11
REMARK    3  A    between atoms: C_18  and  N_19
REMARK    4  A    between atoms: N_19  and  C_20
REMARK    5  A    between atoms: C_20  and  C_21
REMARK    6  A    between atoms: C_21  and  C_22
REMARK    7  A    between atoms: C_22  and  N_23
REMARK                            x       y       z     vdW  Elec       q    Type
REMARK                         _______ _______ _______ _____ _____    ______ ____
ROOT
ATOM      1  C   UNL     1       1.380   9.204  19.040  0.00  0.00    +0.000 A 
ATOM      2  C   UNL     1       2.141   9.149  17.847  0.00  0.00    +0.000 A 
ATOM      3  C   UNL     1       2.861   7.983  17.907  0.00  0.00    +0.000 A 
ATOM      4  N   UNL     1       3.751   7.428  17.034  0.00  0.00    +0.000 NA
ATOM      5  C   UNL     1       4.256   6.275  17.369  0.00  0.00    +0.000 A 
ATOM      6  C   UNL     1       3.959   5.557  18.650  0.00  0.00    +0.000 A 
ATOM      7  C   UNL     1       3.074   6.129  19.485  0.00  0.00    +0.000 A 
ATOM      8  N   UNL     1       2.505   7.372  19.106  0.00  0.00    +0.000 N 
ATOM      9  N   UNL     1       1.616   8.131  19.814  0.00  0.00    +0.000 NA
ENDROOT
BRANCH   1  14
ATOM     10  F   UNL     1      -2.195  13.237  20.557  0.00  0.00    +0.000 F 
ATOM     11  C   UNL     1      -1.343  12.272  20.195  0.00  0.00    +0.000 A 
ATOM     12  C   UNL     1      -0.357  11.860  21.083  0.00  0.00    +0.000 A 
ATOM     13  C   UNL     1       0.534  10.851  20.704  0.00  0.00    +0.000 A 
ATOM     14  C   UNL     1       0.443  10.258  19.433  0.00  0.00    +0.000 A 
ATOM     15  C   UNL     1      -0.563  10.687  18.553  0.00  0.00    +0.000 A 
ATOM     16  C   UNL     1      -1.457  11.692  18.936  0.00  0.00    +0.000 A 
ENDBRANCH   1  14
BRANCH   5  17
ATOM     17  C   UNL     1       5.210   5.605  16.437  0.00  0.00    +0.000 A 
ATOM     18  C   UNL     1       6.567   5.944  16.505  0.00  0.00    +0.000 A 
ATOM     19  C   UNL     1       7.481   5.350  15.634  0.00  0.00    +0.000 A 
ATOM     20  C   UNL     1       7.043   4.424  14.687  0.00  0.00    +0.000 A 
ATOM     21  C   UNL     1       5.692   4.096  14.603  0.00  0.00    +0.000 A 
ATOM     22  C   UNL     1       4.772   4.691  15.470  0.00  0.00    +0.000 A 
ENDBRANCH   5  17
BRANCH   7  23
ATOM     23  N   UNL     1       2.673   5.555  20.702  0.00  0.00    +0.000 N 
ATOM     24  H   UNL     1       3.273   4.740  20.890  0.00  0.00    +0.000 HD
BRANCH  23  25
ATOM     25  C   UNL     1       1.271   5.252  20.981  0.00  0.00    +0.000 C 
BRANCH  25  26
ATOM     26  C   UNL     1       0.935   3.838  20.521  0.00  0.00    +0.000 C 
BRANCH  26  27
ATOM     27  C   UNL     1       1.880   2.813  21.140  0.00  0.00    +0.000 C 
BRANCH  27  28
ATOM     28  N   UNL     1       2.869   2.326  20.203  0.00  0.00    +0.000 N 
ATOM     29  C   UNL     1       2.633   1.868  18.937  0.00  0.00    +0.000 A 
ATOM     30  C   UNL     1       3.862   1.449  18.480  0.00  0.00    +0.000 A 
ATOM     31  N   UNL     1       4.829   1.648  19.432  0.00  0.00    +0.000 NA
ATOM     32  C   UNL     1       4.202   2.173  20.459  0.00  0.00    +0.000 A 
ENDBRANCH  27  28
ENDBRANCH  26  27
ENDBRANCH  25  26
ENDBRANCH  23  25
ENDBRANCH   7  23
TORSDOF 7
ENDMDL
