MODEL 1
REMARK VINA RESULT:      -7.4      0.000      0.000
REMARK  Name = 
REMARK  11 active torsions:
REMARK  status: ('A' for Active; 'I' for Inactive)
REMARK    1  A    between atoms: C_1  and  O_2
REMARK    2  A    between atoms: O_2  and  C_3
REMARK    3  A    between atoms: C_6  and  C_7
REMARK    4  A    between atoms: C_11  and  O_12
REMARK    5  A    between atoms: O_12  and  C_13
REMARK    6  A    between atoms: C_14  and  O_15
REMARK    7  A    between atoms: O_15  and  C_16
REMARK    8  A    between atoms: C_17  and  O_18
REMARK    9  A    between atoms: O_18  and  C_19
REMARK   10  A    between atoms: C_20  and  O_21
REMARK   11  A    between atoms: O_21  and  C_22
REMARK                            x       y       z     vdW  Elec       q    Type
REMARK                         _______ _______ _______ _____ _____    ______ ____
ROOT
ATOM      1  C   UNL     1       1.837   8.221  20.091  0.00  0.00    +0.000 C 
ATOM      2  C   UNL     1       1.615   8.356  18.605  0.00  0.00    +0.000 C 
ATOM      3  C   UNL     1       2.462   7.686  17.820  0.00  0.00    +0.000 C 
ATOM      4  C   UNL     1       3.289   6.696  18.519  0.00  0.00    +0.000 A 
ATOM      5  C   UNL     1       4.486   6.205  18.014  0.00  0.00    +0.000 A 
ATOM      6  C   UNL     1       4.934   4.932  18.408  0.00  0.00    +0.000 A 
ATOM      7  C   UNL     1       4.185   4.188  19.354  0.00  0.00    +0.000 A 
ATOM      8  C   UNL     1       3.062   4.786  19.989  0.00  0.00    +0.000 A 
ATOM      9  C   UNL     1       2.709   6.095  19.649  0.00  0.00    +0.000 A 
ATOM     10  O   UNL     1       1.770   6.812  20.404  0.00  0.00    +0.000 OA
ENDROOT
BRANCH   1  14
ATOM     11  C   UNL     1      -0.761  10.726  22.509  0.00  0.00    +0.000 A 
ATOM     12  C   UNL     1      -0.640  10.976  21.139  0.00  0.00    +0.000 A 
ATOM     13  C   UNL     1       0.200  10.191  20.327  0.00  0.00    +0.000 A 
ATOM     14  C   UNL     1       0.953   9.159  20.900  0.00  0.00    +0.000 A 
ATOM     15  C   UNL     1       0.798   8.907  22.276  0.00  0.00    +0.000 A 
ATOM     16  C   UNL     1      -0.021   9.706  23.082  0.00  0.00    +0.000 A 
BRANCH  11  18
ATOM     17  C   UNL     1      -1.324  12.962  23.070  0.00  0.00    +0.000 C 
ATOM     18  O   UNL     1      -1.598  11.572  23.188  0.00  0.00    +0.000 OA
ENDBRANCH  11  18
ENDBRANCH   1  14
BRANCH   5  19
ATOM     19  O   UNL     1       5.252   6.945  17.132  0.00  0.00    +0.000 OA
ATOM     20  C   UNL     1       5.129   6.497  15.776  0.00  0.00    +0.000 C 
ENDBRANCH   5  19
BRANCH   6  21
ATOM     21  O   UNL     1       6.125   4.548  17.827  0.00  0.00    +0.000 OA
ATOM     22  C   UNL     1       7.330   4.947  18.452  0.00  0.00    +0.000 C 
ENDBRANCH   6  21
BRANCH   7  23
ATOM     23  O   UNL     1       4.674   2.950  19.700  0.00  0.00    +0.000 OA
ATOM     24  C   UNL     1       4.123   1.826  19.025  0.00  0.00    +0.000 C 
ENDBRANCH   7  23
BRANCH   8  25
ATOM     25  O   UNL     1       2.368   4.069  20.932  0.00  0.00    +0.000 OA
ATOM     26  C   UNL     1       1.152   3.478  20.470  0.00  0.00    +0.000 C 
ENDBRANCH   8  25
TORSDOF 6
ENDMDL
MODEL 2
REMARK VINA RESULT:      -7.3      0.883      1.309
REMARK  Name = 
REMARK  11 active torsions:
REMARK  status: ('A' for Active; 'I' for Inactive)
REMARK    1  A    between atoms: C_1  and  O_2
REMARK    2  A    between atoms: O_2  and  C_3
REMARK    3  A    between atoms: C_6  and  C_7
REMARK    4  A    between atoms: C_11  and  O_12
REMARK    5  A    between atoms: O_12  and  C_13
REMARK    6  A    between atoms: C_14  and  O_15
REMARK    7  A    between atoms: O_15  and  C_16
REMARK    8  A    between atoms: C_17  and  O_18
REMARK    9  A    between atoms: O_18  and  C_19
REMARK   10  A    between atoms: C_20  and  O_21
REMARK   11  A    between atoms: O_21  and  C_22
REMARK                            x       y       z     vdW  Elec       q    Type
REMARK                         _______ _______ _______ _____ _____    ______ ____
ROOT
ATOM      1  C   UNL     1       1.874   8.177  19.943  0.00  0.00    +0.000 C 
ATOM      2  C   UNL     1       1.651   8.433  18.473  0.00  0.00    +0.000 C 
ATOM      3  C   UNL     1       2.435   7.755  17.631  0.00  0.00    +0.000 C 
ATOM      4  C   UNL     1       3.185   6.656  18.249  0.00  0.00    +0.000 A 
ATOM      5  C   UNL     1       4.336   6.109  17.694  0.00  0.00    +0.000 A 
ATOM      6  C   UNL     1       4.684   4.780  17.991  0.00  0.00    +0.000 A 
ATOM      7  C   UNL     1       3.885   4.032  18.894  0.00  0.00    +0.000 A 
ATOM      8  C   UNL     1       2.819   4.671  19.585  0.00  0.00    +0.000 A 
ATOM      9  C   UNL     1       2.569   6.024  19.342  0.00  0.00    +0.000 A 
ATOM     10  O   UNL     1       1.697   6.759  20.158  0.00  0.00    +0.000 OA
ENDROOT
BRANCH   1  14
ATOM     11  C   UNL     1      -0.279  11.035  22.405  0.00  0.00    +0.000 A 
ATOM     12  C   UNL     1       0.001   9.762  22.909  0.00  0.00    +0.000 A 
ATOM     13  C   UNL     1       0.688   8.808  22.136  0.00  0.00    +0.000 A 
ATOM     14  C   UNL     1       1.074   9.122  20.827  0.00  0.00    +0.000 A 
ATOM     15  C   UNL     1       0.805  10.417  20.346  0.00  0.00    +0.000 A 
ATOM     16  C   UNL     1       0.101  11.354  21.112  0.00  0.00    +0.000 A 
BRANCH  11  18
ATOM     17  C   UNL     1      -2.385  11.847  23.141  0.00  0.00    +0.000 C 
ATOM     18  O   UNL     1      -0.967  11.863  23.253  0.00  0.00    +0.000 OA
ENDBRANCH  11  18
ENDBRANCH   1  14
BRANCH   5  19
ATOM     19  O   UNL     1       5.151   6.846  16.855  0.00  0.00    +0.000 OA
ATOM     20  C   UNL     1       6.337   7.320  17.505  0.00  0.00    +0.000 C 
ENDBRANCH   5  19
BRANCH   6  21
ATOM     21  O   UNL     1       5.836   4.344  17.369  0.00  0.00    +0.000 OA
ATOM     22  C   UNL     1       5.721   3.779  16.076  0.00  0.00    +0.000 C 
ENDBRANCH   6  21
BRANCH   7  23
ATOM     23  O   UNL     1       4.276   2.738  19.145  0.00  0.00    +0.000 OA
ATOM     24  C   UNL     1       3.652   1.714  18.382  0.00  0.00    +0.000 C 
ENDBRANCH   7  23
BRANCH   8  25
ATOM     25  O   UNL     1       2.078   3.946  20.485  0.00  0.00    +0.000 OA
ATOM     26  C   UNL     1       0.858   3.407  19.970  0.00  0.00    +0.000 C 
ENDBRANCH   8  25
TORSDOF 6
ENDMDL
MODEL 3
REMARK VINA RESULT:      -6.9      1.251      1.372
REMARK  Name = 
REMARK  11 active torsions:
REMARK  status: ('A' for Active; 'I' for Inactive)
REMARK    1  A    between atoms: C_1  and  O_2
REMARK    2  A    between atoms: O_2  and  C_3
REMARK    3  A    between atoms: C_6  and  C_7
REMARK    4  A    between atoms: C_11  and  O_12
REMARK    5  A    between atoms: O_12  and  C_13
REMARK    6  A    between atoms: C_14  and  O_15
REMARK    7  A    between atoms: O_15  and  C_16
REMARK    8  A    between atoms: C_17  and  O_18
REMARK    9  A    between atoms: O_18  and  C_19
REMARK   10  A    between atoms: C_20  and  O_21
REMARK   11  A    between atoms: O_21  and  C_22
REMARK                            x       y       z     vdW  Elec       q    Type
REMARK                         _______ _______ _______ _____ _____    ______ ____
ROOT
ATOM      1  C   UNL     1       2.025   8.011  19.610  0.00  0.00    +0.000 C 
ATOM      2  C   UNL     1       2.226   8.651  18.259  0.00  0.00    +0.000 C 
ATOM      3  C   UNL     1       3.032   8.003  17.414  0.00  0.00    +0.000 C 
ATOM      4  C   UNL     1       3.361   6.631  17.817  0.00  0.00    +0.000 A 
ATOM      5  C   UNL     1       4.470   5.941  17.346  0.00  0.00    +0.000 A 
ATOM      6  C   UNL     1       4.448   4.535  17.310  0.00  0.00    +0.000 A 
ATOM      7  C   UNL     1       3.315   3.840  17.804  0.00  0.00    +0.000 A 
ATOM      8  C   UNL     1       2.271   4.563  18.445  0.00  0.00    +0.000 A 
ATOM      9  C   UNL     1       2.378   5.951  18.556  0.00  0.00    +0.000 A 
ATOM     10  O   UNL     1       1.508   6.682  19.377  0.00  0.00    +0.000 OA
ENDROOT
BRANCH   1  14
ATOM     11  C   UNL     1      -0.251  10.381  22.451  0.00  0.00    +0.000 A 
ATOM     12  C   UNL     1      -0.273  10.719  21.095  0.00  0.00    +0.000 A 
ATOM     13  C   UNL     1       0.459   9.979  20.148  0.00  0.00    +0.000 A 
ATOM     14  C   UNL     1       1.251   8.903  20.569  0.00  0.00    +0.000 A 
ATOM     15  C   UNL     1       1.241   8.564  21.935  0.00  0.00    +0.000 A 
ATOM     16  C   UNL     1       0.528   9.317  22.875  0.00  0.00    +0.000 A 
BRANCH  11  18
ATOM     17  C   UNL     1      -1.259  12.503  22.790  0.00  0.00    +0.000 C 
ATOM     18  O   UNL     1      -0.994  11.191  23.270  0.00  0.00    +0.000 OA
ENDBRANCH  11  18
ENDBRANCH   1  14
BRANCH   5  19
ATOM     19  O   UNL     1       5.602   6.606  16.911  0.00  0.00    +0.000 OA
ATOM     20  C   UNL     1       6.578   6.781  17.946  0.00  0.00    +0.000 C 
ENDBRANCH   5  19
BRANCH   6  21
ATOM     21  O   UNL     1       5.599   3.964  16.806  0.00  0.00    +0.000 OA
ATOM     22  C   UNL     1       5.713   3.823  15.403  0.00  0.00    +0.000 C 
ENDBRANCH   6  21
BRANCH   7  23
ATOM     23  O   UNL     1       3.352   2.467  17.742  0.00  0.00    +0.000 OA
ATOM     24  C   UNL     1       3.878   1.783  18.872  0.00  0.00    +0.000 C 
ENDBRANCH   7  23
BRANCH   8  25
ATOM     25  O   UNL     1       1.198   3.874  18.953  0.00  0.00    +0.000 OA
ATOM     26  C   UNL     1       1.224   3.670  20.368  0.00  0.00    +0.000 C 
ENDBRANCH   8  25
TORSDOF 6
ENDMDL
MODEL 4
REMARK VINA RESULT:      -6.6      2.073      7.998
REMARK  Name = 
REMARK  11 active torsions:
REMARK  status: ('A' for Active; 'I' for Inactive)
REMARK    1  A    between atoms: C_1  and  O_2
REMARK    2  A    between atoms: O_2  and  C_3
REMARK    3  A    between atoms: C_6  and  C_7
REMARK    4  A    between atoms: C_11  and  O_12
REMARK    5  A    between atoms: O_12  and  C_13
REMARK    6  A    between atoms: C_14  and  O_15
REMARK    7  A    between atoms: O_15  and  C_16
REMARK    8  A    between atoms: C_17  and  O_18
REMARK    9  A    between atoms: O_18  and  C_19
REMARK   10  A    between atoms: C_20  and  O_21
REMARK   11  A    between atoms: O_21  and  C_22
REMARK                            x       y       z     vdW  Elec       q    Type
REMARK                         _______ _______ _______ _____ _____    ______ ____
ROOT
ATOM      1  C   UNL     1       1.700   8.031  19.076  0.00  0.00    +0.000 C 
ATOM      2  C   UNL     1       2.156   8.985  17.999  0.00  0.00    +0.000 C 
ATOM      3  C   UNL     1       1.389  10.059  17.801  0.00  0.00    +0.000 C 
ATOM      4  C   UNL     1       0.391  10.297  18.849  0.00  0.00    +0.000 A 
ATOM      5  C   UNL     1      -0.750  11.066  18.658  0.00  0.00    +0.000 A 
ATOM      6  C   UNL     1      -1.351  11.701  19.759  0.00  0.00    +0.000 A 
ATOM      7  C   UNL     1      -0.815  11.506  21.058  0.00  0.00    +0.000 A 
ATOM      8  C   UNL     1       0.242  10.573  21.250  0.00  0.00    +0.000 A 
ATOM      9  C   UNL     1       0.743   9.881  20.144  0.00  0.00    +0.000 A 
ATOM     10  O   UNL     1       1.609   8.790  20.303  0.00  0.00    +0.000 OA
ENDROOT
BRANCH   1  14
ATOM     11  C   UNL     1       4.048   4.389  19.381  0.00  0.00    +0.000 A 
ATOM     12  C   UNL     1       4.353   5.326  18.390  0.00  0.00    +0.000 A 
ATOM     13  C   UNL     1       3.608   6.513  18.256  0.00  0.00    +0.000 A 
ATOM     14  C   UNL     1       2.522   6.751  19.108  0.00  0.00    +0.000 A 
ATOM     15  C   UNL     1       2.246   5.807  20.115  0.00  0.00    +0.000 A 
ATOM     16  C   UNL     1       2.977   4.618  20.228  0.00  0.00    +0.000 A 
BRANCH  11  18
ATOM     17  C   UNL     1       4.364   2.167  20.153  0.00  0.00    +0.000 C 
ATOM     18  O   UNL     1       4.840   3.271  19.393  0.00  0.00    +0.000 OA
ENDBRANCH  11  18
ENDBRANCH   1  14
BRANCH   5  19
ATOM     19  O   UNL     1      -1.314  11.220  17.404  0.00  0.00    +0.000 OA
ATOM     20  C   UNL     1      -2.039  10.062  16.973  0.00  0.00    +0.000 C 
ENDBRANCH   5  19
BRANCH   6  21
ATOM     21  O   UNL     1      -2.466  12.449  19.442  0.00  0.00    +0.000 OA
ATOM     22  C   UNL     1      -3.740  11.893  19.713  0.00  0.00    +0.000 C 
ENDBRANCH   6  21
BRANCH   7  23
ATOM     23  O   UNL     1      -1.445  12.152  22.095  0.00  0.00    +0.000 OA
ATOM     24  C   UNL     1      -0.913  13.409  22.493  0.00  0.00    +0.000 C 
ENDBRANCH   7  23
BRANCH   8  25
ATOM     25  O   UNL     1       0.726  10.364  22.518  0.00  0.00    +0.000 OA
ATOM     26  C   UNL     1      -0.026   9.441  23.308  0.00  0.00    +0.000 C 
ENDBRANCH   8  25
TORSDOF 6
ENDMDL
MODEL 5
REMARK VINA RESULT:      -6.5      2.163      8.392
REMARK  Name = 
REMARK  11 active torsions:
REMARK  status: ('A' for Active; 'I' for Inactive)
REMARK    1  A    between atoms: C_1  and  O_2
REMARK    2  A    between atoms: O_2  and  C_3
REMARK    3  A    between atoms: C_6  and  C_7
REMARK    4  A    between atoms: C_11  and  O_12
REMARK    5  A    between atoms: O_12  and  C_13
REMARK    6  A    between atoms: C_14  and  O_15
REMARK    7  A    between atoms: O_15  and  C_16
REMARK    8  A    between atoms: C_17  and  O_18
REMARK    9  A    between atoms: O_18  and  C_19
REMARK   10  A    between atoms: C_20  and  O_21
REMARK   11  A    between atoms: O_21  and  C_22
REMARK                            x       y       z     vdW  Elec       q    Type
REMARK                         _______ _______ _______ _____ _____    ______ ____
ROOT
ATOM      1  C   UNL     1       1.432   8.971  19.142  0.00  0.00    +0.000 C 
ATOM      2  C   UNL     1       1.917  10.113  18.283  0.00  0.00    +0.000 C 
ATOM      3  C   UNL     1       1.140  11.198  18.253  0.00  0.00    +0.000 C 
ATOM      4  C   UNL     1       0.094  11.228  19.281  0.00  0.00    +0.000 A 
ATOM      5  C   UNL     1      -1.051  12.008  19.185  0.00  0.00    +0.000 A 
ATOM      6  C   UNL     1      -1.709  12.420  20.357  0.00  0.00    +0.000 A 
ATOM      7  C   UNL     1      -1.226  11.991  21.619  0.00  0.00    +0.000 A 
ATOM      8  C   UNL     1      -0.162  11.049  21.682  0.00  0.00    +0.000 A 
ATOM      9  C   UNL     1       0.397  10.580  20.490  0.00  0.00    +0.000 A 
ATOM     10  O   UNL     1       1.275   9.486  20.483  0.00  0.00    +0.000 OA
ENDROOT
BRANCH   1  14
ATOM     11  C   UNL     1       3.784   5.386  18.444  0.00  0.00    +0.000 A 
ATOM     12  C   UNL     1       2.982   5.475  19.586  0.00  0.00    +0.000 A 
ATOM     13  C   UNL     1       2.215   6.625  19.848  0.00  0.00    +0.000 A 
ATOM     14  C   UNL     1       2.273   7.715  18.971  0.00  0.00    +0.000 A 
ATOM     15  C   UNL     1       3.067   7.596  17.814  0.00  0.00    +0.000 A 
ATOM     16  C   UNL     1       3.845   6.458  17.570  0.00  0.00    +0.000 A 
BRANCH  11  18
ATOM     17  C   UNL     1       4.714   3.758  16.989  0.00  0.00    +0.000 C 
ATOM     18  O   UNL     1       4.492   4.220  18.315  0.00  0.00    +0.000 OA
ENDBRANCH  11  18
ENDBRANCH   1  14
BRANCH   5  19
ATOM     19  O   UNL     1      -1.563  12.388  17.957  0.00  0.00    +0.000 OA
ATOM     20  C   UNL     1      -2.275  11.333  17.299  0.00  0.00    +0.000 C 
ENDBRANCH   5  19
BRANCH   6  21
ATOM     21  O   UNL     1      -2.823  13.204  20.134  0.00  0.00    +0.000 OA
ATOM     22  C   UNL     1      -4.098  12.608  20.284  0.00  0.00    +0.000 C 
ENDBRANCH   6  21
BRANCH   7  23
ATOM     23  O   UNL     1      -1.911  12.427  22.729  0.00  0.00    +0.000 OA
ATOM     24  C   UNL     1      -1.429  13.602  23.367  0.00  0.00    +0.000 C 
ENDBRANCH   7  23
BRANCH   8  25
ATOM     25  O   UNL     1       0.270  10.612  22.909  0.00  0.00    +0.000 OA
ATOM     26  C   UNL     1      -0.336   9.402  23.369  0.00  0.00    +0.000 C 
ENDBRANCH   8  25
TORSDOF 6
ENDMDL
MODEL 6
REMARK VINA RESULT:      -6.4      2.221      8.290
REMARK  Name = 
REMARK  11 active torsions:
REMARK  status: ('A' for Active; 'I' for Inactive)
REMARK    1  A    between atoms: C_1  and  O_2
REMARK    2  A    between atoms: O_2  and  C_3
REMARK    3  A    between atoms: C_6  and  C_7
REMARK    4  A    between atoms: C_11  and  O_12
REMARK    5  A    between atoms: O_12  and  C_13
REMARK    6  A    between atoms: C_14  and  O_15
REMARK    7  A    between atoms: O_15  and  C_16
REMARK    8  A    between atoms: C_17  and  O_18
REMARK    9  A    between atoms: O_18  and  C_19
REMARK   10  A    between atoms: C_20  and  O_21
REMARK   11  A    between atoms: O_21  and  C_22
REMARK                            x       y       z     vdW  Elec       q    Type
REMARK                         _______ _______ _______ _____ _____    ______ ____
ROOT
ATOM      1  C   UNL     1       2.515   7.498  18.868  0.00  0.00    +0.000 C 
ATOM      2  C   UNL     1       1.888   6.756  20.023  0.00  0.00    +0.000 C 
ATOM      3  C   UNL     1       1.283   7.507  20.946  0.00  0.00    +0.000 C 
ATOM      4  C   UNL     1       1.067   8.903  20.550  0.00  0.00    +0.000 A 
ATOM      5  C   UNL     1       0.856   9.932  21.459  0.00  0.00    +0.000 A 
ATOM      6  C   UNL     1       0.137  11.072  21.061  0.00  0.00    +0.000 A 
ATOM      7  C   UNL     1      -0.319  11.181  19.723  0.00  0.00    +0.000 A 
ATOM      8  C   UNL     1       0.064  10.198  18.768  0.00  0.00    +0.000 A 
ATOM      9  C   UNL     1       0.869   9.133  19.178  0.00  0.00    +0.000 A 
ATOM     10  O   UNL     1       1.468   8.275  18.245  0.00  0.00    +0.000 OA
ENDROOT
BRANCH   1  14
ATOM     11  C   UNL     1       4.876   4.758  16.462  0.00  0.00    +0.000 A 
ATOM     12  C   UNL     1       5.148   6.128  16.417  0.00  0.00    +0.000 A 
ATOM     13  C   UNL     1       4.398   7.045  17.175  0.00  0.00    +0.000 A 
ATOM     14  C   UNL     1       3.338   6.588  17.969  0.00  0.00    +0.000 A 
ATOM     15  C   UNL     1       3.096   5.202  18.021  0.00  0.00    +0.000 A 
ATOM     16  C   UNL     1       3.831   4.297  17.246  0.00  0.00    +0.000 A 
BRANCH  11  18
ATOM     17  C   UNL     1       6.743   4.630  15.003  0.00  0.00    +0.000 C 
ATOM     18  O   UNL     1       5.669   3.975  15.665  0.00  0.00    +0.000 OA
ENDBRANCH  11  18
ENDBRANCH   1  14
BRANCH   5  19
ATOM     19  O   UNL     1       1.342   9.862  22.752  0.00  0.00    +0.000 OA
ATOM     20  C   UNL     1       0.395   9.310  23.675  0.00  0.00    +0.000 C 
ENDBRANCH   5  19
BRANCH   6  21
ATOM     21  O   UNL     1      -0.022  12.017  22.055  0.00  0.00    +0.000 OA
ATOM     22  C   UNL     1      -1.302  12.157  22.642  0.00  0.00    +0.000 C 
ENDBRANCH   6  21
BRANCH   7  23
ATOM     23  O   UNL     1      -1.017  12.319  19.392  0.00  0.00    +0.000 OA
ATOM     24  C   UNL     1      -0.264  13.415  18.889  0.00  0.00    +0.000 C 
ENDBRANCH   7  23
BRANCH   8  25
ATOM     25  O   UNL     1      -0.352  10.335  17.466  0.00  0.00    +0.000 OA
ATOM     26  C   UNL     1      -1.679   9.873  17.203  0.00  0.00    +0.000 C 
ENDBRANCH   8  25
TORSDOF 6
ENDMDL
MODEL 7
REMARK VINA RESULT:      -6.4      1.967      7.932
REMARK  Name = 
REMARK  11 active torsions:
REMARK  status: ('A' for Active; 'I' for Inactive)
REMARK    1  A    between atoms: C_1  and  O_2
REMARK    2  A    between atoms: O_2  and  C_3
REMARK    3  A    between atoms: C_6  and  C_7
REMARK    4  A    between atoms: C_11  and  O_12
REMARK    5  A    between atoms: O_12  and  C_13
REMARK    6  A    between atoms: C_14  and  O_15
REMARK    7  A    between atoms: O_15  and  C_16
REMARK    8  A    between atoms: C_17  and  O_18
REMARK    9  A    between atoms: O_18  and  C_19
REMARK   10  A    between atoms: C_20  and  O_21
REMARK   11  A    between atoms: O_21  and  C_22
REMARK                            x       y       z     vdW  Elec       q    Type
REMARK                         _______ _______ _______ _____ _____    ______ ____
ROOT
ATOM      1  C   UNL     1       1.628   7.507  19.518  0.00  0.00    +0.000 C 
ATOM      2  C   UNL     1       2.178   8.344  18.390  0.00  0.00    +0.000 C 
ATOM      3  C   UNL     1       1.557   9.504  18.161  0.00  0.00    +0.000 C 
ATOM      4  C   UNL     1       0.630   9.918  19.220  0.00  0.00    +0.000 A 
ATOM      5  C   UNL     1      -0.403  10.826  19.020  0.00  0.00    +0.000 A 
ATOM      6  C   UNL     1      -0.881  11.581  20.105  0.00  0.00    +0.000 A 
ATOM      7  C   UNL     1      -0.341  11.369  21.399  0.00  0.00    +0.000 A 
ATOM      8  C   UNL     1       0.586  10.310  21.609  0.00  0.00    +0.000 A 
ATOM      9  C   UNL     1       0.958   9.511  20.524  0.00  0.00    +0.000 A 
ATOM     10  O   UNL     1       1.674   8.320  20.712  0.00  0.00    +0.000 OA
ENDROOT
BRANCH   1  14
ATOM     11  C   UNL     1       3.478   3.576  19.502  0.00  0.00    +0.000 A 
ATOM     12  C   UNL     1       2.390   3.824  20.344  0.00  0.00    +0.000 A 
ATOM     13  C   UNL     1       1.772   5.088  20.382  0.00  0.00    +0.000 A 
ATOM     14  C   UNL     1       2.270   6.129  19.588  0.00  0.00    +0.000 A 
ATOM     15  C   UNL     1       3.350   5.852  18.729  0.00  0.00    +0.000 A 
ATOM     16  C   UNL     1       3.974   4.600  18.712  0.00  0.00    +0.000 A 
BRANCH  11  18
ATOM     17  C   UNL     1       3.647   1.423  18.517  0.00  0.00    +0.000 C 
ATOM     18  O   UNL     1       3.997   2.310  19.572  0.00  0.00    +0.000 OA
ENDBRANCH  11  18
ENDBRANCH   1  14
BRANCH   5  19
ATOM     19  O   UNL     1      -0.975  11.004  17.774  0.00  0.00    +0.000 OA
ATOM     20  C   UNL     1      -1.959  10.009  17.465  0.00  0.00    +0.000 C 
ENDBRANCH   5  19
BRANCH   6  21
ATOM     21  O   UNL     1      -1.894  12.460  19.780  0.00  0.00    +0.000 OA
ATOM     22  C   UNL     1      -1.582  13.839  19.710  0.00  0.00    +0.000 C 
ENDBRANCH   6  21
BRANCH   7  23
ATOM     23  O   UNL     1      -0.849  12.136  22.420  0.00  0.00    +0.000 OA
ATOM     24  C   UNL     1      -2.102  11.742  22.964  0.00  0.00    +0.000 C 
ENDBRANCH   7  23
BRANCH   8  25
ATOM     25  O   UNL     1       1.073  10.089  22.873  0.00  0.00    +0.000 OA
ATOM     26  C   UNL     1       0.253   9.262  23.702  0.00  0.00    +0.000 C 
ENDBRANCH   8  25
TORSDOF 6
ENDMDL
MODEL 8
REMARK VINA RESULT:      -6.4      2.371      4.096
REMARK  Name = 
REMARK  11 active torsions:
REMARK  status: ('A' for Active; 'I' for Inactive)
REMARK    1  A    between atoms: C_1  and  O_2
REMARK    2  A    between atoms: O_2  and  C_3
REMARK    3  A    between atoms: C_6  and  C_7
REMARK    4  A    between atoms: C_11  and  O_12
REMARK    5  A    between atoms: O_12  and  C_13
REMARK    6  A    between atoms: C_14  and  O_15
REMARK    7  A    between atoms: O_15  and  C_16
REMARK    8  A    between atoms: C_17  and  O_18
REMARK    9  A    between atoms: O_18  and  C_19
REMARK   10  A    between atoms: C_20  and  O_21
REMARK   11  A    between atoms: O_21  and  C_22
REMARK                            x       y       z     vdW  Elec       q    Type
REMARK                         _______ _______ _______ _____ _____    ______ ____
ROOT
ATOM      1  C   UNL     1       1.880   8.541  18.536  0.00  0.00    +0.000 C 
ATOM      2  C   UNL     1       1.790   7.951  19.921  0.00  0.00    +0.000 C 
ATOM      3  C   UNL     1       1.938   6.627  20.009  0.00  0.00    +0.000 C 
ATOM      4  C   UNL     1       2.454   5.990  18.792  0.00  0.00    +0.000 A 
ATOM      5  C   UNL     1       2.293   4.639  18.509  0.00  0.00    +0.000 A 
ATOM      6  C   UNL     1       3.222   3.991  17.676  0.00  0.00    +0.000 A 
ATOM      7  C   UNL     1       4.280   4.734  17.095  0.00  0.00    +0.000 A 
ATOM      8  C   UNL     1       4.318   6.147  17.256  0.00  0.00    +0.000 A 
ATOM      9  C   UNL     1       3.315   6.770  18.003  0.00  0.00    +0.000 A 
ATOM     10  O   UNL     1       3.168   8.165  17.998  0.00  0.00    +0.000 OA
ENDROOT
BRANCH   1  14
ATOM     11  C   UNL     1       1.037  12.802  18.523  0.00  0.00    +0.000 A 
ATOM     12  C   UNL     1       0.063  11.907  18.973  0.00  0.00    +0.000 A 
ATOM     13  C   UNL     1       0.298  10.520  18.983  0.00  0.00    +0.000 A 
ATOM     14  C   UNL     1       1.515  10.017  18.505  0.00  0.00    +0.000 A 
ATOM     15  C   UNL     1       2.493  10.937  18.079  0.00  0.00    +0.000 A 
ATOM     16  C   UNL     1       2.245  12.314  18.051  0.00  0.00    +0.000 A 
BRANCH  11  18
ATOM     17  C   UNL     1      -0.425  14.462  19.384  0.00  0.00    +0.000 C 
ATOM     18  O   UNL     1       0.677  14.124  18.551  0.00  0.00    +0.000 OA
ENDBRANCH  11  18
ENDBRANCH   1  14
BRANCH   5  19
ATOM     19  O   UNL     1       1.235   3.916  19.027  0.00  0.00    +0.000 OA
ATOM     20  C   UNL     1       1.432   3.541  20.396  0.00  0.00    +0.000 C 
ENDBRANCH   5  19
BRANCH   6  21
ATOM     21  O   UNL     1       2.967   2.648  17.483  0.00  0.00    +0.000 OA
ATOM     22  C   UNL     1       3.674   1.715  18.278  0.00  0.00    +0.000 C 
ENDBRANCH   6  21
BRANCH   7  23
ATOM     23  O   UNL     1       5.156   4.045  16.290  0.00  0.00    +0.000 OA
ATOM     24  C   UNL     1       5.179   4.394  14.912  0.00  0.00    +0.000 C 
ENDBRANCH   7  23
BRANCH   8  25
ATOM     25  O   UNL     1       5.326   6.860  16.655  0.00  0.00    +0.000 OA
ATOM     26  C   UNL     1       6.528   6.970  17.419  0.00  0.00    +0.000 C 
ENDBRANCH   8  25
TORSDOF 6
ENDMDL
MODEL 9
REMARK VINA RESULT:      -6.4      1.899      3.672
REMARK  Name = 
REMARK  11 active torsions:
REMARK  status: ('A' for Active; 'I' for Inactive)
REMARK    1  A    between atoms: C_1  and  O_2
REMARK    2  A    between atoms: O_2  and  C_3
REMARK    3  A    between atoms: C_6  and  C_7
REMARK    4  A    between atoms: C_11  and  O_12
REMARK    5  A    between atoms: O_12  and  C_13
REMARK    6  A    between atoms: C_14  and  O_15
REMARK    7  A    between atoms: O_15  and  C_16
REMARK    8  A    between atoms: C_17  and  O_18
REMARK    9  A    between atoms: O_18  and  C_19
REMARK   10  A    between atoms: C_20  and  O_21
REMARK   11  A    between atoms: O_21  and  C_22
REMARK                            x       y       z     vdW  Elec       q    Type
REMARK                         _______ _______ _______ _____ _____    ______ ____
ROOT
ATOM      1  C   UNL     1       1.508   8.153  19.444  0.00  0.00    +0.000 C 
ATOM      2  C   UNL     1       1.696   7.432  20.756  0.00  0.00    +0.000 C 
ATOM      3  C   UNL     1       1.910   6.117  20.680  0.00  0.00    +0.000 C 
ATOM      4  C   UNL     1       2.220   5.627  19.333  0.00  0.00    +0.000 A 
ATOM      5  C   UNL     1       2.064   4.302  18.946  0.00  0.00    +0.000 A 
ATOM      6  C   UNL     1       2.850   3.788  17.899  0.00  0.00    +0.000 A 
ATOM      7  C   UNL     1       3.754   4.642  17.218  0.00  0.00    +0.000 A 
ATOM      8  C   UNL     1       3.764   6.034  17.513  0.00  0.00    +0.000 A 
ATOM      9  C   UNL     1       2.891   6.526  18.487  0.00  0.00    +0.000 A 
ATOM     10  O   UNL     1       2.690   7.904  18.651  0.00  0.00    +0.000 OA
ENDROOT
BRANCH   1  14
ATOM     11  C   UNL     1       0.144  12.224  20.107  0.00  0.00    +0.000 A 
ATOM     12  C   UNL     1       0.519  11.821  18.822  0.00  0.00    +0.000 A 
ATOM     13  C   UNL     1       0.974  10.514  18.573  0.00  0.00    +0.000 A 
ATOM     14  C   UNL     1       1.086   9.603  19.631  0.00  0.00    +0.000 A 
ATOM     15  C   UNL     1       0.680  10.020  20.913  0.00  0.00    +0.000 A 
ATOM     16  C   UNL     1       0.250  11.329  21.159  0.00  0.00    +0.000 A 
BRANCH  11  18
ATOM     17  C   UNL     1      -0.257  14.296  19.022  0.00  0.00    +0.000 C 
ATOM     18  O   UNL     1      -0.265  13.527  20.218  0.00  0.00    +0.000 OA
ENDBRANCH  11  18
ENDBRANCH   1  14
BRANCH   5  19
ATOM     19  O   UNL     1       1.147   3.473  19.567  0.00  0.00    +0.000 OA
ATOM     20  C   UNL     1       1.622   2.953  20.815  0.00  0.00    +0.000 C 
ENDBRANCH   5  19
BRANCH   6  21
ATOM     21  O   UNL     1       2.618   2.457  17.618  0.00  0.00    +0.000 OA
ATOM     22  C   UNL     1       3.500   1.497  18.167  0.00  0.00    +0.000 C 
ENDBRANCH   6  21
BRANCH   7  23
ATOM     23  O   UNL     1       4.495   4.083  16.204  0.00  0.00    +0.000 OA
ATOM     24  C   UNL     1       5.852   3.773  16.490  0.00  0.00    +0.000 C 
ENDBRANCH   7  23
BRANCH   8  25
ATOM     25  O   UNL     1       4.616   6.857  16.819  0.00  0.00    +0.000 OA
ATOM     26  C   UNL     1       5.889   7.067  17.434  0.00  0.00    +0.000 C 
ENDBRANCH   8  25
TORSDOF 6
ENDMDL
