MODEL 1
REMARK VINA RESULT:      -8.4      0.000      0.000
REMARK  Name = 
REMARK  8 active torsions:
REMARK  status: ('A' for Active; 'I' for Inactive)
REMARK    1  A    between atoms: C_1  and  O_2
REMARK    2  A    between atoms: O_2  and  C_3
REMARK    3  A    between atoms: C_5  and  N_6
REMARK    4  A    between atoms: C_10  and  C_11
REMARK    5  A    between atoms: N_12  and  N_13
REMARK    6  A    between atoms: N_17  and  C_18
REMARK    7  A    between atoms: N_26  and  C_27
REMARK    8  A    between atoms: C_34  and  O_35
REMARK                            x       y       z     vdW  Elec       q    Type
REMARK                         _______ _______ _______ _____ _____    ______ ____
ROOT
ATOM      1  N   UNL     1       1.811  10.489  17.958  0.00  0.00    +0.000 N 
ATOM      2  C   UNL     1       1.221  11.350  18.904  0.00  0.00    +0.000 A 
ATOM      3  N   UNL     1       1.595  12.610  18.858  0.00  0.00    +0.000 NA
ATOM      4  C   UNL     1       1.116  13.395  19.813  0.00  0.00    +0.000 A 
ATOM      5  N   UNL     1       1.565  14.714  19.899  0.00  0.00    +0.000 N 
ATOM      6  N   UNL     1       0.227  13.005  20.705  0.00  0.00    +0.000 NA
ATOM      7  C   UNL     1      -0.184  11.747  20.620  0.00  0.00    +0.000 A 
ATOM      8  N   UNL     1      -1.246  11.271  21.394  0.00  0.00    +0.000 N 
ATOM      9  N   UNL     1       0.334  10.870  19.770  0.00  0.00    +0.000 NA
ATOM     10  H   UNL     1       1.604  10.850  17.030  0.00  0.00    +0.000 HD
ATOM     11  H   UNL     1       1.096  15.197  20.656  0.00  0.00    +0.000 HD
ATOM     12  H   UNL     1      -1.426  10.311  21.145  0.00  0.00    +0.000 HD
ENDROOT
BRANCH   5  13
ATOM     13  C   UNL     1       1.965  15.531  18.833  0.00  0.00    +0.000 A 
ATOM     14  C   UNL     1       3.121  15.260  18.086  0.00  0.00    +0.000 A 
ATOM     15  C   UNL     1       3.514  16.087  17.038  0.00  0.00    +0.000 A 
ATOM     16  C   UNL     1       2.752  17.206  16.721  0.00  0.00    +0.000 A 
ATOM     17  C   UNL     1       1.605  17.498  17.460  0.00  0.00    +0.000 A 
ATOM     18  C   UNL     1       1.211  16.661  18.507  0.00  0.00    +0.000 A 
ENDBRANCH   5  13
BRANCH   8  19
ATOM     19  C   UNL     1      -2.320  11.976  21.967  0.00  0.00    +0.000 A 
ATOM     20  C   UNL     1      -2.487  11.945  23.361  0.00  0.00    +0.000 A 
ATOM     21  C   UNL     1      -3.554  12.616  23.970  0.00  0.00    +0.000 A 
ATOM     22  C   UNL     1      -4.462  13.334  23.201  0.00  0.00    +0.000 A 
ATOM     23  C   UNL     1      -4.302  13.389  21.820  0.00  0.00    +0.000 A 
ATOM     24  C   UNL     1      -3.236  12.720  21.218  0.00  0.00    +0.000 A 
ENDBRANCH   8  19
BRANCH   1  26
ATOM     25  C   UNL     1       2.795   8.475  18.181  0.00  0.00    +0.000 C 
ATOM     26  N   UNL     1       1.711   9.173  18.217  0.00  0.00    +0.000 NA
BRANCH  25  31
ATOM     27  C   UNL     1       2.274   5.316  20.229  0.00  0.00    +0.000 A 
ATOM     28  C   UNL     1       2.602   4.353  19.266  0.00  0.00    +0.000 A 
ATOM     29  C   UNL     1       2.986   4.740  17.975  0.00  0.00    +0.000 A 
ATOM     30  C   UNL     1       3.051   6.091  17.619  0.00  0.00    +0.000 A 
ATOM     31  C   UNL     1       2.714   7.051  18.573  0.00  0.00    +0.000 A 
ATOM     32  C   UNL     1       2.329   6.672  19.880  0.00  0.00    +0.000 A 
BRANCH  29  33
ATOM     33  N   UNL     1       3.320   3.713  16.981  0.00  0.00    +0.000 N 
ATOM     34  O   UNL     1       2.460   2.865  16.710  0.00  0.00    +0.000 OA
ATOM     35  O   UNL     1       4.447   3.761  16.468  0.00  0.00    +0.000 OA
ENDBRANCH  29  33
BRANCH  27  37
ATOM     36  C   UNL     1       2.081   3.363  21.609  0.00  0.00    +0.000 C 
ATOM     37  O   UNL     1       1.931   4.766  21.436  0.00  0.00    +0.000 OA
ENDBRANCH  27  37
BRANCH  32  38
ATOM     38  O   UNL     1       2.011   7.618  20.822  0.00  0.00    +0.000 OA
ATOM     39  H   UNL     1       1.055   7.545  21.051  0.00  0.00    +0.000 HD
ENDBRANCH  32  38
ENDBRANCH  25  31
ENDBRANCH   1  26
TORSDOF 7
ENDMDL
MODEL 2
REMARK VINA RESULT:      -8.3      0.089      1.153
REMARK  Name = 
REMARK  8 active torsions:
REMARK  status: ('A' for Active; 'I' for Inactive)
REMARK    1  A    between atoms: C_1  and  O_2
REMARK    2  A    between atoms: O_2  and  C_3
REMARK    3  A    between atoms: C_5  and  N_6
REMARK    4  A    between atoms: C_10  and  C_11
REMARK    5  A    between atoms: N_12  and  N_13
REMARK    6  A    between atoms: N_17  and  C_18
REMARK    7  A    between atoms: N_26  and  C_27
REMARK    8  A    between atoms: C_34  and  O_35
REMARK                            x       y       z     vdW  Elec       q    Type
REMARK                         _______ _______ _______ _____ _____    ______ ____
ROOT
ATOM      1  N   UNL     1       1.797  10.487  17.881  0.00  0.00    +0.000 N 
ATOM      2  C   UNL     1       1.235  11.334  18.857  0.00  0.00    +0.000 A 
ATOM      3  N   UNL     1       1.621  12.590  18.831  0.00  0.00    +0.000 NA
ATOM      4  C   UNL     1       1.169  13.358  19.812  0.00  0.00    +0.000 A 
ATOM      5  N   UNL     1       1.634  14.671  19.918  0.00  0.00    +0.000 N 
ATOM      6  N   UNL     1       0.293  12.959  20.712  0.00  0.00    +0.000 NA
ATOM      7  C   UNL     1      -0.133  11.707  20.608  0.00  0.00    +0.000 A 
ATOM      8  N   UNL     1      -1.184  11.225  21.392  0.00  0.00    +0.000 N 
ATOM      9  N   UNL     1       0.360  10.843  19.729  0.00  0.00    +0.000 NA
ATOM     10  H   UNL     1       1.576  10.870  16.965  0.00  0.00    +0.000 HD
ATOM     11  H   UNL     1       1.185  15.141  20.694  0.00  0.00    +0.000 HD
ATOM     12  H   UNL     1      -1.380  10.272  21.126  0.00  0.00    +0.000 HD
ENDROOT
BRANCH   5  13
ATOM     13  C   UNL     1       2.022  15.507  18.862  0.00  0.00    +0.000 A 
ATOM     14  C   UNL     1       1.268  16.631  18.492  0.00  0.00    +0.000 A 
ATOM     15  C   UNL     1       1.657  17.445  17.433  0.00  0.00    +0.000 A 
ATOM     16  C   UNL     1       2.813  17.144  16.722  0.00  0.00    +0.000 A 
ATOM     17  C   UNL     1       3.571  16.024  17.068  0.00  0.00    +0.000 A 
ATOM     18  C   UNL     1       3.180  15.214  18.137  0.00  0.00    +0.000 A 
ENDBRANCH   5  13
BRANCH   8  19
ATOM     19  C   UNL     1      -2.239  11.929  22.001  0.00  0.00    +0.000 A 
ATOM     20  C   UNL     1      -3.119  12.668  21.192  0.00  0.00    +0.000 A 
ATOM     21  C   UNL     1      -4.170  13.399  21.759  0.00  0.00    +0.000 A 
ATOM     22  C   UNL     1      -4.364  13.397  23.135  0.00  0.00    +0.000 A 
ATOM     23  C   UNL     1      -3.512  12.657  23.950  0.00  0.00    +0.000 A 
ATOM     24  C   UNL     1      -2.468  11.928  23.379  0.00  0.00    +0.000 A 
ENDBRANCH   8  19
BRANCH   1  26
ATOM     25  C   UNL     1       2.780   8.487  18.210  0.00  0.00    +0.000 C 
ATOM     26  N   UNL     1       1.688   9.167  18.113  0.00  0.00    +0.000 NA
BRANCH  25  31
ATOM     27  C   UNL     1       2.169   5.300  20.188  0.00  0.00    +0.000 A 
ATOM     28  C   UNL     1       2.518   4.349  19.219  0.00  0.00    +0.000 A 
ATOM     29  C   UNL     1       2.944   4.754  17.947  0.00  0.00    +0.000 A 
ATOM     30  C   UNL     1       3.032   6.110  17.615  0.00  0.00    +0.000 A 
ATOM     31  C   UNL     1       2.675   7.058  18.575  0.00  0.00    +0.000 A 
ATOM     32  C   UNL     1       2.247   6.660  19.863  0.00  0.00    +0.000 A 
BRANCH  29  33
ATOM     33  N   UNL     1       3.299   3.741  16.946  0.00  0.00    +0.000 N 
ATOM     34  O   UNL     1       2.497   2.819  16.744  0.00  0.00    +0.000 OA
ATOM     35  O   UNL     1       4.382   3.873  16.360  0.00  0.00    +0.000 OA
ENDBRANCH  29  33
BRANCH  27  37
ATOM     36  C   UNL     1       2.143   3.380  21.628  0.00  0.00    +0.000 C 
ATOM     37  O   UNL     1       1.786   4.733  21.375  0.00  0.00    +0.000 OA
ENDBRANCH  27  37
BRANCH  32  38
ATOM     38  O   UNL     1       1.909   7.594  20.811  0.00  0.00    +0.000 OA
ATOM     39  H   UNL     1       2.407   7.414  21.642  0.00  0.00    +0.000 HD
ENDBRANCH  32  38
ENDBRANCH  25  31
ENDBRANCH   1  26
TORSDOF 7
ENDMDL
MODEL 3
REMARK VINA RESULT:      -8.2      1.327      1.725
REMARK  Name = 
REMARK  8 active torsions:
REMARK  status: ('A' for Active; 'I' for Inactive)
REMARK    1  A    between atoms: C_1  and  O_2
REMARK    2  A    between atoms: O_2  and  C_3
REMARK    3  A    between atoms: C_5  and  N_6
REMARK    4  A    between atoms: C_10  and  C_11
REMARK    5  A    between atoms: N_12  and  N_13
REMARK    6  A    between atoms: N_17  and  C_18
REMARK    7  A    between atoms: N_26  and  C_27
REMARK    8  A    between atoms: C_34  and  O_35
REMARK                            x       y       z     vdW  Elec       q    Type
REMARK                         _______ _______ _______ _____ _____    ______ ____
ROOT
ATOM      1  N   UNL     1       1.819  11.943  18.289  0.00  0.00    +0.000 N 
ATOM      2  C   UNL     1       0.955  12.658  19.141  0.00  0.00    +0.000 A 
ATOM      3  N   UNL     1       0.922  13.962  18.977  0.00  0.00    +0.000 NA
ATOM      4  C   UNL     1       0.186  14.640  19.847  0.00  0.00    +0.000 A 
ATOM      5  N   UNL     1       0.202  16.036  19.808  0.00  0.00    +0.000 N 
ATOM      6  N   UNL     1      -0.574  14.075  20.763  0.00  0.00    +0.000 NA
ATOM      7  C   UNL     1      -0.572  12.748  20.796  0.00  0.00    +0.000 A 
ATOM      8  N   UNL     1      -1.464  12.037  21.602  0.00  0.00    +0.000 N 
ATOM      9  N   UNL     1       0.226  12.005  20.040  0.00  0.00    +0.000 NA
ATOM     10  H   UNL     1       1.548  12.136  17.328  0.00  0.00    +0.000 HD
ATOM     11  H   UNL     1      -0.423  16.414  20.510  0.00  0.00    +0.000 HD
ATOM     12  H   UNL     1      -1.329  11.050  21.446  0.00  0.00    +0.000 HD
ENDROOT
BRANCH   5  13
ATOM     13  C   UNL     1       0.372  16.838  18.672  0.00  0.00    +0.000 A 
ATOM     14  C   UNL     1       1.637  17.071  18.112  0.00  0.00    +0.000 A 
ATOM     15  C   UNL     1       1.793  17.881  16.992  0.00  0.00    +0.000 A 
ATOM     16  C   UNL     1       0.678  18.476  16.411  0.00  0.00    +0.000 A 
ATOM     17  C   UNL     1      -0.587  18.265  16.960  0.00  0.00    +0.000 A 
ATOM     18  C   UNL     1      -0.740  17.445  18.081  0.00  0.00    +0.000 A 
ENDBRANCH   5  13
BRANCH   8  19
ATOM     19  C   UNL     1      -2.726  12.420  22.093  0.00  0.00    +0.000 A 
ATOM     20  C   UNL     1      -2.946  12.415  23.480  0.00  0.00    +0.000 A 
ATOM     21  C   UNL     1      -4.192  12.770  24.009  0.00  0.00    +0.000 A 
ATOM     22  C   UNL     1      -5.232  13.144  23.166  0.00  0.00    +0.000 A 
ATOM     23  C   UNL     1      -5.026  13.171  21.790  0.00  0.00    +0.000 A 
ATOM     24  C   UNL     1      -3.781  12.817  21.268  0.00  0.00    +0.000 A 
ENDBRANCH   8  19
BRANCH   1  26
ATOM     25  C   UNL     1       1.957   9.745  17.809  0.00  0.00    +0.000 C 
ATOM     26  N   UNL     1       2.120  10.690  18.674  0.00  0.00    +0.000 NA
BRANCH  25  31
ATOM     27  C   UNL     1       2.386   6.491  19.725  0.00  0.00    +0.000 A 
ATOM     28  C   UNL     1       3.255   5.818  18.856  0.00  0.00    +0.000 A 
ATOM     29  C   UNL     1       3.686   6.426  17.669  0.00  0.00    +0.000 A 
ATOM     30  C   UNL     1       3.262   7.714  17.326  0.00  0.00    +0.000 A 
ATOM     31  C   UNL     1       2.389   8.382  18.184  0.00  0.00    +0.000 A 
ATOM     32  C   UNL     1       1.950   7.779  19.387  0.00  0.00    +0.000 A 
BRANCH  29  33
ATOM     33  N   UNL     1       4.591   5.699  16.771  0.00  0.00    +0.000 N 
ATOM     34  O   UNL     1       5.170   6.342  15.885  0.00  0.00    +0.000 OA
ATOM     35  O   UNL     1       4.724   4.482  16.959  0.00  0.00    +0.000 OA
ENDBRANCH  29  33
BRANCH  27  37
ATOM     36  C   UNL     1       1.425   4.505  20.666  0.00  0.00    +0.000 C 
ATOM     37  O   UNL     1       2.075   5.758  20.839  0.00  0.00    +0.000 OA
ENDBRANCH  27  37
BRANCH  32  38
ATOM     38  O   UNL     1       1.102   8.443  20.237  0.00  0.00    +0.000 OA
ATOM     39  H   UNL     1       1.420   9.367  20.364  0.00  0.00    +0.000 HD
ENDBRANCH  32  38
ENDBRANCH  25  31
ENDBRANCH   1  26
TORSDOF 7
ENDMDL
MODEL 4
REMARK VINA RESULT:      -8.2      1.456      1.888
REMARK  Name = 
REMARK  8 active torsions:
REMARK  status: ('A' for Active; 'I' for Inactive)
REMARK    1  A    between atoms: C_1  and  O_2
REMARK    2  A    between atoms: O_2  and  C_3
REMARK    3  A    between atoms: C_5  and  N_6
REMARK    4  A    between atoms: C_10  and  C_11
REMARK    5  A    between atoms: N_12  and  N_13
REMARK    6  A    between atoms: N_17  and  C_18
REMARK    7  A    between atoms: N_26  and  C_27
REMARK    8  A    between atoms: C_34  and  O_35
REMARK                            x       y       z     vdW  Elec       q    Type
REMARK                         _______ _______ _______ _____ _____    ______ ____
ROOT
ATOM      1  N   UNL     1       1.974  11.958  18.203  0.00  0.00    +0.000 N 
ATOM      2  C   UNL     1       1.365  12.747  19.199  0.00  0.00    +0.000 A 
ATOM      3  N   UNL     1       1.322  14.041  18.972  0.00  0.00    +0.000 NA
ATOM      4  C   UNL     1       0.840  14.789  19.955  0.00  0.00    +0.000 A 
ATOM      5  N   UNL     1       0.878  16.180  19.832  0.00  0.00    +0.000 N 
ATOM      6  N   UNL     1       0.319  14.299  21.062  0.00  0.00    +0.000 NA
ATOM      7  C   UNL     1       0.300  12.977  21.171  0.00  0.00    +0.000 A 
ATOM      8  N   UNL     1      -0.380  12.340  22.212  0.00  0.00    +0.000 N 
ATOM      9  N   UNL     1       0.868  12.167  20.287  0.00  0.00    +0.000 NA
ATOM     10  H   UNL     1       1.477  12.112  17.329  0.00  0.00    +0.000 HD
ATOM     11  H   UNL     1       0.455  16.615  20.643  0.00  0.00    +0.000 HD
ATOM     12  H   UNL     1      -0.311  11.342  22.086  0.00  0.00    +0.000 HD
ENDROOT
BRANCH   5  13
ATOM     13  C   UNL     1       0.778  16.916  18.644  0.00  0.00    +0.000 A 
ATOM     14  C   UNL     1       1.906  17.230  17.870  0.00  0.00    +0.000 A 
ATOM     15  C   UNL     1       1.794  17.974  16.700  0.00  0.00    +0.000 A 
ATOM     16  C   UNL     1       0.545  18.420  16.284  0.00  0.00    +0.000 A 
ATOM     17  C   UNL     1      -0.587  18.128  17.046  0.00  0.00    +0.000 A 
ATOM     18  C   UNL     1      -0.471  17.374  18.217  0.00  0.00    +0.000 A 
ENDBRANCH   5  13
BRANCH   8  19
ATOM     19  C   UNL     1      -1.471  12.794  22.976  0.00  0.00    +0.000 A 
ATOM     20  C   UNL     1      -1.368  14.025  23.644  0.00  0.00    +0.000 A 
ATOM     21  C   UNL     1      -2.422  14.504  24.431  0.00  0.00    +0.000 A 
ATOM     22  C   UNL     1      -3.595  13.770  24.555  0.00  0.00    +0.000 A 
ATOM     23  C   UNL     1      -3.721  12.556  23.886  0.00  0.00    +0.000 A 
ATOM     24  C   UNL     1      -2.668  12.084  23.102  0.00  0.00    +0.000 A 
ENDBRANCH   8  19
BRANCH   1  26
ATOM     25  C   UNL     1       1.946   9.736  17.829  0.00  0.00    +0.000 C 
ATOM     26  N   UNL     1       2.333  10.716  18.574  0.00  0.00    +0.000 NA
BRANCH  25  31
ATOM     27  C   UNL     1       2.507   6.453  19.659  0.00  0.00    +0.000 A 
ATOM     28  C   UNL     1       3.385   5.830  18.763  0.00  0.00    +0.000 A 
ATOM     29  C   UNL     1       3.781   6.480  17.586  0.00  0.00    +0.000 A 
ATOM     30  C   UNL     1       3.310   7.761  17.280  0.00  0.00    +0.000 A 
ATOM     31  C   UNL     1       2.427   8.379  18.165  0.00  0.00    +0.000 A 
ATOM     32  C   UNL     1       2.025   7.734  19.358  0.00  0.00    +0.000 A 
BRANCH  29  33
ATOM     33  N   UNL     1       4.697   5.805  16.660  0.00  0.00    +0.000 N 
ATOM     34  O   UNL     1       4.549   4.589  16.479  0.00  0.00    +0.000 OA
ATOM     35  O   UNL     1       5.564   6.498  16.110  0.00  0.00    +0.000 OA
ENDBRANCH  29  33
BRANCH  27  37
ATOM     36  C   UNL     1       1.431   4.522  20.592  0.00  0.00    +0.000 C 
ATOM     37  O   UNL     1       2.234   5.684  20.759  0.00  0.00    +0.000 OA
ENDBRANCH  27  37
BRANCH  32  38
ATOM     38  O   UNL     1       1.166   8.348  20.234  0.00  0.00    +0.000 OA
ATOM     39  H   UNL     1       0.247   8.035  20.069  0.00  0.00    +0.000 HD
ENDBRANCH  32  38
ENDBRANCH  25  31
ENDBRANCH   1  26
TORSDOF 7
ENDMDL
MODEL 5
REMARK VINA RESULT:      -8.0      1.787      5.522
REMARK  Name = 
REMARK  8 active torsions:
REMARK  status: ('A' for Active; 'I' for Inactive)
REMARK    1  A    between atoms: C_1  and  O_2
REMARK    2  A    between atoms: O_2  and  C_3
REMARK    3  A    between atoms: C_5  and  N_6
REMARK    4  A    between atoms: C_10  and  C_11
REMARK    5  A    between atoms: N_12  and  N_13
REMARK    6  A    between atoms: N_17  and  C_18
REMARK    7  A    between atoms: N_26  and  C_27
REMARK    8  A    between atoms: C_34  and  O_35
REMARK                            x       y       z     vdW  Elec       q    Type
REMARK                         _______ _______ _______ _____ _____    ______ ____
ROOT
ATOM      1  N   UNL     1       0.668   9.183  19.684  0.00  0.00    +0.000 N 
ATOM      2  C   UNL     1       0.701  10.557  19.374  0.00  0.00    +0.000 A 
ATOM      3  N   UNL     1      -0.382  11.245  19.659  0.00  0.00    +0.000 NA
ATOM      4  C   UNL     1      -0.385  12.514  19.273  0.00  0.00    +0.000 A 
ATOM      5  N   UNL     1      -1.547  13.271  19.433  0.00  0.00    +0.000 N 
ATOM      6  N   UNL     1       0.656  13.120  18.738  0.00  0.00    +0.000 NA
ATOM      7  C   UNL     1       1.750  12.387  18.582  0.00  0.00    +0.000 A 
ATOM      8  N   UNL     1       2.963  12.960  18.189  0.00  0.00    +0.000 N 
ATOM      9  N   UNL     1       1.794  11.084  18.832  0.00  0.00    +0.000 NA
ATOM     10  H   UNL     1       0.482   9.088  20.679  0.00  0.00    +0.000 HD
ATOM     11  H   UNL     1      -1.394  14.222  19.120  0.00  0.00    +0.000 HD
ATOM     12  H   UNL     1       3.673  12.244  18.175  0.00  0.00    +0.000 HD
ENDROOT
BRANCH   5  13
ATOM     13  C   UNL     1      -2.503  13.129  20.448  0.00  0.00    +0.000 A 
ATOM     14  C   UNL     1      -2.172  13.279  21.803  0.00  0.00    +0.000 A 
ATOM     15  C   UNL     1      -3.128  13.122  22.802  0.00  0.00    +0.000 A 
ATOM     16  C   UNL     1      -4.439  12.808  22.458  0.00  0.00    +0.000 A 
ATOM     17  C   UNL     1      -4.785  12.644  21.116  0.00  0.00    +0.000 A 
ATOM     18  C   UNL     1      -3.823  12.810  20.117  0.00  0.00    +0.000 A 
ENDBRANCH   5  13
BRANCH   8  19
ATOM     19  C   UNL     1       3.418  14.282  18.346  0.00  0.00    +0.000 A 
ATOM     20  C   UNL     1       4.088  14.634  19.529  0.00  0.00    +0.000 A 
ATOM     21  C   UNL     1       4.539  15.943  19.735  0.00  0.00    +0.000 A 
ATOM     22  C   UNL     1       4.338  16.915  18.762  0.00  0.00    +0.000 A 
ATOM     23  C   UNL     1       3.691  16.580  17.576  0.00  0.00    +0.000 A 
ATOM     24  C   UNL     1       3.245  15.273  17.377  0.00  0.00    +0.000 A 
ENDBRANCH   8  19
BRANCH   1  26
ATOM     25  C   UNL     1       2.018   7.380  19.725  0.00  0.00    +0.000 C 
ATOM     26  N   UNL     1       1.604   8.423  19.088  0.00  0.00    +0.000 NA
BRANCH  25  31
ATOM     27  C   UNL     1       3.958   4.275  18.707  0.00  0.00    +0.000 A 
ATOM     28  C   UNL     1       4.783   4.825  17.717  0.00  0.00    +0.000 A 
ATOM     29  C   UNL     1       4.698   6.187  17.397  0.00  0.00    +0.000 A 
ATOM     30  C   UNL     1       3.794   7.026  18.055  0.00  0.00    +0.000 A 
ATOM     31  C   UNL     1       2.964   6.478  19.034  0.00  0.00    +0.000 A 
ATOM     32  C   UNL     1       3.044   5.105  19.368  0.00  0.00    +0.000 A 
BRANCH  29  33
ATOM     33  N   UNL     1       5.568   6.740  16.352  0.00  0.00    +0.000 N 
ATOM     34  O   UNL     1       6.640   7.252  16.699  0.00  0.00    +0.000 OA
ATOM     35  O   UNL     1       5.175   6.655  15.179  0.00  0.00    +0.000 OA
ENDBRANCH  29  33
BRANCH  27  37
ATOM     36  C   UNL     1       3.356   2.007  18.204  0.00  0.00    +0.000 C 
ATOM     37  O   UNL     1       4.178   2.937  18.899  0.00  0.00    +0.000 OA
ENDBRANCH  27  37
BRANCH  32  38
ATOM     38  O   UNL     1       2.236   4.570  20.340  0.00  0.00    +0.000 OA
ATOM     39  H   UNL     1       2.754   4.455  21.171  0.00  0.00    +0.000 HD
ENDBRANCH  32  38
ENDBRANCH  25  31
ENDBRANCH   1  26
TORSDOF 7
ENDMDL
MODEL 6
REMARK VINA RESULT:      -7.9      1.788      5.603
REMARK  Name = 
REMARK  8 active torsions:
REMARK  status: ('A' for Active; 'I' for Inactive)
REMARK    1  A    between atoms: C_1  and  O_2
REMARK    2  A    between atoms: O_2  and  C_3
REMARK    3  A    between atoms: C_5  and  N_6
REMARK    4  A    between atoms: C_10  and  C_11
REMARK    5  A    between atoms: N_12  and  N_13
REMARK    6  A    between atoms: N_17  and  C_18
REMARK    7  A    between atoms: N_26  and  C_27
REMARK    8  A    between atoms: C_34  and  O_35
REMARK                            x       y       z     vdW  Elec       q    Type
REMARK                         _______ _______ _______ _____ _____    ______ ____
ROOT
ATOM      1  N   UNL     1       0.696   9.215  19.683  0.00  0.00    +0.000 N 
ATOM      2  C   UNL     1       0.736  10.589  19.375  0.00  0.00    +0.000 A 
ATOM      3  N   UNL     1      -0.345  11.282  19.659  0.00  0.00    +0.000 NA
ATOM      4  C   UNL     1      -0.341  12.551  19.276  0.00  0.00    +0.000 A 
ATOM      5  N   UNL     1      -1.500  13.314  19.435  0.00  0.00    +0.000 N 
ATOM      6  N   UNL     1       0.703  13.153  18.743  0.00  0.00    +0.000 NA
ATOM      7  C   UNL     1       1.795  12.415  18.587  0.00  0.00    +0.000 A 
ATOM      8  N   UNL     1       3.011  12.983  18.198  0.00  0.00    +0.000 N 
ATOM      9  N   UNL     1       1.832  11.112  18.836  0.00  0.00    +0.000 NA
ATOM     10  H   UNL     1       0.508   9.119  20.677  0.00  0.00    +0.000 HD
ATOM     11  H   UNL     1      -1.341  14.264  19.123  0.00  0.00    +0.000 HD
ATOM     12  H   UNL     1       3.717  12.264  18.184  0.00  0.00    +0.000 HD
ENDROOT
BRANCH   5  13
ATOM     13  C   UNL     1      -2.458  13.175  20.448  0.00  0.00    +0.000 A 
ATOM     14  C   UNL     1      -3.780  12.793  20.170  0.00  0.00    +0.000 A 
ATOM     15  C   UNL     1      -4.725  12.672  21.184  0.00  0.00    +0.000 A 
ATOM     16  C   UNL     1      -4.361  12.934  22.500  0.00  0.00    +0.000 A 
ATOM     17  C   UNL     1      -3.054  13.325  22.795  0.00  0.00    +0.000 A 
ATOM     18  C   UNL     1      -2.107  13.439  21.774  0.00  0.00    +0.000 A 
ENDBRANCH   5  13
BRANCH   8  19
ATOM     19  C   UNL     1       3.472  14.303  18.357  0.00  0.00    +0.000 A 
ATOM     20  C   UNL     1       3.089  15.274  17.418  0.00  0.00    +0.000 A 
ATOM     21  C   UNL     1       3.542  16.594  17.528  0.00  0.00    +0.000 A 
ATOM     22  C   UNL     1       4.373  16.967  18.578  0.00  0.00    +0.000 A 
ATOM     23  C   UNL     1       4.749  16.020  19.526  0.00  0.00    +0.000 A 
ATOM     24  C   UNL     1       4.293  14.706  19.413  0.00  0.00    +0.000 A 
ENDBRANCH   8  19
BRANCH   1  26
ATOM     25  C   UNL     1       2.027   7.398  19.717  0.00  0.00    +0.000 C 
ATOM     26  N   UNL     1       1.629   8.451  19.087  0.00  0.00    +0.000 NA
BRANCH  25  31
ATOM     27  C   UNL     1       3.958   4.287  18.697  0.00  0.00    +0.000 A 
ATOM     28  C   UNL     1       4.782   4.835  17.706  0.00  0.00    +0.000 A 
ATOM     29  C   UNL     1       4.700   6.197  17.385  0.00  0.00    +0.000 A 
ATOM     30  C   UNL     1       3.799   7.038  18.045  0.00  0.00    +0.000 A 
ATOM     31  C   UNL     1       2.969   6.493  19.025  0.00  0.00    +0.000 A 
ATOM     32  C   UNL     1       3.046   5.120  19.359  0.00  0.00    +0.000 A 
BRANCH  29  33
ATOM     33  N   UNL     1       5.570   6.747  16.339  0.00  0.00    +0.000 N 
ATOM     34  O   UNL     1       6.632   7.280  16.687  0.00  0.00    +0.000 OA
ATOM     35  O   UNL     1       5.188   6.640  15.165  0.00  0.00    +0.000 OA
ENDBRANCH  29  33
BRANCH  27  37
ATOM     36  C   UNL     1       3.405   2.021  18.133  0.00  0.00    +0.000 C 
ATOM     37  O   UNL     1       4.174   2.949  18.889  0.00  0.00    +0.000 OA
ENDBRANCH  27  37
BRANCH  32  38
ATOM     38  O   UNL     1       2.239   4.587  20.332  0.00  0.00    +0.000 OA
ATOM     39  H   UNL     1       1.448   4.173  19.914  0.00  0.00    +0.000 HD
ENDBRANCH  32  38
ENDBRANCH  25  31
ENDBRANCH   1  26
TORSDOF 7
ENDMDL
MODEL 7
REMARK VINA RESULT:      -7.9      1.795      2.341
REMARK  Name = 
REMARK  8 active torsions:
REMARK  status: ('A' for Active; 'I' for Inactive)
REMARK    1  A    between atoms: C_1  and  O_2
REMARK    2  A    between atoms: O_2  and  C_3
REMARK    3  A    between atoms: C_5  and  N_6
REMARK    4  A    between atoms: C_10  and  C_11
REMARK    5  A    between atoms: N_12  and  N_13
REMARK    6  A    between atoms: N_17  and  C_18
REMARK    7  A    between atoms: N_26  and  C_27
REMARK    8  A    between atoms: C_34  and  O_35
REMARK                            x       y       z     vdW  Elec       q    Type
REMARK                         _______ _______ _______ _____ _____    ______ ____
ROOT
ATOM      1  N   UNL     1       1.917  10.532  18.186  0.00  0.00    +0.000 N 
ATOM      2  C   UNL     1       0.799  11.339  18.477  0.00  0.00    +0.000 A 
ATOM      3  N   UNL     1       1.019  12.632  18.559  0.00  0.00    +0.000 NA
ATOM      4  C   UNL     1      -0.013  13.376  18.933  0.00  0.00    +0.000 A 
ATOM      5  N   UNL     1       0.179  14.741  19.159  0.00  0.00    +0.000 N 
ATOM      6  N   UNL     1      -1.231  12.904  19.111  0.00  0.00    +0.000 NA
ATOM      7  C   UNL     1      -1.397  11.605  18.904  0.00  0.00    +0.000 A 
ATOM      8  N   UNL     1      -2.669  11.024  18.890  0.00  0.00    +0.000 N 
ATOM      9  N   UNL     1      -0.394  10.776  18.644  0.00  0.00    +0.000 NA
ATOM     10  H   UNL     1       2.310  10.845  17.302  0.00  0.00    +0.000 HD
ATOM     11  H   UNL     1      -0.697  15.181  19.412  0.00  0.00    +0.000 HD
ATOM     12  H   UNL     1      -2.577  10.044  18.672  0.00  0.00    +0.000 HD
ENDROOT
BRANCH   5  13
ATOM     13  C   UNL     1       1.094  15.575  18.503  0.00  0.00    +0.000 A 
ATOM     14  C   UNL     1       2.422  15.184  18.277  0.00  0.00    +0.000 A 
ATOM     15  C   UNL     1       3.324  16.028  17.636  0.00  0.00    +0.000 A 
ATOM     16  C   UNL     1       2.909  17.285  17.210  0.00  0.00    +0.000 A 
ATOM     17  C   UNL     1       1.594  17.695  17.436  0.00  0.00    +0.000 A 
ATOM     18  C   UNL     1       0.690  16.842  18.073  0.00  0.00    +0.000 A 
ENDBRANCH   5  13
BRANCH   8  19
ATOM     19  C   UNL     1      -3.915  11.611  18.605  0.00  0.00    +0.000 A 
ATOM     20  C   UNL     1      -4.419  11.532  17.296  0.00  0.00    +0.000 A 
ATOM     21  C   UNL     1      -5.646  12.119  16.964  0.00  0.00    +0.000 A 
ATOM     22  C   UNL     1      -6.390  12.784  17.931  0.00  0.00    +0.000 A 
ATOM     23  C   UNL     1      -5.913  12.858  19.237  0.00  0.00    +0.000 A 
ATOM     24  C   UNL     1      -4.691  12.269  19.562  0.00  0.00    +0.000 A 
ENDBRANCH   8  19
BRANCH   1  26
ATOM     25  C   UNL     1       2.787   8.454  18.193  0.00  0.00    +0.000 C 
ATOM     26  N   UNL     1       1.779   9.220  18.445  0.00  0.00    +0.000 NA
BRANCH  25  31
ATOM     27  C   UNL     1       2.213   5.292  20.223  0.00  0.00    +0.000 A 
ATOM     28  C   UNL     1       2.538   4.330  19.258  0.00  0.00    +0.000 A 
ATOM     29  C   UNL     1       2.935   4.718  17.971  0.00  0.00    +0.000 A 
ATOM     30  C   UNL     1       3.019   6.069  17.622  0.00  0.00    +0.000 A 
ATOM     31  C   UNL     1       2.686   7.030  18.578  0.00  0.00    +0.000 A 
ATOM     32  C   UNL     1       2.287   6.649  19.880  0.00  0.00    +0.000 A 
BRANCH  29  33
ATOM     33  N   UNL     1       3.264   3.691  16.975  0.00  0.00    +0.000 N 
ATOM     34  O   UNL     1       4.394   3.712  16.471  0.00  0.00    +0.000 OA
ATOM     35  O   UNL     1       2.386   2.860  16.702  0.00  0.00    +0.000 OA
ENDBRANCH  29  33
BRANCH  27  37
ATOM     36  C   UNL     1       1.981   3.335  21.591  0.00  0.00    +0.000 C 
ATOM     37  O   UNL     1       1.856   4.742  21.425  0.00  0.00    +0.000 OA
ENDBRANCH  27  37
BRANCH  32  38
ATOM     38  O   UNL     1       1.973   7.595  20.824  0.00  0.00    +0.000 OA
ATOM     39  H   UNL     1       1.389   8.279  20.422  0.00  0.00    +0.000 HD
ENDBRANCH  32  38
ENDBRANCH  25  31
ENDBRANCH   1  26
TORSDOF 7
ENDMDL
MODEL 8
REMARK VINA RESULT:      -7.8      1.789      5.779
REMARK  Name = 
REMARK  8 active torsions:
REMARK  status: ('A' for Active; 'I' for Inactive)
REMARK    1  A    between atoms: C_1  and  O_2
REMARK    2  A    between atoms: O_2  and  C_3
REMARK    3  A    between atoms: C_5  and  N_6
REMARK    4  A    between atoms: C_10  and  C_11
REMARK    5  A    between atoms: N_12  and  N_13
REMARK    6  A    between atoms: N_17  and  C_18
REMARK    7  A    between atoms: N_26  and  C_27
REMARK    8  A    between atoms: C_34  and  O_35
REMARK                            x       y       z     vdW  Elec       q    Type
REMARK                         _______ _______ _______ _____ _____    ______ ____
ROOT
ATOM      1  N   UNL     1       0.171   9.072  21.886  0.00  0.00    +0.000 N 
ATOM      2  C   UNL     1       0.075  10.350  21.303  0.00  0.00    +0.000 A 
ATOM      3  N   UNL     1      -1.054  10.996  21.496  0.00  0.00    +0.000 NA
ATOM      4  C   UNL     1      -1.179  12.154  20.862  0.00  0.00    +0.000 A 
ATOM      5  N   UNL     1      -2.396  12.835  20.923  0.00  0.00    +0.000 N 
ATOM      6  N   UNL     1      -0.212  12.715  20.164  0.00  0.00    +0.000 NA
ATOM      7  C   UNL     1       0.936  12.053  20.105  0.00  0.00    +0.000 A 
ATOM      8  N   UNL     1       2.081  12.626  19.545  0.00  0.00    +0.000 N 
ATOM      9  N   UNL     1       1.100  10.838  20.611  0.00  0.00    +0.000 NA
ATOM     10  H   UNL     1       0.027   9.169  22.888  0.00  0.00    +0.000 HD
ATOM     11  H   UNL     1      -2.335  13.710  20.417  0.00  0.00    +0.000 HD
ATOM     12  H   UNL     1       2.849  11.979  19.640  0.00  0.00    +0.000 HD
ENDROOT
BRANCH   5  13
ATOM     13  C   UNL     1      -3.302  12.831  21.992  0.00  0.00    +0.000 A 
ATOM     14  C   UNL     1      -2.880  12.664  23.320  0.00  0.00    +0.000 A 
ATOM     15  C   UNL     1      -3.792  12.649  24.371  0.00  0.00    +0.000 A 
ATOM     16  C   UNL     1      -5.149  12.799  24.108  0.00  0.00    +0.000 A 
ATOM     17  C   UNL     1      -5.589  12.956  22.793  0.00  0.00    +0.000 A 
ATOM     18  C   UNL     1      -4.669  12.978  21.742  0.00  0.00    +0.000 A 
ENDBRANCH   5  13
BRANCH   8  19
ATOM     19  C   UNL     1       2.425  13.983  19.407  0.00  0.00    +0.000 A 
ATOM     20  C   UNL     1       2.635  14.504  18.120  0.00  0.00    +0.000 A 
ATOM     21  C   UNL     1       2.999  15.844  17.940  0.00  0.00    +0.000 A 
ATOM     22  C   UNL     1       3.150  16.684  19.036  0.00  0.00    +0.000 A 
ATOM     23  C   UNL     1       2.930  16.188  20.318  0.00  0.00    +0.000 A 
ATOM     24  C   UNL     1       2.566  14.852  20.492  0.00  0.00    +0.000 A 
ENDBRANCH   8  19
BRANCH   1  26
ATOM     25  C   UNL     1       0.811   7.115  20.970  0.00  0.00    +0.000 C 
ATOM     26  N   UNL     1       1.149   8.280  21.411  0.00  0.00    +0.000 NA
BRANCH  25  31
ATOM     27  C   UNL     1       3.579   5.933  18.650  0.00  0.00    +0.000 A 
ATOM     28  C   UNL     1       3.810   4.659  19.186  0.00  0.00    +0.000 A 
ATOM     29  C   UNL     1       3.068   4.205  20.285  0.00  0.00    +0.000 A 
ATOM     30  C   UNL     1       2.084   5.009  20.870  0.00  0.00    +0.000 A 
ATOM     31  C   UNL     1       1.860   6.282  20.344  0.00  0.00    +0.000 A 
ATOM     32  C   UNL     1       2.601   6.748  19.232  0.00  0.00    +0.000 A 
BRANCH  29  33
ATOM     33  N   UNL     1       3.331   2.870  20.834  0.00  0.00    +0.000 N 
ATOM     34  O   UNL     1       2.771   2.555  21.892  0.00  0.00    +0.000 OA
ATOM     35  O   UNL     1       4.099   2.133  20.198  0.00  0.00    +0.000 OA
ENDBRANCH  29  33
BRANCH  27  37
ATOM     36  C   UNL     1       4.836   5.131  16.769  0.00  0.00    +0.000 C 
ATOM     37  O   UNL     1       4.383   6.211  17.576  0.00  0.00    +0.000 OA
ENDBRANCH  27  37
BRANCH  32  38
ATOM     38  O   UNL     1       2.370   7.995  18.708  0.00  0.00    +0.000 OA
ATOM     39  H   UNL     1       1.842   7.911  17.880  0.00  0.00    +0.000 HD
ENDBRANCH  32  38
ENDBRANCH  25  31
ENDBRANCH   1  26
TORSDOF 7
ENDMDL
MODEL 9
REMARK VINA RESULT:      -7.8      1.803      5.747
REMARK  Name = 
REMARK  8 active torsions:
REMARK  status: ('A' for Active; 'I' for Inactive)
REMARK    1  A    between atoms: C_1  and  O_2
REMARK    2  A    between atoms: O_2  and  C_3
REMARK    3  A    between atoms: C_5  and  N_6
REMARK    4  A    between atoms: C_10  and  C_11
REMARK    5  A    between atoms: N_12  and  N_13
REMARK    6  A    between atoms: N_17  and  C_18
REMARK    7  A    between atoms: N_26  and  C_27
REMARK    8  A    between atoms: C_34  and  O_35
REMARK                            x       y       z     vdW  Elec       q    Type
REMARK                         _______ _______ _______ _____ _____    ______ ____
ROOT
ATOM      1  N   UNL     1       0.133   9.073  21.838  0.00  0.00    +0.000 N 
ATOM      2  C   UNL     1       0.044  10.374  21.305  0.00  0.00    +0.000 A 
ATOM      3  N   UNL     1      -1.090  11.009  21.504  0.00  0.00    +0.000 NA
ATOM      4  C   UNL     1      -1.207  12.191  20.915  0.00  0.00    +0.000 A 
ATOM      5  N   UNL     1      -2.426  12.867  20.983  0.00  0.00    +0.000 N 
ATOM      6  N   UNL     1      -0.230  12.782  20.257  0.00  0.00    +0.000 NA
ATOM      7  C   UNL     1       0.921  12.124  20.190  0.00  0.00    +0.000 A 
ATOM      8  N   UNL     1       2.074  12.721  19.673  0.00  0.00    +0.000 N 
ATOM      9  N   UNL     1       1.079  10.890  20.651  0.00  0.00    +0.000 NA
ATOM     10  H   UNL     1      -0.028   9.130  22.840  0.00  0.00    +0.000 HD
ATOM     11  H   UNL     1      -2.359  13.761  20.513  0.00  0.00    +0.000 HD
ATOM     12  H   UNL     1       2.842  12.072  19.756  0.00  0.00    +0.000 HD
ENDROOT
BRANCH   5  13
ATOM     13  C   UNL     1      -3.350  12.819  22.035  0.00  0.00    +0.000 A 
ATOM     14  C   UNL     1      -4.731  12.931  21.814  0.00  0.00    +0.000 A 
ATOM     15  C   UNL     1      -5.638  12.896  22.870  0.00  0.00    +0.000 A 
ATOM     16  C   UNL     1      -5.172  12.748  24.172  0.00  0.00    +0.000 A 
ATOM     17  C   UNL     1      -3.802  12.646  24.413  0.00  0.00    +0.000 A 
ATOM     18  C   UNL     1      -2.896  12.675  23.349  0.00  0.00    +0.000 A 
ENDBRANCH   5  13
BRANCH   8  19
ATOM     19  C   UNL     1       2.417  14.083  19.596  0.00  0.00    +0.000 A 
ATOM     20  C   UNL     1       2.903  14.727  20.745  0.00  0.00    +0.000 A 
ATOM     21  C   UNL     1       3.237  16.086  20.718  0.00  0.00    +0.000 A 
ATOM     22  C   UNL     1       3.101  16.819  19.544  0.00  0.00    +0.000 A 
ATOM     23  C   UNL     1       2.636  16.193  18.392  0.00  0.00    +0.000 A 
ATOM     24  C   UNL     1       2.306  14.837  18.425  0.00  0.00    +0.000 A 
ENDBRANCH   8  19
BRANCH   1  26
ATOM     25  C   UNL     1       0.823   7.091  21.015  0.00  0.00    +0.000 C 
ATOM     26  N   UNL     1       1.121   8.302  21.348  0.00  0.00    +0.000 NA
BRANCH  25  31
ATOM     27  C   UNL     1       3.590   5.958  18.670  0.00  0.00    +0.000 A 
ATOM     28  C   UNL     1       3.825   4.676  19.184  0.00  0.00    +0.000 A 
ATOM     29  C   UNL     1       3.088   4.201  20.277  0.00  0.00    +0.000 A 
ATOM     30  C   UNL     1       2.102   4.992  20.877  0.00  0.00    +0.000 A 
ATOM     31  C   UNL     1       1.873   6.272  20.374  0.00  0.00    +0.000 A 
ATOM     32  C   UNL     1       2.610   6.760  19.268  0.00  0.00    +0.000 A 
BRANCH  29  33
ATOM     33  N   UNL     1       3.356   2.858  20.802  0.00  0.00    +0.000 N 
ATOM     34  O   UNL     1       2.811   2.529  21.864  0.00  0.00    +0.000 OA
ATOM     35  O   UNL     1       4.114   2.129  20.145  0.00  0.00    +0.000 OA
ENDBRANCH  29  33
BRANCH  27  37
ATOM     36  C   UNL     1       4.876   5.189  16.796  0.00  0.00    +0.000 C 
ATOM     37  O   UNL     1       4.390   6.257  17.599  0.00  0.00    +0.000 OA
ENDBRANCH  27  37
BRANCH  32  38
ATOM     38  O   UNL     1       2.374   8.015  18.766  0.00  0.00    +0.000 OA
ATOM     39  H   UNL     1       2.782   8.689  19.358  0.00  0.00    +0.000 HD
ENDBRANCH  32  38
ENDBRANCH  25  31
ENDBRANCH   1  26
TORSDOF 7
ENDMDL
