MODEL 1
REMARK VINA RESULT:      -7.2      0.000      0.000
REMARK  Name = 
REMARK  7 active torsions:
REMARK  status: ('A' for Active; 'I' for Inactive)
REMARK    1  A    between atoms: C_1  and  C_2
REMARK    2  A    between atoms: C_2  and  N_3
REMARK    3  A    between atoms: N_3  and  C_4
REMARK    4  A    between atoms: N_3  and  S_6
REMARK    5  A    between atoms: C_4  and  C_5
REMARK    6  A    between atoms: S_6  and  C_9
REMARK    7  A    between atoms: C_11  and  C_12
REMARK                            x       y       z     vdW  Elec       q    Type
REMARK                         _______ _______ _______ _____ _____    ______ ____
ROOT
ATOM      1  C   UNL     1       4.162   4.807  17.722  0.00  0.00    +0.000 A 
ATOM      2  C   UNL     1       3.303   5.830  18.174  0.00  0.00    +0.000 A 
ATOM      3  C   UNL     1       3.356   7.128  17.631  0.00  0.00    +0.000 A 
ATOM      4  C   UNL     1       4.283   7.396  16.621  0.00  0.00    +0.000 A 
ATOM      5  C   UNL     1       5.130   6.378  16.166  0.00  0.00    +0.000 A 
ATOM      6  C   UNL     1       5.084   5.085  16.712  0.00  0.00    +0.000 A 
ATOM      7 CL   UNL     1       6.220   3.971  16.053  0.00  0.00    +0.000 Cl
ENDROOT
BRANCH   3   8
ATOM      8  C   UNL     1       2.451   8.173  18.210  0.00  0.00    +0.000 C 
ATOM      9  O   UNL     1       2.173   9.137  17.506  0.00  0.00    +0.000 OA
ATOM     10  N   UNL     1       2.053   8.015  19.530  0.00  0.00    +0.000 N 
ATOM     11  C   UNL     1       1.227   8.806  20.281  0.00  0.00    +0.000 C 
ATOM     12  N   UNL     1       1.261   8.688  21.565  0.00  0.00    +0.000 NA
ATOM     13  C   UNL     1       0.325   9.664  22.170  0.00  0.00    +0.000 C 
ATOM     14  C   UNL     1      -0.026  10.763  21.177  0.00  0.00    +0.000 C 
ATOM     15  S   UNL     1       0.130   9.944  19.586  0.00  0.00    +0.000 S 
ATOM     16  H   UNL     1       2.524   7.337  20.106  0.00  0.00    +0.000 HD
ENDBRANCH   3   8
BRANCH   1  17
ATOM     17  S   UNL     1       4.075   3.257  18.594  0.00  0.00    +0.000 S 
ATOM     18  O   UNL     1       5.158   3.269  19.553  0.00  0.00    +0.000 OA
ATOM     19  O   UNL     1       3.933   2.154  17.665  0.00  0.00    +0.000 OA
BRANCH  17  20
ATOM     20  N   UNL     1       2.591   3.350  19.472  0.00  0.00    +0.000 NA
BRANCH  20  22
ATOM     21  C   UNL     1       0.346   2.522  18.701  0.00  0.00    +0.000 C 
ATOM     22  C   UNL     1       1.697   2.164  19.307  0.00  0.00    +0.000 C 
ENDBRANCH  20  22
BRANCH  20  23
ATOM     23  C   UNL     1       2.778   3.802  20.891  0.00  0.00    +0.000 C 
ATOM     24  C   UNL     1       2.173   2.862  21.924  0.00  0.00    +0.000 C 
ENDBRANCH  20  23
ENDBRANCH  17  20
ENDBRANCH   1  17
TORSDOF 5
ENDMDL
MODEL 2
REMARK VINA RESULT:      -7.1      1.643      1.942
REMARK  Name = 
REMARK  7 active torsions:
REMARK  status: ('A' for Active; 'I' for Inactive)
REMARK    1  A    between atoms: C_1  and  C_2
REMARK    2  A    between atoms: C_2  and  N_3
REMARK    3  A    between atoms: N_3  and  C_4
REMARK    4  A    between atoms: N_3  and  S_6
REMARK    5  A    between atoms: C_4  and  C_5
REMARK    6  A    between atoms: S_6  and  C_9
REMARK    7  A    between atoms: C_11  and  C_12
REMARK                            x       y       z     vdW  Elec       q    Type
REMARK                         _______ _______ _______ _____ _____    ______ ____
ROOT
ATOM      1  C   UNL     1       3.672   5.526  18.246  0.00  0.00    +0.000 A 
ATOM      2  C   UNL     1       2.839   6.067  19.247  0.00  0.00    +0.000 A 
ATOM      3  C   UNL     1       2.415   7.409  19.205  0.00  0.00    +0.000 A 
ATOM      4  C   UNL     1       2.833   8.212  18.140  0.00  0.00    +0.000 A 
ATOM      5  C   UNL     1       3.653   7.672  17.142  0.00  0.00    +0.000 A 
ATOM      6  C   UNL     1       4.083   6.336  17.188  0.00  0.00    +0.000 A 
ATOM      7 CL   UNL     1       5.112   5.855  15.893  0.00  0.00    +0.000 Cl
ENDROOT
BRANCH   3   8
ATOM      8  C   UNL     1       1.582   7.923  20.340  0.00  0.00    +0.000 C 
ATOM      9  O   UNL     1       1.167   7.107  21.156  0.00  0.00    +0.000 OA
ATOM     10  N   UNL     1       1.274   9.275  20.346  0.00  0.00    +0.000 N 
ATOM     11  C   UNL     1       0.554   9.991  21.264  0.00  0.00    +0.000 C 
ATOM     12  N   UNL     1       0.086  11.142  20.919  0.00  0.00    +0.000 NA
ATOM     13  C   UNL     1      -0.690  11.712  22.045  0.00  0.00    +0.000 C 
ATOM     14  C   UNL     1      -1.069  10.627  23.044  0.00  0.00    +0.000 C 
ATOM     15  S   UNL     1       0.257   9.428  22.870  0.00  0.00    +0.000 S 
ATOM     16  H   UNL     1       1.440   9.820  19.516  0.00  0.00    +0.000 HD
ENDBRANCH   3   8
BRANCH   1  17
ATOM     17  S   UNL     1       4.237   3.858  18.504  0.00  0.00    +0.000 S 
ATOM     18  O   UNL     1       5.374   3.948  19.395  0.00  0.00    +0.000 OA
ATOM     19  O   UNL     1       4.352   3.155  17.242  0.00  0.00    +0.000 OA
BRANCH  17  20
ATOM     20  N   UNL     1       2.948   3.103  19.368  0.00  0.00    +0.000 NA
BRANCH  20  22
ATOM     21  C   UNL     1       0.648   2.342  18.696  0.00  0.00    +0.000 C 
ATOM     22  C   UNL     1       2.150   2.127  18.566  0.00  0.00    +0.000 C 
ENDBRANCH  20  22
BRANCH  20  23
ATOM     23  C   UNL     1       3.361   2.611  20.725  0.00  0.00    +0.000 C 
ATOM     24  C   UNL     1       2.330   2.862  21.815  0.00  0.00    +0.000 C 
ENDBRANCH  20  23
ENDBRANCH  17  20
ENDBRANCH   1  17
TORSDOF 5
ENDMDL
MODEL 3
REMARK VINA RESULT:      -7.0      2.180      4.223
REMARK  Name = 
REMARK  7 active torsions:
REMARK  status: ('A' for Active; 'I' for Inactive)
REMARK    1  A    between atoms: C_1  and  C_2
REMARK    2  A    between atoms: C_2  and  N_3
REMARK    3  A    between atoms: N_3  and  C_4
REMARK    4  A    between atoms: N_3  and  S_6
REMARK    5  A    between atoms: C_4  and  C_5
REMARK    6  A    between atoms: S_6  and  C_9
REMARK    7  A    between atoms: C_11  and  C_12
REMARK                            x       y       z     vdW  Elec       q    Type
REMARK                         _______ _______ _______ _____ _____    ______ ____
ROOT
ATOM      1  C   UNL     1       4.007   4.961  19.082  0.00  0.00    +0.000 A 
ATOM      2  C   UNL     1       3.525   6.273  18.900  0.00  0.00    +0.000 A 
ATOM      3  C   UNL     1       2.403   6.749  19.605  0.00  0.00    +0.000 A 
ATOM      4  C   UNL     1       1.763   5.892  20.504  0.00  0.00    +0.000 A 
ATOM      5  C   UNL     1       2.247   4.592  20.691  0.00  0.00    +0.000 A 
ATOM      6  C   UNL     1       3.361   4.114  19.982  0.00  0.00    +0.000 A 
ATOM      7 CL   UNL     1       3.795   2.481  20.316  0.00  0.00    +0.000 Cl
ENDROOT
BRANCH   3   8
ATOM      8  C   UNL     1       1.918   8.135  19.308  0.00  0.00    +0.000 C 
ATOM      9  O   UNL     1       2.082   8.565  18.171  0.00  0.00    +0.000 OA
ATOM     10  N   UNL     1       1.385   8.866  20.360  0.00  0.00    +0.000 N 
ATOM     11  C   UNL     1       0.862  10.130  20.354  0.00  0.00    +0.000 C 
ATOM     12  N   UNL     1       0.746  10.755  21.476  0.00  0.00    +0.000 NA
ATOM     13  C   UNL     1       0.203  12.111  21.226  0.00  0.00    +0.000 C 
ATOM     14  C   UNL     1       0.375  12.501  19.765  0.00  0.00    +0.000 C 
ATOM     15  S   UNL     1       0.337  10.921  18.911  0.00  0.00    +0.000 S 
ATOM     16  H   UNL     1       1.517   8.536  21.302  0.00  0.00    +0.000 HD
ENDBRANCH   3   8
BRANCH   1  17
ATOM     17  S   UNL     1       5.347   4.456  18.023  0.00  0.00    +0.000 S 
ATOM     18  O   UNL     1       4.791   3.497  17.093  0.00  0.00    +0.000 OA
ATOM     19  O   UNL     1       6.519   4.120  18.805  0.00  0.00    +0.000 OA
BRANCH  17  20
ATOM     20  N   UNL     1       5.744   5.882  17.135  0.00  0.00    +0.000 NA
BRANCH  20  22
ATOM     21  C   UNL     1       7.319   7.799  17.548  0.00  0.00    +0.000 C 
ATOM     22  C   UNL     1       7.171   6.312  17.255  0.00  0.00    +0.000 C 
ENDBRANCH  20  22
BRANCH  20  23
ATOM     23  C   UNL     1       5.210   5.867  15.732  0.00  0.00    +0.000 C 
ATOM     24  C   UNL     1       6.121   5.172  14.731  0.00  0.00    +0.000 C 
ENDBRANCH  20  23
ENDBRANCH  17  20
ENDBRANCH   1  17
TORSDOF 5
ENDMDL
MODEL 4
REMARK VINA RESULT:      -7.0      1.370      1.555
REMARK  Name = 
REMARK  7 active torsions:
REMARK  status: ('A' for Active; 'I' for Inactive)
REMARK    1  A    between atoms: C_1  and  C_2
REMARK    2  A    between atoms: C_2  and  N_3
REMARK    3  A    between atoms: N_3  and  C_4
REMARK    4  A    between atoms: N_3  and  S_6
REMARK    5  A    between atoms: C_4  and  C_5
REMARK    6  A    between atoms: S_6  and  C_9
REMARK    7  A    between atoms: C_11  and  C_12
REMARK                            x       y       z     vdW  Elec       q    Type
REMARK                         _______ _______ _______ _____ _____    ______ ____
ROOT
ATOM      1  C   UNL     1       3.946   4.766  18.090  0.00  0.00    +0.000 A 
ATOM      2  C   UNL     1       3.089   5.644  18.785  0.00  0.00    +0.000 A 
ATOM      3  C   UNL     1       2.990   7.005  18.437  0.00  0.00    +0.000 A 
ATOM      4  C   UNL     1       3.763   7.484  17.376  0.00  0.00    +0.000 A 
ATOM      5  C   UNL     1       4.608   6.610  16.680  0.00  0.00    +0.000 A 
ATOM      6  C   UNL     1       4.713   5.255  17.032  0.00  0.00    +0.000 A 
ATOM      7 CL   UNL     1       5.824   4.338  16.089  0.00  0.00    +0.000 Cl
ENDROOT
BRANCH   3   8
ATOM      8  C   UNL     1       2.102   7.883  19.265  0.00  0.00    +0.000 C 
ATOM      9  O   UNL     1       1.830   7.509  20.400  0.00  0.00    +0.000 OA
ATOM     10  N   UNL     1       1.588   9.023  18.663  0.00  0.00    +0.000 N 
ATOM     11  C   UNL     1       0.778   9.988  19.195  0.00  0.00    +0.000 C 
ATOM     12  N   UNL     1       0.133  10.764  18.392  0.00  0.00    +0.000 NA
ATOM     13  C   UNL     1      -0.708  11.694  19.181  0.00  0.00    +0.000 C 
ATOM     14  C   UNL     1      -0.901  11.177  20.600  0.00  0.00    +0.000 C 
ATOM     15  S   UNL     1       0.593  10.224  20.896  0.00  0.00    +0.000 S 
ATOM     16  H   UNL     1       1.657   9.123  17.663  0.00  0.00    +0.000 HD
ENDBRANCH   3   8
BRANCH   1  17
ATOM     17  S   UNL     1       4.068   3.109  18.729  0.00  0.00    +0.000 S 
ATOM     18  O   UNL     1       5.218   3.095  19.607  0.00  0.00    +0.000 OA
ATOM     19  O   UNL     1       3.954   2.138  17.659  0.00  0.00    +0.000 OA
BRANCH  17  20
ATOM     20  N   UNL     1       2.656   2.928  19.705  0.00  0.00    +0.000 NA
BRANCH  20  22
ATOM     21  C   UNL     1       0.399   2.688  18.622  0.00  0.00    +0.000 C 
ATOM     22  C   UNL     1       1.638   1.981  19.156  0.00  0.00    +0.000 C 
ENDBRANCH  20  22
BRANCH  20  23
ATOM     23  C   UNL     1       2.970   2.735  21.160  0.00  0.00    +0.000 C 
ATOM     24  C   UNL     1       1.741   2.642  22.052  0.00  0.00    +0.000 C 
ENDBRANCH  20  23
ENDBRANCH  17  20
ENDBRANCH   1  17
TORSDOF 5
ENDMDL
MODEL 5
REMARK VINA RESULT:      -6.9      2.647      4.191
REMARK  Name = 
REMARK  7 active torsions:
REMARK  status: ('A' for Active; 'I' for Inactive)
REMARK    1  A    between atoms: C_1  and  C_2
REMARK    2  A    between atoms: C_2  and  N_3
REMARK    3  A    between atoms: N_3  and  C_4
REMARK    4  A    between atoms: N_3  and  S_6
REMARK    5  A    between atoms: C_4  and  C_5
REMARK    6  A    between atoms: S_6  and  C_9
REMARK    7  A    between atoms: C_11  and  C_12
REMARK                            x       y       z     vdW  Elec       q    Type
REMARK                         _______ _______ _______ _____ _____    ______ ____
ROOT
ATOM      1  C   UNL     1       4.166   6.131  17.398  0.00  0.00    +0.000 A 
ATOM      2  C   UNL     1       3.478   7.358  17.508  0.00  0.00    +0.000 A 
ATOM      3  C   UNL     1       2.541   7.586  18.533  0.00  0.00    +0.000 A 
ATOM      4  C   UNL     1       2.295   6.567  19.458  0.00  0.00    +0.000 A 
ATOM      5  C   UNL     1       2.984   5.352  19.353  0.00  0.00    +0.000 A 
ATOM      6  C   UNL     1       3.914   5.121  18.326  0.00  0.00    +0.000 A 
ATOM      7 CL   UNL     1       4.640   3.560  18.335  0.00  0.00    +0.000 Cl
ENDROOT
BRANCH   3   8
ATOM      8  C   UNL     1       1.809   8.894  18.543  0.00  0.00    +0.000 C 
ATOM      9  O   UNL     1       1.876   9.591  17.537  0.00  0.00    +0.000 OA
ATOM     10  N   UNL     1       1.169   9.260  19.718  0.00  0.00    +0.000 N 
ATOM     11  C   UNL     1       0.427  10.379  19.983  0.00  0.00    +0.000 C 
ATOM     12  N   UNL     1       0.217  10.703  21.213  0.00  0.00    +0.000 NA
ATOM     13  C   UNL     1      -0.565  11.961  21.261  0.00  0.00    +0.000 C 
ATOM     14  C   UNL     1      -0.488  12.695  19.929  0.00  0.00    +0.000 C 
ATOM     15  S   UNL     1      -0.254  11.368  18.742  0.00  0.00    +0.000 S 
ATOM     16  H   UNL     1       1.372   8.756  20.565  0.00  0.00    +0.000 HD
ENDBRANCH   3   8
BRANCH   1  17
ATOM     17  S   UNL     1       5.217   5.939  15.975  0.00  0.00    +0.000 S 
ATOM     18  O   UNL     1       4.969   7.086  15.128  0.00  0.00    +0.000 OA
ATOM     19  O   UNL     1       5.112   4.597  15.437  0.00  0.00    +0.000 OA
BRANCH  17  20
ATOM     20  N   UNL     1       6.817   6.088  16.607  0.00  0.00    +0.000 NA
BRANCH  20  22
ATOM     21  C   UNL     1       7.855   8.185  17.526  0.00  0.00    +0.000 C 
ATOM     22  C   UNL     1       6.936   6.999  17.787  0.00  0.00    +0.000 C 
ENDBRANCH  20  22
BRANCH  20  23
ATOM     23  C   UNL     1       7.510   4.765  16.764  0.00  0.00    +0.000 C 
ATOM     24  C   UNL     1       8.022   4.498  18.171  0.00  0.00    +0.000 C 
ENDBRANCH  20  23
ENDBRANCH  17  20
ENDBRANCH   1  17
TORSDOF 5
ENDMDL
MODEL 6
REMARK VINA RESULT:      -6.7      1.267      1.702
REMARK  Name = 
REMARK  7 active torsions:
REMARK  status: ('A' for Active; 'I' for Inactive)
REMARK    1  A    between atoms: C_1  and  C_2
REMARK    2  A    between atoms: C_2  and  N_3
REMARK    3  A    between atoms: N_3  and  C_4
REMARK    4  A    between atoms: N_3  and  S_6
REMARK    5  A    between atoms: C_4  and  C_5
REMARK    6  A    between atoms: S_6  and  C_9
REMARK    7  A    between atoms: C_11  and  C_12
REMARK                            x       y       z     vdW  Elec       q    Type
REMARK                         _______ _______ _______ _____ _____    ______ ____
ROOT
ATOM      1  C   UNL     1       3.082   4.713  17.602  0.00  0.00    +0.000 A 
ATOM      2  C   UNL     1       2.391   5.875  18.005  0.00  0.00    +0.000 A 
ATOM      3  C   UNL     1       2.943   7.158  17.826  0.00  0.00    +0.000 A 
ATOM      4  C   UNL     1       4.203   7.269  17.233  0.00  0.00    +0.000 A 
ATOM      5  C   UNL     1       4.885   6.116  16.825  0.00  0.00    +0.000 A 
ATOM      6  C   UNL     1       4.339   4.836  17.010  0.00  0.00    +0.000 A 
ATOM      7 CL   UNL     1       5.331   3.533  16.478  0.00  0.00    +0.000 Cl
ENDROOT
BRANCH   3   8
ATOM      8  C   UNL     1       2.172   8.336  18.338  0.00  0.00    +0.000 C 
ATOM      9  O   UNL     1       2.062   9.309  17.599  0.00  0.00    +0.000 OA
ATOM     10  N   UNL     1       1.700   8.275  19.641  0.00  0.00    +0.000 N 
ATOM     11  C   UNL     1       0.963   9.197  20.335  0.00  0.00    +0.000 C 
ATOM     12  N   UNL     1       0.927   9.114  21.621  0.00  0.00    +0.000 NA
ATOM     13  C   UNL     1       0.113  10.229  22.159  0.00  0.00    +0.000 C 
ATOM     14  C   UNL     1      -0.037  11.337  21.125  0.00  0.00    +0.000 C 
ATOM     15  S   UNL     1       0.068  10.456  19.563  0.00  0.00    +0.000 S 
ATOM     16  H   UNL     1       2.046   7.556  20.255  0.00  0.00    +0.000 HD
ENDBRANCH   3   8
BRANCH   1  17
ATOM     17  S   UNL     1       2.321   3.157  18.016  0.00  0.00    +0.000 S 
ATOM     18  O   UNL     1       2.945   2.162  17.170  0.00  0.00    +0.000 OA
ATOM     19  O   UNL     1       0.878   3.285  18.050  0.00  0.00    +0.000 OA
BRANCH  17  20
ATOM     20  N   UNL     1       2.824   2.860  19.640  0.00  0.00    +0.000 NA
BRANCH  20  22
ATOM     21  C   UNL     1       4.852   1.673  20.534  0.00  0.00    +0.000 C 
ATOM     22  C   UNL     1       4.302   2.920  19.854  0.00  0.00    +0.000 C 
ENDBRANCH  20  22
BRANCH  20  23
ATOM     23  C   UNL     1       2.012   3.615  20.652  0.00  0.00    +0.000 C 
ATOM     24  C   UNL     1       1.418   2.739  21.746  0.00  0.00    +0.000 C 
ENDBRANCH  20  23
ENDBRANCH  17  20
ENDBRANCH   1  17
TORSDOF 5
ENDMDL
MODEL 7
REMARK VINA RESULT:      -6.7      2.308      3.925
REMARK  Name = 
REMARK  7 active torsions:
REMARK  status: ('A' for Active; 'I' for Inactive)
REMARK    1  A    between atoms: C_1  and  C_2
REMARK    2  A    between atoms: C_2  and  N_3
REMARK    3  A    between atoms: N_3  and  C_4
REMARK    4  A    between atoms: N_3  and  S_6
REMARK    5  A    between atoms: C_4  and  C_5
REMARK    6  A    between atoms: S_6  and  C_9
REMARK    7  A    between atoms: C_11  and  C_12
REMARK                            x       y       z     vdW  Elec       q    Type
REMARK                         _______ _______ _______ _____ _____    ______ ____
ROOT
ATOM      1  C   UNL     1       3.690   5.198  18.650  0.00  0.00    +0.000 A 
ATOM      2  C   UNL     1       3.084   6.444  18.913  0.00  0.00    +0.000 A 
ATOM      3  C   UNL     1       2.169   6.609  19.970  0.00  0.00    +0.000 A 
ATOM      4  C   UNL     1       1.864   5.505  20.772  0.00  0.00    +0.000 A 
ATOM      5  C   UNL     1       2.473   4.270  20.516  0.00  0.00    +0.000 A 
ATOM      6  C   UNL     1       3.379   4.104  19.457  0.00  0.00    +0.000 A 
ATOM      7 CL   UNL     1       4.003   2.509  19.272  0.00  0.00    +0.000 Cl
ENDROOT
BRANCH   3   8
ATOM      8  C   UNL     1       1.523   7.950  20.144  0.00  0.00    +0.000 C 
ATOM      9  O   UNL     1       1.755   8.806  19.297  0.00  0.00    +0.000 OA
ATOM     10  N   UNL     1       0.769   8.154  21.290  0.00  0.00    +0.000 N 
ATOM     11  C   UNL     1       0.071   9.265  21.676  0.00  0.00    +0.000 C 
ATOM     12  N   UNL     1      -0.266   9.382  22.915  0.00  0.00    +0.000 NA
ATOM     13  C   UNL     1      -0.970  10.672  23.110  0.00  0.00    +0.000 C 
ATOM     14  C   UNL     1      -0.687  11.622  21.955  0.00  0.00    +0.000 C 
ATOM     15  S   UNL     1      -0.393  10.512  20.574  0.00  0.00    +0.000 S 
ATOM     16  H   UNL     1       0.837   7.492  22.046  0.00  0.00    +0.000 HD
ENDBRANCH   3   8
BRANCH   1  17
ATOM     17  S   UNL     1       4.718   5.109  17.199  0.00  0.00    +0.000 S 
ATOM     18  O   UNL     1       4.789   6.453  16.668  0.00  0.00    +0.000 OA
ATOM     19  O   UNL     1       4.310   4.009  16.349  0.00  0.00    +0.000 OA
BRANCH  17  20
ATOM     20  N   UNL     1       6.279   4.701  17.812  0.00  0.00    +0.000 NA
BRANCH  20  22
ATOM     21  C   UNL     1       6.882   4.886  15.378  0.00  0.00    +0.000 C 
ATOM     22  C   UNL     1       7.302   4.407  16.762  0.00  0.00    +0.000 C 
ENDBRANCH  20  22
BRANCH  20  23
ATOM     23  C   UNL     1       6.743   5.628  18.898  0.00  0.00    +0.000 C 
ATOM     24  C   UNL     1       7.782   6.642  18.442  0.00  0.00    +0.000 C 
ENDBRANCH  20  23
ENDBRANCH  17  20
ENDBRANCH   1  17
TORSDOF 5
ENDMDL
MODEL 8
REMARK VINA RESULT:      -6.6      2.534      4.238
REMARK  Name = 
REMARK  7 active torsions:
REMARK  status: ('A' for Active; 'I' for Inactive)
REMARK    1  A    between atoms: C_1  and  C_2
REMARK    2  A    between atoms: C_2  and  N_3
REMARK    3  A    between atoms: N_3  and  C_4
REMARK    4  A    between atoms: N_3  and  S_6
REMARK    5  A    between atoms: C_4  and  C_5
REMARK    6  A    between atoms: S_6  and  C_9
REMARK    7  A    between atoms: C_11  and  C_12
REMARK                            x       y       z     vdW  Elec       q    Type
REMARK                         _______ _______ _______ _____ _____    ______ ____
ROOT
ATOM      1  C   UNL     1       4.002   5.624  18.516  0.00  0.00    +0.000 A 
ATOM      2  C   UNL     1       3.298   6.810  18.811  0.00  0.00    +0.000 A 
ATOM      3  C   UNL     1       2.304   6.846  19.808  0.00  0.00    +0.000 A 
ATOM      4  C   UNL     1       2.020   5.675  20.515  0.00  0.00    +0.000 A 
ATOM      5  C   UNL     1       2.725   4.500  20.228  0.00  0.00    +0.000 A 
ATOM      6  C   UNL     1       3.710   4.461  19.228  0.00  0.00    +0.000 A 
ATOM      7 CL   UNL     1       4.450   2.924  18.990  0.00  0.00    +0.000 Cl
ENDROOT
BRANCH   3   8
ATOM      8  C   UNL     1       1.560   8.130  20.018  0.00  0.00    +0.000 C 
ATOM      9  O   UNL     1       1.682   9.004  19.167  0.00  0.00    +0.000 OA
ATOM     10  N   UNL     1       0.846   8.270  21.198  0.00  0.00    +0.000 N 
ATOM     11  C   UNL     1       0.077   9.321  21.622  0.00  0.00    +0.000 C 
ATOM     12  N   UNL     1      -0.211   9.408  22.875  0.00  0.00    +0.000 NA
ATOM     13  C   UNL     1      -1.007  10.636  23.109  0.00  0.00    +0.000 C 
ATOM     14  C   UNL     1      -0.856  11.607  21.947  0.00  0.00    +0.000 C 
ATOM     15  S   UNL     1      -0.536  10.527  20.549  0.00  0.00    +0.000 S 
ATOM     16  H   UNL     1       1.001   7.615  21.947  0.00  0.00    +0.000 HD
ENDBRANCH   3   8
BRANCH   1  17
ATOM     17  S   UNL     1       5.130   5.696  17.141  0.00  0.00    +0.000 S 
ATOM     18  O   UNL     1       4.640   6.741  16.267  0.00  0.00    +0.000 OA
ATOM     19  O   UNL     1       5.388   4.369  16.619  0.00  0.00    +0.000 OA
BRANCH  17  20
ATOM     20  N   UNL     1       6.612   6.244  17.837  0.00  0.00    +0.000 NA
BRANCH  20  22
ATOM     21  C   UNL     1       7.966   5.444  19.799  0.00  0.00    +0.000 C 
ATOM     22  C   UNL     1       7.480   5.157  18.384  0.00  0.00    +0.000 C 
ENDBRANCH  20  22
BRANCH  20  23
ATOM     23  C   UNL     1       7.328   7.246  16.979  0.00  0.00    +0.000 C 
ATOM     24  C   UNL     1       7.854   8.451  17.744  0.00  0.00    +0.000 C 
ENDBRANCH  20  23
ENDBRANCH  17  20
ENDBRANCH   1  17
TORSDOF 5
ENDMDL
MODEL 9
REMARK VINA RESULT:      -6.6      1.193      1.501
REMARK  Name = 
REMARK  7 active torsions:
REMARK  status: ('A' for Active; 'I' for Inactive)
REMARK    1  A    between atoms: C_1  and  C_2
REMARK    2  A    between atoms: C_2  and  N_3
REMARK    3  A    between atoms: N_3  and  C_4
REMARK    4  A    between atoms: N_3  and  S_6
REMARK    5  A    between atoms: C_4  and  C_5
REMARK    6  A    between atoms: S_6  and  C_9
REMARK    7  A    between atoms: C_11  and  C_12
REMARK                            x       y       z     vdW  Elec       q    Type
REMARK                         _______ _______ _______ _____ _____    ______ ____
ROOT
ATOM      1  C   UNL     1       3.216   4.872  17.632  0.00  0.00    +0.000 A 
ATOM      2  C   UNL     1       2.461   5.941  18.157  0.00  0.00    +0.000 A 
ATOM      3  C   UNL     1       2.862   7.280  17.984  0.00  0.00    +0.000 A 
ATOM      4  C   UNL     1       4.035   7.542  17.272  0.00  0.00    +0.000 A 
ATOM      5  C   UNL     1       4.780   6.481  16.742  0.00  0.00    +0.000 A 
ATOM      6  C   UNL     1       4.385   5.146  16.922  0.00  0.00    +0.000 A 
ATOM      7 CL   UNL     1       5.439   3.973  16.230  0.00  0.00    +0.000 Cl
ENDROOT
BRANCH   3   8
ATOM      8  C   UNL     1       2.037   8.353  18.627  0.00  0.00    +0.000 C 
ATOM      9  O   UNL     1       1.798   9.359  17.968  0.00  0.00    +0.000 OA
ATOM     10  N   UNL     1       1.663   8.167  19.950  0.00  0.00    +0.000 N 
ATOM     11  C   UNL     1       0.906   8.976  20.754  0.00  0.00    +0.000 C 
ATOM     12  N   UNL     1       0.966   8.806  22.030  0.00  0.00    +0.000 NA
ATOM     13  C   UNL     1       0.106   9.811  22.698  0.00  0.00    +0.000 C 
ATOM     14  C   UNL     1      -0.204  10.967  21.757  0.00  0.00    +0.000 C 
ATOM     15  S   UNL     1      -0.138  10.203  20.133  0.00  0.00    +0.000 S 
ATOM     16  H   UNL     1       2.108   7.441  20.488  0.00  0.00    +0.000 HD
ENDBRANCH   3   8
BRANCH   1  17
ATOM     17  S   UNL     1       2.661   3.232  18.046  0.00  0.00    +0.000 S 
ATOM     18  O   UNL     1       3.581   2.317  17.405  0.00  0.00    +0.000 OA
ATOM     19  O   UNL     1       1.234   3.104  17.830  0.00  0.00    +0.000 OA
BRANCH  17  20
ATOM     20  N   UNL     1       2.908   3.121  19.751  0.00  0.00    +0.000 NA
BRANCH  20  22
ATOM     21  C   UNL     1       1.456   2.739  21.768  0.00  0.00    +0.000 C 
ATOM     22  C   UNL     1       1.983   2.179  20.453  0.00  0.00    +0.000 C 
ENDBRANCH  20  22
BRANCH  20  23
ATOM     23  C   UNL     1       4.355   2.973  20.125  0.00  0.00    +0.000 C 
ATOM     24  C   UNL     1       4.735   1.573  20.582  0.00  0.00    +0.000 C 
ENDBRANCH  20  23
ENDBRANCH  17  20
ENDBRANCH   1  17
TORSDOF 5
ENDMDL
