MODEL 1
REMARK VINA RESULT:      -8.4      0.000      0.000
REMARK  Name = 
REMARK  0 active torsions:
REMARK  status: ('A' for Active; 'I' for Inactive)
REMARK                            x       y       z     vdW  Elec       q    Type
REMARK                         _______ _______ _______ _____ _____    ______ ____
ROOT
ATOM      1  C   UNL     1       7.510   5.838  19.173  0.00  0.00    +0.000 C 
ATOM      2  C   UNL     1       6.278   5.733  18.658  0.00  0.00    +0.000 C 
ATOM      3  C   UNL     1       5.045   5.485  19.426  0.00  0.00    +0.000 C 
ATOM      4  C   UNL     1       3.911   5.570  18.379  0.00  0.00    +0.000 C 
ATOM      5  O   UNL     1       4.601   5.641  17.102  0.00  0.00    +0.000 OA
ATOM      6  C   UNL     1       5.937   5.820  17.237  0.00  0.00    +0.000 C 
ATOM      7  O   UNL     1       6.722   6.000  16.321  0.00  0.00    +0.000 OA
ATOM      8  C   UNL     1       3.019   6.810  18.556  0.00  0.00    +0.000 A 
ATOM      9  C   UNL     1       2.793   7.707  17.493  0.00  0.00    +0.000 A 
ATOM     10  C   UNL     1       1.984   8.833  17.661  0.00  0.00    +0.000 A 
ATOM     11  C   UNL     1       1.391   9.086  18.892  0.00  0.00    +0.000 A 
ATOM     12  C   UNL     1       1.573   8.192  19.946  0.00  0.00    +0.000 A 
ATOM     13  C   UNL     1       2.349   7.036  19.781  0.00  0.00    +0.000 A 
ATOM     14  C   UNL     1       2.435   6.109  20.925  0.00  0.00    +0.000 C 
ATOM     15  C   UNL     1       2.445   4.766  20.854  0.00  0.00    +0.000 C 
ATOM     16  C   UNL     1       2.360   3.962  19.621  0.00  0.00    +0.000 A 
ATOM     17  C   UNL     1       1.604   2.782  19.671  0.00  0.00    +0.000 A 
ATOM     18  C   UNL     1       1.439   1.992  18.533  0.00  0.00    +0.000 A 
ATOM     19  C   UNL     1       2.029   2.373  17.334  0.00  0.00    +0.000 A 
ATOM     20  C   UNL     1       2.817   3.524  17.277  0.00  0.00    +0.000 A 
ATOM     21  C   UNL     1       3.021   4.319  18.422  0.00  0.00    +0.000 A 
ENDROOT
TORSDOF 0
ENDMDL
MODEL 2
REMARK VINA RESULT:      -8.1      1.571      4.549
REMARK  Name = 
REMARK  0 active torsions:
REMARK  status: ('A' for Active; 'I' for Inactive)
REMARK                            x       y       z     vdW  Elec       q    Type
REMARK                         _______ _______ _______ _____ _____    ______ ____
ROOT
ATOM      1  C   UNL     1       2.215   2.164  17.647  0.00  0.00    +0.000 C 
ATOM      2  C   UNL     1       2.825   3.169  18.289  0.00  0.00    +0.000 C 
ATOM      3  C   UNL     1       3.394   4.373  17.655  0.00  0.00    +0.000 C 
ATOM      4  C   UNL     1       3.865   5.249  18.838  0.00  0.00    +0.000 C 
ATOM      5  O   UNL     1       3.723   4.393  20.004  0.00  0.00    +0.000 OA
ATOM      6  C   UNL     1       3.059   3.243  19.732  0.00  0.00    +0.000 C 
ATOM      7  O   UNL     1       2.734   2.403  20.554  0.00  0.00    +0.000 OA
ATOM      8  C   UNL     1       3.017   6.519  19.023  0.00  0.00    +0.000 A 
ATOM      9  C   UNL     1       2.413   6.823  20.259  0.00  0.00    +0.000 A 
ATOM     10  C   UNL     1       1.642   7.976  20.419  0.00  0.00    +0.000 A 
ATOM     11  C   UNL     1       1.456   8.842  19.348  0.00  0.00    +0.000 A 
ATOM     12  C   UNL     1       2.073   8.578  18.127  0.00  0.00    +0.000 A 
ATOM     13  C   UNL     1       2.884   7.446  17.962  0.00  0.00    +0.000 A 
ATOM     14  C   UNL     1       3.555   7.276  16.660  0.00  0.00    +0.000 C 
ATOM     15  C   UNL     1       4.801   6.808  16.469  0.00  0.00    +0.000 C 
ATOM     16  C   UNL     1       5.740   6.384  17.523  0.00  0.00    +0.000 A 
ATOM     17  C   UNL     1       7.095   6.700  17.346  0.00  0.00    +0.000 A 
ATOM     18  C   UNL     1       8.036   6.374  18.322  0.00  0.00    +0.000 A 
ATOM     19  C   UNL     1       7.634   5.727  19.484  0.00  0.00    +0.000 A 
ATOM     20  C   UNL     1       6.296   5.370  19.659  0.00  0.00    +0.000 A 
ATOM     21  C   UNL     1       5.334   5.664  18.671  0.00  0.00    +0.000 A 
ENDROOT
TORSDOF 0
ENDMDL
MODEL 3
REMARK VINA RESULT:      -7.6      6.274      8.477
REMARK  Name = 
REMARK  0 active torsions:
REMARK  status: ('A' for Active; 'I' for Inactive)
REMARK                            x       y       z     vdW  Elec       q    Type
REMARK                         _______ _______ _______ _____ _____    ______ ____
ROOT
ATOM      1  C   UNL     1       1.393  15.004  19.017  0.00  0.00    +0.000 C 
ATOM      2  C   UNL     1       0.410  14.143  19.310  0.00  0.00    +0.000 C 
ATOM      3  C   UNL     1       0.384  12.714  18.948  0.00  0.00    +0.000 C 
ATOM      4  C   UNL     1      -0.898  12.167  19.617  0.00  0.00    +0.000 C 
ATOM      5  O   UNL     1      -1.585  13.351  20.107  0.00  0.00    +0.000 OA
ATOM      6  C   UNL     1      -0.827  14.471  20.021  0.00  0.00    +0.000 C 
ATOM      7  O   UNL     1      -1.140  15.570  20.447  0.00  0.00    +0.000 OA
ATOM      8  C   UNL     1      -0.607  11.215  20.789  0.00  0.00    +0.000 A 
ATOM      9  C   UNL     1      -1.162  11.435  22.066  0.00  0.00    +0.000 A 
ATOM     10  C   UNL     1      -0.891  10.568  23.127  0.00  0.00    +0.000 A 
ATOM     11  C   UNL     1      -0.059   9.471  22.934  0.00  0.00    +0.000 A 
ATOM     12  C   UNL     1       0.471   9.216  21.670  0.00  0.00    +0.000 A 
ATOM     13  C   UNL     1       0.176  10.055  20.585  0.00  0.00    +0.000 A 
ATOM     14  C   UNL     1       0.721   9.676  19.269  0.00  0.00    +0.000 C 
ATOM     15  C   UNL     1       0.091   9.801  18.088  0.00  0.00    +0.000 C 
ATOM     16  C   UNL     1      -1.270  10.328  17.882  0.00  0.00    +0.000 A 
ATOM     17  C   UNL     1      -2.063   9.705  16.907  0.00  0.00    +0.000 A 
ATOM     18  C   UNL     1      -3.377  10.118  16.687  0.00  0.00    +0.000 A 
ATOM     19  C   UNL     1      -3.912  11.158  17.438  0.00  0.00    +0.000 A 
ATOM     20  C   UNL     1      -3.123  11.814  18.385  0.00  0.00    +0.000 A 
ATOM     21  C   UNL     1      -1.784  11.433  18.601  0.00  0.00    +0.000 A 
ENDROOT
TORSDOF 0
ENDMDL
MODEL 4
REMARK VINA RESULT:      -7.5      6.301      8.624
REMARK  Name = 
REMARK  0 active torsions:
REMARK  status: ('A' for Active; 'I' for Inactive)
REMARK                            x       y       z     vdW  Elec       q    Type
REMARK                         _______ _______ _______ _____ _____    ______ ____
ROOT
ATOM      1  C   UNL     1      -0.352   9.705  23.317  0.00  0.00    +0.000 C 
ATOM      2  C   UNL     1      -0.478  10.570  22.302  0.00  0.00    +0.000 C 
ATOM      3  C   UNL     1       0.134  10.423  20.969  0.00  0.00    +0.000 C 
ATOM      4  C   UNL     1      -0.415  11.618  20.156  0.00  0.00    +0.000 C 
ATOM      5  O   UNL     1      -1.103  12.440  21.138  0.00  0.00    +0.000 OA
ATOM      6  C   UNL     1      -1.226  11.828  22.341  0.00  0.00    +0.000 C 
ATOM      7  O   UNL     1      -1.838  12.269  23.299  0.00  0.00    +0.000 OA
ATOM      8  C   UNL     1      -1.400  11.195  19.054  0.00  0.00    +0.000 A 
ATOM      9  C   UNL     1      -2.691  11.755  18.970  0.00  0.00    +0.000 A 
ATOM     10  C   UNL     1      -3.582  11.364  17.969  0.00  0.00    +0.000 A 
ATOM     11  C   UNL     1      -3.203  10.406  17.036  0.00  0.00    +0.000 A 
ATOM     12  C   UNL     1      -1.919   9.865  17.079  0.00  0.00    +0.000 A 
ATOM     13  C   UNL     1      -0.999  10.277  18.055  0.00  0.00    +0.000 A 
ATOM     14  C   UNL     1       0.359   9.707  17.989  0.00  0.00    +0.000 C 
ATOM     15  C   UNL     1       1.505  10.364  18.243  0.00  0.00    +0.000 C 
ATOM     16  C   UNL     1       1.625  11.783  18.625  0.00  0.00    +0.000 A 
ATOM     17  C   UNL     1       2.702  12.506  18.092  0.00  0.00    +0.000 A 
ATOM     18  C   UNL     1       2.856  13.864  18.370  0.00  0.00    +0.000 A 
ATOM     19  C   UNL     1       1.936  14.513  19.185  0.00  0.00    +0.000 A 
ATOM     20  C   UNL     1       0.880  13.799  19.755  0.00  0.00    +0.000 A 
ATOM     21  C   UNL     1       0.724  12.420  19.510  0.00  0.00    +0.000 A 
ENDROOT
TORSDOF 0
ENDMDL
MODEL 5
REMARK VINA RESULT:      -7.3      5.837      7.479
REMARK  Name = 
REMARK  0 active torsions:
REMARK  status: ('A' for Active; 'I' for Inactive)
REMARK                            x       y       z     vdW  Elec       q    Type
REMARK                         _______ _______ _______ _____ _____    ______ ____
ROOT
ATOM      1  C   UNL     1       2.443  13.682  18.136  0.00  0.00    +0.000 C 
ATOM      2  C   UNL     1       1.718  12.614  18.494  0.00  0.00    +0.000 C 
ATOM      3  C   UNL     1       0.529  12.636  19.365  0.00  0.00    +0.000 C 
ATOM      4  C   UNL     1       0.017  11.178  19.362  0.00  0.00    +0.000 C 
ATOM      5  O   UNL     1       1.059  10.429  18.680  0.00  0.00    +0.000 OA
ATOM      6  C   UNL     1       1.991  11.229  18.106  0.00  0.00    +0.000 C 
ATOM      7  O   UNL     1       2.913  10.849  17.404  0.00  0.00    +0.000 OA
ATOM      8  C   UNL     1      -1.315  11.009  18.613  0.00  0.00    +0.000 A 
ATOM      9  C   UNL     1      -1.457  10.070  17.571  0.00  0.00    +0.000 A 
ATOM     10  C   UNL     1      -2.669   9.924  16.894  0.00  0.00    +0.000 A 
ATOM     11  C   UNL     1      -3.759  10.714  17.239  0.00  0.00    +0.000 A 
ATOM     12  C   UNL     1      -3.651  11.624  18.290  0.00  0.00    +0.000 A 
ATOM     13  C   UNL     1      -2.452  11.753  19.007  0.00  0.00    +0.000 A 
ATOM     14  C   UNL     1      -2.443  12.688  20.147  0.00  0.00    +0.000 C 
ATOM     15  C   UNL     1      -1.812  12.498  21.319  0.00  0.00    +0.000 C 
ATOM     16  C   UNL     1      -1.017  11.315  21.695  0.00  0.00    +0.000 A 
ATOM     17  C   UNL     1      -1.118  10.863  23.019  0.00  0.00    +0.000 A 
ATOM     18  C   UNL     1      -0.434   9.722  23.437  0.00  0.00    +0.000 A 
ATOM     19  C   UNL     1       0.360   9.021  22.537  0.00  0.00    +0.000 A 
ATOM     20  C   UNL     1       0.503   9.480  21.226  0.00  0.00    +0.000 A 
ATOM     21  C   UNL     1      -0.157  10.647  20.792  0.00  0.00    +0.000 A 
ENDROOT
TORSDOF 0
ENDMDL
MODEL 6
REMARK VINA RESULT:      -7.3      2.127      3.888
REMARK  Name = 
REMARK  0 active torsions:
REMARK  status: ('A' for Active; 'I' for Inactive)
REMARK                            x       y       z     vdW  Elec       q    Type
REMARK                         _______ _______ _______ _____ _____    ______ ____
ROOT
ATOM      1  C   UNL     1       8.359   5.534  20.120  0.00  0.00    +0.000 C 
ATOM      2  C   UNL     1       7.653   5.852  19.028  0.00  0.00    +0.000 C 
ATOM      3  C   UNL     1       6.638   4.998  18.384  0.00  0.00    +0.000 C 
ATOM      4  C   UNL     1       6.055   5.874  17.251  0.00  0.00    +0.000 C 
ATOM      5  O   UNL     1       6.920   7.041  17.213  0.00  0.00    +0.000 OA
ATOM      6  C   UNL     1       7.777   7.093  18.261  0.00  0.00    +0.000 C 
ATOM      7  O   UNL     1       8.540   8.013  18.506  0.00  0.00    +0.000 OA
ATOM      8  C   UNL     1       4.605   6.311  17.513  0.00  0.00    +0.000 A 
ATOM      9  C   UNL     1       4.232   7.671  17.480  0.00  0.00    +0.000 A 
ATOM     10  C   UNL     1       2.914   8.061  17.722  0.00  0.00    +0.000 A 
ATOM     11  C   UNL     1       1.946   7.106  18.007  0.00  0.00    +0.000 A 
ATOM     12  C   UNL     1       2.286   5.754  18.010  0.00  0.00    +0.000 A 
ATOM     13  C   UNL     1       3.597   5.342  17.728  0.00  0.00    +0.000 A 
ATOM     14  C   UNL     1       3.857   3.892  17.685  0.00  0.00    +0.000 C 
ATOM     15  C   UNL     1       4.673   3.261  16.822  0.00  0.00    +0.000 C 
ATOM     16  C   UNL     1       5.456   3.896  15.747  0.00  0.00    +0.000 A 
ATOM     17  C   UNL     1       5.564   3.204  14.532  0.00  0.00    +0.000 A 
ATOM     18  C   UNL     1       6.249   3.761  13.452  0.00  0.00    +0.000 A 
ATOM     19  C   UNL     1       6.834   5.015  13.575  0.00  0.00    +0.000 A 
ATOM     20  C   UNL     1       6.768   5.701  14.790  0.00  0.00    +0.000 A 
ATOM     21  C   UNL     1       6.107   5.143  15.902  0.00  0.00    +0.000 A 
ENDROOT
TORSDOF 0
ENDMDL
MODEL 7
REMARK VINA RESULT:      -7.3      5.267      7.591
REMARK  Name = 
REMARK  0 active torsions:
REMARK  status: ('A' for Active; 'I' for Inactive)
REMARK                            x       y       z     vdW  Elec       q    Type
REMARK                         _______ _______ _______ _____ _____    ______ ____
ROOT
ATOM      1  C   UNL     1       0.332   9.186  22.729  0.00  0.00    +0.000 C 
ATOM      2  C   UNL     1       0.283   9.600  21.456  0.00  0.00    +0.000 C 
ATOM      3  C   UNL     1      -0.553  10.700  20.943  0.00  0.00    +0.000 C 
ATOM      4  C   UNL     1      -0.148  10.836  19.457  0.00  0.00    +0.000 C 
ATOM      5  O   UNL     1       0.705   9.686  19.207  0.00  0.00    +0.000 OA
ATOM      6  C   UNL     1       1.033   9.019  20.341  0.00  0.00    +0.000 C 
ATOM      7  O   UNL     1       1.805   8.078  20.409  0.00  0.00    +0.000 OA
ATOM      8  C   UNL     1       0.627  12.130  19.159  0.00  0.00    +0.000 A 
ATOM      9  C   UNL     1       1.887  12.101  18.527  0.00  0.00    +0.000 A 
ATOM     10  C   UNL     1       2.586  13.280  18.263  0.00  0.00    +0.000 A 
ATOM     11  C   UNL     1       2.046  14.507  18.627  0.00  0.00    +0.000 A 
ATOM     12  C   UNL     1       0.786  14.560  19.222  0.00  0.00    +0.000 A 
ATOM     13  C   UNL     1       0.052  13.388  19.457  0.00  0.00    +0.000 A 
ATOM     14  C   UNL     1      -1.299  13.537  20.026  0.00  0.00    +0.000 C 
ATOM     15  C   UNL     1      -2.379  12.806  19.699  0.00  0.00    +0.000 C 
ATOM     16  C   UNL     1      -2.423  11.722  18.701  0.00  0.00    +0.000 A 
ATOM     17  C   UNL     1      -3.573  11.625  17.904  0.00  0.00    +0.000 A 
ATOM     18  C   UNL     1      -3.668  10.654  16.906  0.00  0.00    +0.000 A 
ATOM     19  C   UNL     1      -2.617   9.771  16.696  0.00  0.00    +0.000 A 
ATOM     20  C   UNL     1      -1.481   9.829  17.507  0.00  0.00    +0.000 A 
ATOM     21  C   UNL     1      -1.378  10.782  18.540  0.00  0.00    +0.000 A 
ENDROOT
TORSDOF 0
ENDMDL
MODEL 8
REMARK VINA RESULT:      -7.2      5.831      8.135
REMARK  Name = 
REMARK  0 active torsions:
REMARK  status: ('A' for Active; 'I' for Inactive)
REMARK                            x       y       z     vdW  Elec       q    Type
REMARK                         _______ _______ _______ _____ _____    ______ ____
ROOT
ATOM      1  C   UNL     1      -3.409  10.055  17.000  0.00  0.00    +0.000 C 
ATOM      2  C   UNL     1      -2.696  10.631  17.977  0.00  0.00    +0.000 C 
ATOM      3  C   UNL     1      -1.361  10.202  18.432  0.00  0.00    +0.000 C 
ATOM      4  C   UNL     1      -0.950  11.260  19.482  0.00  0.00    +0.000 C 
ATOM      5  O   UNL     1      -2.149  12.055  19.685  0.00  0.00    +0.000 OA
ATOM      6  C   UNL     1      -3.123  11.774  18.785  0.00  0.00    +0.000 C 
ATOM      7  O   UNL     1      -4.186  12.364  18.687  0.00  0.00    +0.000 OA
ATOM      8  C   UNL     1       0.198  12.166  19.008  0.00  0.00    +0.000 A 
ATOM      9  C   UNL     1       0.075  13.570  19.018  0.00  0.00    +0.000 A 
ATOM     10  C   UNL     1       1.121  14.387  18.583  0.00  0.00    +0.000 A 
ATOM     11  C   UNL     1       2.304  13.819  18.127  0.00  0.00    +0.000 A 
ATOM     12  C   UNL     1       2.459  12.433  18.141  0.00  0.00    +0.000 A 
ATOM     13  C   UNL     1       1.434  11.601  18.613  0.00  0.00    +0.000 A 
ATOM     14  C   UNL     1       1.704  10.152  18.659  0.00  0.00    +0.000 C 
ATOM     15  C   UNL     1       1.303   9.304  19.622  0.00  0.00    +0.000 C 
ATOM     16  C   UNL     1       0.525   9.660  20.823  0.00  0.00    +0.000 A 
ATOM     17  C   UNL     1       0.854   9.010  22.021  0.00  0.00    +0.000 A 
ATOM     18  C   UNL     1       0.195   9.327  23.209  0.00  0.00    +0.000 A 
ATOM     19  C   UNL     1      -0.800  10.296  23.211  0.00  0.00    +0.000 A 
ATOM     20  C   UNL     1      -1.167  10.925  22.019  0.00  0.00    +0.000 A 
ATOM     21  C   UNL     1      -0.534  10.597  20.804  0.00  0.00    +0.000 A 
ENDROOT
TORSDOF 0
ENDMDL
MODEL 9
REMARK VINA RESULT:      -7.0      1.697      4.393
REMARK  Name = 
REMARK  0 active torsions:
REMARK  status: ('A' for Active; 'I' for Inactive)
REMARK                            x       y       z     vdW  Elec       q    Type
REMARK                         _______ _______ _______ _____ _____    ______ ____
ROOT
ATOM      1  C   UNL     1       1.409   8.717  17.599  0.00  0.00    +0.000 C 
ATOM      2  C   UNL     1       1.960   7.696  18.267  0.00  0.00    +0.000 C 
ATOM      3  C   UNL     1       2.281   6.372  17.701  0.00  0.00    +0.000 C 
ATOM      4  C   UNL     1       2.994   5.621  18.848  0.00  0.00    +0.000 C 
ATOM      5  O   UNL     1       2.828   6.484  20.006  0.00  0.00    +0.000 OA
ATOM      6  C   UNL     1       2.322   7.700  19.686  0.00  0.00    +0.000 C 
ATOM      7  O   UNL     1       2.172   8.629  20.461  0.00  0.00    +0.000 OA
ATOM      8  C   UNL     1       4.492   5.396  18.582  0.00  0.00    +0.000 A 
ATOM      9  C   UNL     1       5.471   5.813  19.505  0.00  0.00    +0.000 A 
ATOM     10  C   UNL     1       6.830   5.608  19.255  0.00  0.00    +0.000 A 
ATOM     11  C   UNL     1       7.235   4.989  18.079  0.00  0.00    +0.000 A 
ATOM     12  C   UNL     1       6.281   4.537  17.168  0.00  0.00    +0.000 A 
ATOM     13  C   UNL     1       4.911   4.699  17.424  0.00  0.00    +0.000 A 
ATOM     14  C   UNL     1       3.967   4.132  16.443  0.00  0.00    +0.000 C 
ATOM     15  C   UNL     1       2.801   3.527  16.728  0.00  0.00    +0.000 C 
ATOM     16  C   UNL     1       2.246   3.303  18.075  0.00  0.00    +0.000 A 
ATOM     17  C   UNL     1       1.585   2.088  18.307  0.00  0.00    +0.000 A 
ATOM     18  C   UNL     1       1.074   1.784  19.569  0.00  0.00    +0.000 A 
ATOM     19  C   UNL     1       1.219   2.690  20.612  0.00  0.00    +0.000 A 
ATOM     20  C   UNL     1       1.840   3.920  20.389  0.00  0.00    +0.000 A 
ATOM     21  C   UNL     1       2.336   4.260  19.114  0.00  0.00    +0.000 A 
ENDROOT
TORSDOF 0
ENDMDL
