MODEL 1
REMARK VINA RESULT:      -7.5      0.000      0.000
REMARK  Name = 
REMARK  8 active torsions:
REMARK  status: ('A' for Active; 'I' for Inactive)
REMARK    1  A    between atoms: C_1  and  C_2
REMARK    2  A    between atoms: C_2  and  O_3
REMARK    3  A    between atoms: C_2  and  C_4
REMARK    4  A    between atoms: C_2  and  C_11
REMARK    5  A    between atoms: C_4  and  N_5
REMARK    6  A    between atoms: N_13  and  C_14
REMARK    7  A    between atoms: C_17  and  C_18
REMARK    8  A    between atoms: C_20  and  C_21
REMARK                            x       y       z     vdW  Elec       q    Type
REMARK                         _______ _______ _______ _____ _____    ______ ____
ROOT
ATOM      1  C   UNL     1       0.502   8.420  21.469  0.00  0.00    +0.000 C 
ATOM      2  O   UNL     1      -0.524   7.756  21.328  0.00  0.00    +0.000 OA
ATOM      3  N   UNL     1       1.718   8.107  20.877  0.00  0.00    +0.000 N 
ATOM      4  H   UNL     1       2.508   8.708  21.087  0.00  0.00    +0.000 HD
ENDROOT
BRANCH   3   5
ATOM      5  C   UNL     1       1.977   6.932  20.135  0.00  0.00    +0.000 A 
ATOM      6  C   UNL     1       2.290   6.951  18.780  0.00  0.00    +0.000 A 
ATOM      7  C   UNL     1       2.419   5.767  18.055  0.00  0.00    +0.000 A 
ATOM      8  C   UNL     1       2.245   4.529  18.680  0.00  0.00    +0.000 A 
ATOM      9  C   UNL     1       1.982   4.481  20.060  0.00  0.00    +0.000 A 
ATOM     10  C   UNL     1       1.875   5.697  20.781  0.00  0.00    +0.000 A 
BRANCH   9  11
ATOM     11  C   UNL     1       1.781   3.187  20.813  0.00  0.00    +0.000 C 
ATOM     12  F   UNL     1       1.667   3.309  22.159  0.00  0.00    +0.000 F 
ATOM     13  F   UNL     1       0.659   2.532  20.402  0.00  0.00    +0.000 F 
ATOM     14  F   UNL     1       2.811   2.319  20.609  0.00  0.00    +0.000 F 
ENDBRANCH   9  11
BRANCH   8  15
ATOM     15  C   UNL     1       2.332   3.361  17.852  0.00  0.00    +0.000 C 
ATOM     16  N   UNL     1       2.356   2.417  17.178  0.00  0.00    +0.000 NA
ENDBRANCH   8  15
ENDBRANCH   3   5
BRANCH   1  18
ATOM     17  C   UNL     1      -0.799   9.932  23.101  0.00  0.00    +0.000 C 
ATOM     18  C   UNL     1       0.455   9.752  22.245  0.00  0.00    +0.000 C 
BRANCH  18  19
ATOM     19  O   UNL     1       1.563   9.711  23.177  0.00  0.00    +0.000 OA
ATOM     20  H   UNL     1       1.829   8.778  23.281  0.00  0.00    +0.000 HD
ENDBRANCH  18  19
BRANCH  18  21
ATOM     21  C   UNL     1       0.671  10.936  21.259  0.00  0.00    +0.000 C 
BRANCH  21  22
ATOM     22  N   UNL     1      -0.334  11.073  20.218  0.00  0.00    +0.000 N 
ATOM     23  C   UNL     1      -0.382  10.404  19.022  0.00  0.00    +0.000 A 
ATOM     24  C   UNL     1      -1.549  10.804  18.427  0.00  0.00    +0.000 A 
ATOM     25 BR   UNL     1      -2.288  10.225  16.817  0.00  0.00    +0.000 Br
ATOM     26  C   UNL     1      -2.111  11.751  19.291  0.00  0.00    +0.000 A 
ATOM     27  N   UNL     1      -1.350  11.949  20.373  0.00  0.00    +0.000 NA
ENDBRANCH  21  22
ENDBRANCH  18  21
ENDBRANCH   1  18
TORSDOF 7
ENDMDL
MODEL 2
REMARK VINA RESULT:      -7.4      4.009      7.203
REMARK  Name = 
REMARK  8 active torsions:
REMARK  status: ('A' for Active; 'I' for Inactive)
REMARK    1  A    between atoms: C_1  and  C_2
REMARK    2  A    between atoms: C_2  and  O_3
REMARK    3  A    between atoms: C_2  and  C_4
REMARK    4  A    between atoms: C_2  and  C_11
REMARK    5  A    between atoms: C_4  and  N_5
REMARK    6  A    between atoms: N_13  and  C_14
REMARK    7  A    between atoms: C_17  and  C_18
REMARK    8  A    between atoms: C_20  and  C_21
REMARK                            x       y       z     vdW  Elec       q    Type
REMARK                         _______ _______ _______ _____ _____    ______ ____
ROOT
ATOM      1  C   UNL     1       2.190   4.078  19.319  0.00  0.00    +0.000 C 
ATOM      2  O   UNL     1       1.411   4.057  18.367  0.00  0.00    +0.000 OA
ATOM      3  N   UNL     1       2.582   5.234  19.979  0.00  0.00    +0.000 N 
ATOM      4  H   UNL     1       3.254   5.137  20.732  0.00  0.00    +0.000 HD
ENDROOT
BRANCH   3   5
ATOM      5  C   UNL     1       2.241   6.546  19.580  0.00  0.00    +0.000 A 
ATOM      6  C   UNL     1       2.652   7.097  18.371  0.00  0.00    +0.000 A 
ATOM      7  C   UNL     1       2.400   8.434  18.067  0.00  0.00    +0.000 A 
ATOM      8  C   UNL     1       1.716   9.251  18.970  0.00  0.00    +0.000 A 
ATOM      9  C   UNL     1       1.242   8.706  20.175  0.00  0.00    +0.000 A 
ATOM     10  C   UNL     1       1.492   7.339  20.456  0.00  0.00    +0.000 A 
BRANCH   9  11
ATOM     11  C   UNL     1       0.494   9.517  21.207  0.00  0.00    +0.000 C 
ATOM     12  F   UNL     1      -0.689  10.036  20.794  0.00  0.00    +0.000 F 
ATOM     13  F   UNL     1       0.211   8.784  22.319  0.00  0.00    +0.000 F 
ATOM     14  F   UNL     1       1.228  10.580  21.642  0.00  0.00    +0.000 F 
ENDBRANCH   9  11
BRANCH   8  15
ATOM     15  C   UNL     1       1.552  10.630  18.610  0.00  0.00    +0.000 C 
ATOM     16  N   UNL     1       1.417  11.755  18.364  0.00  0.00    +0.000 NA
ENDBRANCH   8  15
ENDBRANCH   3   5
BRANCH   1  18
ATOM     17  C   UNL     1       2.250   2.516  21.370  0.00  0.00    +0.000 C 
ATOM     18  C   UNL     1       2.695   2.752  19.927  0.00  0.00    +0.000 C 
BRANCH  18  19
ATOM     19  O   UNL     1       2.080   1.696  19.150  0.00  0.00    +0.000 OA
ATOM     20  H   UNL     1       1.217   2.024  18.835  0.00  0.00    +0.000 HD
ENDBRANCH  18  19
BRANCH  18  21
ATOM     21  C   UNL     1       4.240   2.662  19.764  0.00  0.00    +0.000 C 
BRANCH  21  22
ATOM     22  N   UNL     1       4.828   3.621  18.843  0.00  0.00    +0.000 N 
ATOM     23  C   UNL     1       4.695   3.645  17.478  0.00  0.00    +0.000 A 
ATOM     24  C   UNL     1       5.353   4.774  17.068  0.00  0.00    +0.000 A 
ATOM     25 BR   UNL     1       5.500   5.469  15.345  0.00  0.00    +0.000 Br
ATOM     26  C   UNL     1       5.901   5.337  18.225  0.00  0.00    +0.000 A 
ATOM     27  N   UNL     1       5.615   4.612  19.314  0.00  0.00    +0.000 NA
ENDBRANCH  21  22
ENDBRANCH  18  21
ENDBRANCH   1  18
TORSDOF 7
ENDMDL
MODEL 3
REMARK VINA RESULT:      -7.4      4.515      7.672
REMARK  Name = 
REMARK  8 active torsions:
REMARK  status: ('A' for Active; 'I' for Inactive)
REMARK    1  A    between atoms: C_1  and  C_2
REMARK    2  A    between atoms: C_2  and  O_3
REMARK    3  A    between atoms: C_2  and  C_4
REMARK    4  A    between atoms: C_2  and  C_11
REMARK    5  A    between atoms: C_4  and  N_5
REMARK    6  A    between atoms: N_13  and  C_14
REMARK    7  A    between atoms: C_17  and  C_18
REMARK    8  A    between atoms: C_20  and  C_21
REMARK                            x       y       z     vdW  Elec       q    Type
REMARK                         _______ _______ _______ _____ _____    ______ ____
ROOT
ATOM      1  C   UNL     1       4.555   5.383  18.214  0.00  0.00    +0.000 C 
ATOM      2  O   UNL     1       5.196   5.559  19.249  0.00  0.00    +0.000 OA
ATOM      3  N   UNL     1       3.371   6.041  17.911  0.00  0.00    +0.000 N 
ATOM      4  H   UNL     1       2.909   5.795  17.043  0.00  0.00    +0.000 HD
ENDROOT
BRANCH   3   5
ATOM      5  C   UNL     1       2.681   6.906  18.790  0.00  0.00    +0.000 A 
ATOM      6  C   UNL     1       2.220   6.501  20.038  0.00  0.00    +0.000 A 
ATOM      7  C   UNL     1       1.437   7.344  20.825  0.00  0.00    +0.000 A 
ATOM      8  C   UNL     1       1.105   8.626  20.378  0.00  0.00    +0.000 A 
ATOM      9  C   UNL     1       1.603   9.081  19.146  0.00  0.00    +0.000 A 
ATOM     10  C   UNL     1       2.414   8.213  18.371  0.00  0.00    +0.000 A 
BRANCH   9  11
ATOM     11  C   UNL     1       1.294  10.450  18.589  0.00  0.00    +0.000 C 
ATOM     12  F   UNL     1       0.014  10.638  18.182  0.00  0.00    +0.000 F 
ATOM     13  F   UNL     1       1.543  11.434  19.497  0.00  0.00    +0.000 F 
ATOM     14  F   UNL     1       2.069  10.742  17.506  0.00  0.00    +0.000 F 
ENDBRANCH   9  11
BRANCH   8  15
ATOM     15  C   UNL     1       0.245   9.409  21.218  0.00  0.00    +0.000 C 
ATOM     16  N   UNL     1      -0.426  10.027  21.934  0.00  0.00    +0.000 NA
ENDBRANCH   8  15
ENDBRANCH   3   5
BRANCH   1  18
ATOM     17  C   UNL     1       5.320   5.177  15.761  0.00  0.00    +0.000 C 
ATOM     18  C   UNL     1       5.122   4.474  17.103  0.00  0.00    +0.000 C 
BRANCH  18  19
ATOM     19  O   UNL     1       6.447   4.087  17.542  0.00  0.00    +0.000 OA
ATOM     20  H   UNL     1       7.073   4.769  17.232  0.00  0.00    +0.000 HD
ENDBRANCH  18  19
BRANCH  18  21
ATOM     21  C   UNL     1       4.242   3.197  16.977  0.00  0.00    +0.000 C 
BRANCH  21  22
ATOM     22  N   UNL     1       3.178   3.073  17.961  0.00  0.00    +0.000 N 
ATOM     23  C   UNL     1       3.312   2.746  19.286  0.00  0.00    +0.000 A 
ATOM     24  C   UNL     1       2.052   2.839  19.814  0.00  0.00    +0.000 A 
ATOM     25 BR   UNL     1       1.516   2.611  21.584  0.00  0.00    +0.000 Br
ATOM     26  C   UNL     1       1.214   3.163  18.742  0.00  0.00    +0.000 A 
ATOM     27  N   UNL     1       1.894   3.269  17.594  0.00  0.00    +0.000 NA
ENDBRANCH  21  22
ENDBRANCH  18  21
ENDBRANCH   1  18
TORSDOF 7
ENDMDL
MODEL 4
REMARK VINA RESULT:      -7.4      4.346      7.536
REMARK  Name = 
REMARK  8 active torsions:
REMARK  status: ('A' for Active; 'I' for Inactive)
REMARK    1  A    between atoms: C_1  and  C_2
REMARK    2  A    between atoms: C_2  and  O_3
REMARK    3  A    between atoms: C_2  and  C_4
REMARK    4  A    between atoms: C_2  and  C_11
REMARK    5  A    between atoms: C_4  and  N_5
REMARK    6  A    between atoms: N_13  and  C_14
REMARK    7  A    between atoms: C_17  and  C_18
REMARK    8  A    between atoms: C_20  and  C_21
REMARK                            x       y       z     vdW  Elec       q    Type
REMARK                         _______ _______ _______ _____ _____    ______ ____
ROOT
ATOM      1  C   UNL     1       2.865   4.744  18.501  0.00  0.00    +0.000 C 
ATOM      2  O   UNL     1       1.724   4.510  18.105  0.00  0.00    +0.000 OA
ATOM      3  N   UNL     1       3.289   5.983  18.959  0.00  0.00    +0.000 N 
ATOM      4  H   UNL     1       4.262   6.072  19.233  0.00  0.00    +0.000 HD
ENDROOT
BRANCH   3   5
ATOM      5  C   UNL     1       2.516   7.166  18.924  0.00  0.00    +0.000 A 
ATOM      6  C   UNL     1       2.365   7.933  17.773  0.00  0.00    +0.000 A 
ATOM      7  C   UNL     1       1.697   9.156  17.806  0.00  0.00    +0.000 A 
ATOM      8  C   UNL     1       1.153   9.636  19.000  0.00  0.00    +0.000 A 
ATOM      9  C   UNL     1       1.244   8.855  20.166  0.00  0.00    +0.000 A 
ATOM     10  C   UNL     1       1.910   7.606  20.105  0.00  0.00    +0.000 A 
BRANCH   9  11
ATOM     11  C   UNL     1       0.684   9.298  21.497  0.00  0.00    +0.000 C 
ATOM     12  F   UNL     1       0.796  10.623  21.764  0.00  0.00    +0.000 F 
ATOM     13  F   UNL     1      -0.642   9.007  21.610  0.00  0.00    +0.000 F 
ATOM     14  F   UNL     1       1.292   8.662  22.537  0.00  0.00    +0.000 F 
ENDBRANCH   9  11
BRANCH   8  15
ATOM     15  C   UNL     1       0.536  10.930  18.964  0.00  0.00    +0.000 C 
ATOM     16  N   UNL     1       0.001  11.960  18.959  0.00  0.00    +0.000 NA
ENDBRANCH   8  15
ENDBRANCH   3   5
BRANCH   1  18
ATOM     17  C   UNL     1       3.867   2.885  19.980  0.00  0.00    +0.000 C 
ATOM     18  C   UNL     1       3.887   3.595  18.626  0.00  0.00    +0.000 C 
BRANCH  18  19
ATOM     19  O   UNL     1       3.486   2.597  17.656  0.00  0.00    +0.000 OA
ATOM     20  H   UNL     1       4.077   2.680  16.884  0.00  0.00    +0.000 HD
ENDBRANCH  18  19
BRANCH  18  21
ATOM     21  C   UNL     1       5.304   4.117  18.253  0.00  0.00    +0.000 C 
BRANCH  21  22
ATOM     22  N   UNL     1       5.500   4.442  16.850  0.00  0.00    +0.000 N 
ATOM     23  C   UNL     1       5.912   3.593  15.854  0.00  0.00    +0.000 A 
ATOM     24  C   UNL     1       5.863   4.331  14.702  0.00  0.00    +0.000 A 
ATOM     25 BR   UNL     1       6.210   3.780  12.956  0.00  0.00    +0.000 Br
ATOM     26  C   UNL     1       5.474   5.618  15.091  0.00  0.00    +0.000 A 
ATOM     27  N   UNL     1       5.289   5.702  16.414  0.00  0.00    +0.000 NA
ENDBRANCH  21  22
ENDBRANCH  18  21
ENDBRANCH   1  18
TORSDOF 7
ENDMDL
MODEL 5
REMARK VINA RESULT:      -7.3      4.314      7.511
REMARK  Name = 
REMARK  8 active torsions:
REMARK  status: ('A' for Active; 'I' for Inactive)
REMARK    1  A    between atoms: C_1  and  C_2
REMARK    2  A    between atoms: C_2  and  O_3
REMARK    3  A    between atoms: C_2  and  C_4
REMARK    4  A    between atoms: C_2  and  C_11
REMARK    5  A    between atoms: C_4  and  N_5
REMARK    6  A    between atoms: N_13  and  C_14
REMARK    7  A    between atoms: C_17  and  C_18
REMARK    8  A    between atoms: C_20  and  C_21
REMARK                            x       y       z     vdW  Elec       q    Type
REMARK                         _______ _______ _______ _____ _____    ______ ____
ROOT
ATOM      1  C   UNL     1       2.830   4.921  18.126  0.00  0.00    +0.000 C 
ATOM      2  O   UNL     1       1.719   4.755  17.624  0.00  0.00    +0.000 OA
ATOM      3  N   UNL     1       3.224   6.082  18.775  0.00  0.00    +0.000 N 
ATOM      4  H   UNL     1       4.175   6.123  19.124  0.00  0.00    +0.000 HD
ENDROOT
BRANCH   3   5
ATOM      5  C   UNL     1       2.457   7.268  18.847  0.00  0.00    +0.000 A 
ATOM      6  C   UNL     1       2.298   8.129  17.766  0.00  0.00    +0.000 A 
ATOM      7  C   UNL     1       1.638   9.348  17.909  0.00  0.00    +0.000 A 
ATOM      8  C   UNL     1       1.109   9.729  19.145  0.00  0.00    +0.000 A 
ATOM      9  C   UNL     1       1.207   8.853  20.240  0.00  0.00    +0.000 A 
ATOM     10  C   UNL     1       1.866   7.610  20.067  0.00  0.00    +0.000 A 
BRANCH   9  11
ATOM     11  C   UNL     1       0.663   9.186  21.609  0.00  0.00    +0.000 C 
ATOM     12  F   UNL     1       0.606  10.507  21.908  0.00  0.00    +0.000 F 
ATOM     13  F   UNL     1      -0.602   8.711  21.780  0.00  0.00    +0.000 F 
ATOM     14  F   UNL     1       1.408   8.618  22.599  0.00  0.00    +0.000 F 
ENDBRANCH   9  11
BRANCH   8  15
ATOM     15  C   UNL     1       0.499  11.025  19.224  0.00  0.00    +0.000 C 
ATOM     16  N   UNL     1       0.049  12.092  19.295  0.00  0.00    +0.000 NA
ENDBRANCH   8  15
ENDBRANCH   3   5
BRANCH   1  18
ATOM     17  C   UNL     1       4.419   3.475  19.549  0.00  0.00    +0.000 C 
ATOM     18  C   UNL     1       3.838   3.754  18.163  0.00  0.00    +0.000 C 
BRANCH  18  19
ATOM     19  O   UNL     1       3.089   2.567  17.807  0.00  0.00    +0.000 OA
ATOM     20  H   UNL     1       3.712   1.815  17.798  0.00  0.00    +0.000 HD
ENDBRANCH  18  19
BRANCH  18  21
ATOM     21  C   UNL     1       4.945   3.989  17.095  0.00  0.00    +0.000 C 
BRANCH  21  22
ATOM     22  N   UNL     1       5.996   4.917  17.479  0.00  0.00    +0.000 N 
ATOM     23  C   UNL     1       6.148   6.214  17.060  0.00  0.00    +0.000 A 
ATOM     24  C   UNL     1       7.224   6.699  17.756  0.00  0.00    +0.000 A 
ATOM     25 BR   UNL     1       7.934   8.421  17.740  0.00  0.00    +0.000 Br
ATOM     26  C   UNL     1       7.696   5.627  18.521  0.00  0.00    +0.000 A 
ATOM     27  N   UNL     1       6.971   4.519  18.325  0.00  0.00    +0.000 NA
ENDBRANCH  21  22
ENDBRANCH  18  21
ENDBRANCH   1  18
TORSDOF 7
ENDMDL
MODEL 6
REMARK VINA RESULT:      -7.3      3.797      7.189
REMARK  Name = 
REMARK  8 active torsions:
REMARK  status: ('A' for Active; 'I' for Inactive)
REMARK    1  A    between atoms: C_1  and  C_2
REMARK    2  A    between atoms: C_2  and  O_3
REMARK    3  A    between atoms: C_2  and  C_4
REMARK    4  A    between atoms: C_2  and  C_11
REMARK    5  A    between atoms: C_4  and  N_5
REMARK    6  A    between atoms: N_13  and  C_14
REMARK    7  A    between atoms: C_17  and  C_18
REMARK    8  A    between atoms: C_20  and  C_21
REMARK                            x       y       z     vdW  Elec       q    Type
REMARK                         _______ _______ _______ _____ _____    ______ ____
ROOT
ATOM      1  C   UNL     1       4.699   5.625  18.149  0.00  0.00    +0.000 C 
ATOM      2  O   UNL     1       5.042   5.893  19.300  0.00  0.00    +0.000 OA
ATOM      3  N   UNL     1       3.722   6.315  17.447  0.00  0.00    +0.000 N 
ATOM      4  H   UNL     1       3.498   5.988  16.514  0.00  0.00    +0.000 HD
ENDROOT
BRANCH   3   5
ATOM      5  C   UNL     1       2.908   7.336  17.989  0.00  0.00    +0.000 A 
ATOM      6  C   UNL     1       2.707   8.557  17.354  0.00  0.00    +0.000 A 
ATOM      7  C   UNL     1       1.998   9.583  17.975  0.00  0.00    +0.000 A 
ATOM      8  C   UNL     1       1.461   9.404  19.252  0.00  0.00    +0.000 A 
ATOM      9  C   UNL     1       1.602   8.161  19.894  0.00  0.00    +0.000 A 
ATOM     10  C   UNL     1       2.311   7.125  19.236  0.00  0.00    +0.000 A 
BRANCH   9  11
ATOM     11  C   UNL     1       1.054   7.882  21.274  0.00  0.00    +0.000 C 
ATOM     12  F   UNL     1      -0.282   8.067  21.418  0.00  0.00    +0.000 F 
ATOM     13  F   UNL     1       1.296   6.600  21.664  0.00  0.00    +0.000 F 
ATOM     14  F   UNL     1       1.637   8.673  22.218  0.00  0.00    +0.000 F 
ENDBRANCH   9  11
BRANCH   8  15
ATOM     15  C   UNL     1       0.799  10.528  19.848  0.00  0.00    +0.000 C 
ATOM     16  N   UNL     1       0.303  11.447  20.353  0.00  0.00    +0.000 NA
ENDBRANCH   8  15
ENDBRANCH   3   5
BRANCH   1  18
ATOM     17  C   UNL     1       6.140   5.051  16.089  0.00  0.00    +0.000 C 
ATOM     18  C   UNL     1       5.456   4.538  17.356  0.00  0.00    +0.000 C 
BRANCH  18  19
ATOM     19  O   UNL     1       6.525   4.084  18.221  0.00  0.00    +0.000 OA
ATOM     20  H   UNL     1       6.116   3.681  19.011  0.00  0.00    +0.000 HD
ENDBRANCH  18  19
BRANCH  18  21
ATOM     21  C   UNL     1       4.500   3.344  17.069  0.00  0.00    +0.000 C 
BRANCH  21  22
ATOM     22  N   UNL     1       3.367   3.221  17.972  0.00  0.00    +0.000 N 
ATOM     23  C   UNL     1       3.399   2.856  19.293  0.00  0.00    +0.000 A 
ATOM     24  C   UNL     1       2.107   2.967  19.734  0.00  0.00    +0.000 A 
ATOM     25 BR   UNL     1       1.441   2.706  21.455  0.00  0.00    +0.000 Br
ATOM     26  C   UNL     1       1.355   3.342  18.615  0.00  0.00    +0.000 A 
ATOM     27  N   UNL     1       2.117   3.460  17.521  0.00  0.00    +0.000 NA
ENDBRANCH  21  22
ENDBRANCH  18  21
ENDBRANCH   1  18
TORSDOF 7
ENDMDL
MODEL 7
REMARK VINA RESULT:      -7.2      4.039      7.291
REMARK  Name = 
REMARK  8 active torsions:
REMARK  status: ('A' for Active; 'I' for Inactive)
REMARK    1  A    between atoms: C_1  and  C_2
REMARK    2  A    between atoms: C_2  and  O_3
REMARK    3  A    between atoms: C_2  and  C_4
REMARK    4  A    between atoms: C_2  and  C_11
REMARK    5  A    between atoms: C_4  and  N_5
REMARK    6  A    between atoms: N_13  and  C_14
REMARK    7  A    between atoms: C_17  and  C_18
REMARK    8  A    between atoms: C_20  and  C_21
REMARK                            x       y       z     vdW  Elec       q    Type
REMARK                         _______ _______ _______ _____ _____    ______ ____
ROOT
ATOM      1  C   UNL     1       2.212   4.317  19.540  0.00  0.00    +0.000 C 
ATOM      2  O   UNL     1       1.465   4.265  18.564  0.00  0.00    +0.000 OA
ATOM      3  N   UNL     1       2.520   5.485  20.222  0.00  0.00    +0.000 N 
ATOM      4  H   UNL     1       3.173   5.416  20.995  0.00  0.00    +0.000 HD
ENDROOT
BRANCH   3   5
ATOM      5  C   UNL     1       2.120   6.781  19.825  0.00  0.00    +0.000 A 
ATOM      6  C   UNL     1       2.537   7.367  18.635  0.00  0.00    +0.000 A 
ATOM      7  C   UNL     1       2.222   8.691  18.335  0.00  0.00    +0.000 A 
ATOM      8  C   UNL     1       1.468   9.460  19.225  0.00  0.00    +0.000 A 
ATOM      9  C   UNL     1       0.987   8.877  20.409  0.00  0.00    +0.000 A 
ATOM     10  C   UNL     1       1.303   7.522  20.685  0.00  0.00    +0.000 A 
BRANCH   9  11
ATOM     11  C   UNL     1       0.166   9.635  21.425  0.00  0.00    +0.000 C 
ATOM     12  F   UNL     1      -0.328   8.892  22.446  0.00  0.00    +0.000 F 
ATOM     13  F   UNL     1       0.881  10.638  22.006  0.00  0.00    +0.000 F 
ATOM     14  F   UNL     1      -0.915  10.236  20.852  0.00  0.00    +0.000 F 
ENDBRANCH   9  11
BRANCH   8  15
ATOM     15  C   UNL     1       1.239  10.832  18.872  0.00  0.00    +0.000 C 
ATOM     16  N   UNL     1       1.081  11.954  18.624  0.00  0.00    +0.000 NA
ENDBRANCH   8  15
ENDBRANCH   3   5
BRANCH   1  18
ATOM     17  C   UNL     1       2.289   2.735  21.574  0.00  0.00    +0.000 C 
ATOM     18  C   UNL     1       2.770   3.014  20.150  0.00  0.00    +0.000 C 
BRANCH  18  19
ATOM     19  O   UNL     1       2.244   1.935  19.340  0.00  0.00    +0.000 OA
ATOM     20  H   UNL     1       3.002   1.451  18.961  0.00  0.00    +0.000 HD
ENDBRANCH  18  19
BRANCH  18  21
ATOM     21  C   UNL     1       4.322   3.012  20.041  0.00  0.00    +0.000 C 
BRANCH  21  22
ATOM     22  N   UNL     1       4.873   3.819  18.964  0.00  0.00    +0.000 N 
ATOM     23  C   UNL     1       5.661   4.935  19.086  0.00  0.00    +0.000 A 
ATOM     24  C   UNL     1       5.996   5.287  17.806  0.00  0.00    +0.000 A 
ATOM     25 BR   UNL     1       7.116   6.663  17.238  0.00  0.00    +0.000 Br
ATOM     26  C   UNL     1       5.329   4.380  16.976  0.00  0.00    +0.000 A 
ATOM     27  N   UNL     1       4.606   3.501  17.679  0.00  0.00    +0.000 NA
ENDBRANCH  21  22
ENDBRANCH  18  21
ENDBRANCH   1  18
TORSDOF 7
ENDMDL
MODEL 8
REMARK VINA RESULT:      -7.1      2.111      2.378
REMARK  Name = 
REMARK  8 active torsions:
REMARK  status: ('A' for Active; 'I' for Inactive)
REMARK    1  A    between atoms: C_1  and  C_2
REMARK    2  A    between atoms: C_2  and  O_3
REMARK    3  A    between atoms: C_2  and  C_4
REMARK    4  A    between atoms: C_2  and  C_11
REMARK    5  A    between atoms: C_4  and  N_5
REMARK    6  A    between atoms: N_13  and  C_14
REMARK    7  A    between atoms: C_17  and  C_18
REMARK    8  A    between atoms: C_20  and  C_21
REMARK                            x       y       z     vdW  Elec       q    Type
REMARK                         _______ _______ _______ _____ _____    ______ ____
ROOT
ATOM      1  C   UNL     1       0.776   8.996  20.642  0.00  0.00    +0.000 C 
ATOM      2  O   UNL     1       0.381   9.188  19.492  0.00  0.00    +0.000 OA
ATOM      3  N   UNL     1       1.553   7.913  21.026  0.00  0.00    +0.000 N 
ATOM      4  H   UNL     1       1.796   7.837  22.008  0.00  0.00    +0.000 HD
ENDROOT
BRANCH   3   5
ATOM      5  C   UNL     1       1.898   6.829  20.188  0.00  0.00    +0.000 A 
ATOM      6  C   UNL     1       2.528   6.996  18.959  0.00  0.00    +0.000 A 
ATOM      7  C   UNL     1       2.742   5.915  18.106  0.00  0.00    +0.000 A 
ATOM      8  C   UNL     1       2.335   4.629  18.474  0.00  0.00    +0.000 A 
ATOM      9  C   UNL     1       1.747   4.423  19.733  0.00  0.00    +0.000 A 
ATOM     10  C   UNL     1       1.557   5.535  20.593  0.00  0.00    +0.000 A 
BRANCH   9  11
ATOM     11  C   UNL     1       1.279   3.068  20.210  0.00  0.00    +0.000 C 
ATOM     12  F   UNL     1       0.864   3.016  21.500  0.00  0.00    +0.000 F 
ATOM     13  F   UNL     1       0.239   2.602  19.465  0.00  0.00    +0.000 F 
ATOM     14  F   UNL     1       2.261   2.129  20.103  0.00  0.00    +0.000 F 
ENDBRANCH   9  11
BRANCH   8  15
ATOM     15  C   UNL     1       2.535   3.581  17.515  0.00  0.00    +0.000 C 
ATOM     16  N   UNL     1       2.655   2.744  16.721  0.00  0.00    +0.000 NA
ENDBRANCH   8  15
ENDBRANCH   3   5
BRANCH   1  18
ATOM     17  C   UNL     1      -0.385   9.574  22.870  0.00  0.00    +0.000 C 
ATOM     18  C   UNL     1       0.514  10.057  21.731  0.00  0.00    +0.000 C 
BRANCH  18  19
ATOM     19  O   UNL     1       1.800  10.332  22.338  0.00  0.00    +0.000 OA
ATOM     20  H   UNL     1       2.068   9.538  22.838  0.00  0.00    +0.000 HD
ENDBRANCH  18  19
BRANCH  18  21
ATOM     21  C   UNL     1      -0.019  11.360  21.070  0.00  0.00    +0.000 C 
BRANCH  21  22
ATOM     22  N   UNL     1       0.997  12.329  20.693  0.00  0.00    +0.000 N 
ATOM     23  C   UNL     1       1.616  12.446  19.475  0.00  0.00    +0.000 A 
ATOM     24  C   UNL     1       2.422  13.548  19.579  0.00  0.00    +0.000 A 
ATOM     25 BR   UNL     1       3.488  14.334  18.268  0.00  0.00    +0.000 Br
ATOM     26  C   UNL     1       2.281  13.999  20.896  0.00  0.00    +0.000 A 
ATOM     27  N   UNL     1       1.437  13.231  21.596  0.00  0.00    +0.000 NA
ENDBRANCH  21  22
ENDBRANCH  18  21
ENDBRANCH   1  18
TORSDOF 7
ENDMDL
MODEL 9
REMARK VINA RESULT:      -7.1      4.091      7.347
REMARK  Name = 
REMARK  8 active torsions:
REMARK  status: ('A' for Active; 'I' for Inactive)
REMARK    1  A    between atoms: C_1  and  C_2
REMARK    2  A    between atoms: C_2  and  O_3
REMARK    3  A    between atoms: C_2  and  C_4
REMARK    4  A    between atoms: C_2  and  C_11
REMARK    5  A    between atoms: C_4  and  N_5
REMARK    6  A    between atoms: N_13  and  C_14
REMARK    7  A    between atoms: C_17  and  C_18
REMARK    8  A    between atoms: C_20  and  C_21
REMARK                            x       y       z     vdW  Elec       q    Type
REMARK                         _______ _______ _______ _____ _____    ______ ____
ROOT
ATOM      1  C   UNL     1       2.161   4.282  18.659  0.00  0.00    +0.000 C 
ATOM      2  O   UNL     1       1.307   4.355  17.776  0.00  0.00    +0.000 OA
ATOM      3  N   UNL     1       2.604   5.364  19.404  0.00  0.00    +0.000 N 
ATOM      4  H   UNL     1       3.335   5.195  20.086  0.00  0.00    +0.000 HD
ENDROOT
BRANCH   3   5
ATOM      5  C   UNL     1       2.231   6.709  19.177  0.00  0.00    +0.000 A 
ATOM      6  C   UNL     1       2.586   7.405  18.026  0.00  0.00    +0.000 A 
ATOM      7  C   UNL     1       2.305   8.763  17.892  0.00  0.00    +0.000 A 
ATOM      8  C   UNL     1       1.648   9.457  18.911  0.00  0.00    +0.000 A 
ATOM      9  C   UNL     1       1.229   8.766  20.061  0.00  0.00    +0.000 A 
ATOM     10  C   UNL     1       1.508   7.380  20.168  0.00  0.00    +0.000 A 
BRANCH   9  11
ATOM     11  C   UNL     1       0.514   9.438  21.209  0.00  0.00    +0.000 C 
ATOM     12  F   UNL     1       0.185   8.626  22.245  0.00  0.00    +0.000 F 
ATOM     13  F   UNL     1       1.256  10.445  21.747  0.00  0.00    +0.000 F 
ATOM     14  F   UNL     1      -0.654  10.013  20.808  0.00  0.00    +0.000 F 
ENDBRANCH   9  11
BRANCH   8  15
ATOM     15  C   UNL     1       1.452  10.866  18.723  0.00  0.00    +0.000 C 
ATOM     16  N   UNL     1       1.339  12.011  18.579  0.00  0.00    +0.000 NA
ENDBRANCH   8  15
ENDBRANCH   3   5
BRANCH   1  18
ATOM     17  C   UNL     1       2.772   2.688  20.591  0.00  0.00    +0.000 C 
ATOM     18  C   UNL     1       2.715   2.904  19.079  0.00  0.00    +0.000 C 
BRANCH  18  19
ATOM     19  O   UNL     1       1.772   1.925  18.579  0.00  0.00    +0.000 OA
ATOM     20  H   UNL     1       0.908   2.106  18.994  0.00  0.00    +0.000 HD
ENDBRANCH  18  19
BRANCH  18  21
ATOM     21  C   UNL     1       4.093   2.668  18.396  0.00  0.00    +0.000 C 
BRANCH  21  22
ATOM     22  N   UNL     1       5.012   3.794  18.440  0.00  0.00    +0.000 N 
ATOM     23  C   UNL     1       5.392   4.592  17.391  0.00  0.00    +0.000 A 
ATOM     24  C   UNL     1       6.194   5.557  17.939  0.00  0.00    +0.000 A 
ATOM     25 BR   UNL     1       6.990   7.018  17.099  0.00  0.00    +0.000 Br
ATOM     26  C   UNL     1       6.296   5.240  19.298  0.00  0.00    +0.000 A 
ATOM     27  N   UNL     1       5.604   4.136  19.604  0.00  0.00    +0.000 NA
ENDBRANCH  21  22
ENDBRANCH  18  21
ENDBRANCH   1  18
TORSDOF 7
ENDMDL
