MODEL 1
REMARK VINA RESULT:      -9.0      0.000      0.000
REMARK  Name = 
REMARK  8 active torsions:
REMARK  status: ('A' for Active; 'I' for Inactive)
REMARK    1  A    between atoms: N_1  and  C_2
REMARK    2  A    between atoms: C_7  and  N_8
REMARK    3  A    between atoms: C_9  and  C_11
REMARK    4  A    between atoms: C_14  and  C_15
REMARK    5  A    between atoms: C_15  and  N_16
REMARK    6  A    between atoms: N_16  and  C_17
REMARK    7  A    between atoms: C_22  and  N_23
REMARK    8  A    between atoms: N_24  and  C_25
REMARK                            x       y       z     vdW  Elec       q    Type
REMARK                         _______ _______ _______ _____ _____    ______ ____
ROOT
ATOM      1  C   UNL     1       8.030   8.477  18.083  0.00  0.00    +0.000 A 
ATOM      2  C   UNL     1       8.505   7.490  18.959  0.00  0.00    +0.000 A 
ATOM      3  C   UNL     1       7.960   6.217  18.962  0.00  0.00    +0.000 A 
ATOM      4  C   UNL     1       6.919   5.903  18.081  0.00  0.00    +0.000 A 
ATOM      5  C   UNL     1       6.482   6.870  17.160  0.00  0.00    +0.000 A 
ATOM      6  C   UNL     1       7.038   8.157  17.152  0.00  0.00    +0.000 A 
ENDROOT
BRANCH   1   8
ATOM      7  N   UNL     1       9.560  10.010  19.266  0.00  0.00    +0.000 N 
ATOM      8  C   UNL     1       8.579   9.839  18.307  0.00  0.00    +0.000 C 
ATOM      9  O   UNL     1       8.110  10.728  17.603  0.00  0.00    +0.000 OA
ATOM     10  H   UNL     1      10.040   9.204  19.621  0.00  0.00    +0.000 HD
BRANCH   7  16
ATOM     11  C   UNL     1      10.986  11.988  18.976  0.00  0.00    +0.000 A 
ATOM     12  C   UNL     1      11.346  13.279  19.405  0.00  0.00    +0.000 A 
ATOM     13  C   UNL     1      10.852  13.819  20.594  0.00  0.00    +0.000 A 
ATOM     14  C   UNL     1       9.959  13.088  21.360  0.00  0.00    +0.000 A 
ATOM     15  C   UNL     1       9.548  11.831  20.926  0.00  0.00    +0.000 A 
ATOM     16  C   UNL     1      10.016  11.279  19.720  0.00  0.00    +0.000 A 
BRANCH  11  17
ATOM     17  N   UNL     1      11.417  11.571  17.701  0.00  0.00    +0.000 N 
ATOM     18  H   UNL     1      11.877  10.663  17.719  0.00  0.00    +0.000 HD
ATOM     19  H   UNL     1      10.720  11.618  16.974  0.00  0.00    +0.000 HD
ENDBRANCH  11  17
ENDBRANCH   7  16
ENDBRANCH   1   8
BRANCH   4  20
ATOM     20  C   UNL     1       6.217   4.575  18.236  0.00  0.00    +0.000 C 
BRANCH  20  21
ATOM     21  N   UNL     1       4.896   4.818  18.787  0.00  0.00    +0.000 N 
ATOM     22  H   UNL     1       4.908   5.207  19.726  0.00  0.00    +0.000 HD
BRANCH  21  23
ATOM     23  C   UNL     1       3.803   3.968  18.559  0.00  0.00    +0.000 A 
ATOM     24  C   UNL     1       4.094   2.587  18.634  0.00  0.00    +0.000 A 
ATOM     25  C   UNL     1       3.095   1.616  18.578  0.00  0.00    +0.000 A 
ATOM     26  C   UNL     1       1.771   2.004  18.452  0.00  0.00    +0.000 A 
ATOM     27  C   UNL     1       1.453   3.359  18.364  0.00  0.00    +0.000 A 
ATOM     28  C   UNL     1       2.443   4.363  18.417  0.00  0.00    +0.000 A 
BRANCH  28  29
ATOM     29  N   UNL     1       2.101   5.738  18.378  0.00  0.00    +0.000 NA
ATOM     30  N   UNL     1       2.412   6.397  19.395  0.00  0.00    +0.000 NA
BRANCH  30  31
ATOM     31  C   UNL     1       2.040   7.751  19.237  0.00  0.00    +0.000 A 
ATOM     32  C   UNL     1       1.375   8.465  20.246  0.00  0.00    +0.000 A 
ATOM     33  C   UNL     1       0.980   9.790  20.052  0.00  0.00    +0.000 A 
ATOM     34  C   UNL     1       1.275  10.433  18.852  0.00  0.00    +0.000 A 
ATOM     35  C   UNL     1       1.982   9.754  17.856  0.00  0.00    +0.000 A 
ATOM     36  C   UNL     1       2.362   8.423  18.052  0.00  0.00    +0.000 A 
ENDBRANCH  30  31
ENDBRANCH  28  29
ENDBRANCH  21  23
ENDBRANCH  20  21
ENDBRANCH   4  20
TORSDOF 8
ENDMDL
MODEL 2
REMARK VINA RESULT:      -8.9      0.996      1.335
REMARK  Name = 
REMARK  8 active torsions:
REMARK  status: ('A' for Active; 'I' for Inactive)
REMARK    1  A    between atoms: N_1  and  C_2
REMARK    2  A    between atoms: C_7  and  N_8
REMARK    3  A    between atoms: C_9  and  C_11
REMARK    4  A    between atoms: C_14  and  C_15
REMARK    5  A    between atoms: C_15  and  N_16
REMARK    6  A    between atoms: N_16  and  C_17
REMARK    7  A    between atoms: C_22  and  N_23
REMARK    8  A    between atoms: N_24  and  C_25
REMARK                            x       y       z     vdW  Elec       q    Type
REMARK                         _______ _______ _______ _____ _____    ______ ____
ROOT
ATOM      1  C   UNL     1       7.857   8.179  17.993  0.00  0.00    +0.000 A 
ATOM      2  C   UNL     1       8.302   7.176  18.866  0.00  0.00    +0.000 A 
ATOM      3  C   UNL     1       7.723   5.917  18.860  0.00  0.00    +0.000 A 
ATOM      4  C   UNL     1       6.678   5.635  17.972  0.00  0.00    +0.000 A 
ATOM      5  C   UNL     1       6.270   6.619  17.055  0.00  0.00    +0.000 A 
ATOM      6  C   UNL     1       6.861   7.891  17.056  0.00  0.00    +0.000 A 
ENDROOT
BRANCH   1   8
ATOM      7  N   UNL     1       9.374   9.678  19.235  0.00  0.00    +0.000 N 
ATOM      8  C   UNL     1       8.441   9.525  18.226  0.00  0.00    +0.000 C 
ATOM      9  O   UNL     1       8.043  10.418  17.484  0.00  0.00    +0.000 OA
ATOM     10  H   UNL     1       9.805   8.862  19.628  0.00  0.00    +0.000 HD
BRANCH   7  16
ATOM     11  C   UNL     1      10.763  11.676  18.909  0.00  0.00    +0.000 A 
ATOM     12  C   UNL     1      11.142  12.958  19.350  0.00  0.00    +0.000 A 
ATOM     13  C   UNL     1      10.723  13.460  20.583  0.00  0.00    +0.000 A 
ATOM     14  C   UNL     1       9.887  12.700  21.385  0.00  0.00    +0.000 A 
ATOM     15  C   UNL     1       9.457  11.452  20.944  0.00  0.00    +0.000 A 
ATOM     16  C   UNL     1       9.849  10.938  19.694  0.00  0.00    +0.000 A 
BRANCH  11  17
ATOM     17  N   UNL     1      11.114  11.299  17.597  0.00  0.00    +0.000 N 
ATOM     18  H   UNL     1      11.595  12.038  17.090  0.00  0.00    +0.000 HD
ATOM     19  H   UNL     1      11.600  10.419  17.518  0.00  0.00    +0.000 HD
ENDBRANCH  11  17
ENDBRANCH   7  16
ENDBRANCH   1   8
BRANCH   4  20
ATOM     20  C   UNL     1       5.940   4.326  18.118  0.00  0.00    +0.000 C 
BRANCH  20  21
ATOM     21  N   UNL     1       4.537   4.615  18.352  0.00  0.00    +0.000 N 
ATOM     22  H   UNL     1       4.299   5.600  18.257  0.00  0.00    +0.000 HD
BRANCH  21  23
ATOM     23  C   UNL     1       3.772   3.958  19.326  0.00  0.00    +0.000 A 
ATOM     24  C   UNL     1       4.314   2.737  19.788  0.00  0.00    +0.000 A 
ATOM     25  C   UNL     1       3.756   2.035  20.856  0.00  0.00    +0.000 A 
ATOM     26  C   UNL     1       2.637   2.543  21.498  0.00  0.00    +0.000 A 
ATOM     27  C   UNL     1       2.072   3.741  21.058  0.00  0.00    +0.000 A 
ATOM     28  C   UNL     1       2.616   4.470  19.980  0.00  0.00    +0.000 A 
BRANCH  28  29
ATOM     29  N   UNL     1       2.062   5.711  19.577  0.00  0.00    +0.000 NA
ATOM     30  N   UNL     1       2.672   6.727  19.978  0.00  0.00    +0.000 NA
BRANCH  30  31
ATOM     31  C   UNL     1       2.043   7.900  19.503  0.00  0.00    +0.000 A 
ATOM     32  C   UNL     1       2.152   8.316  18.167  0.00  0.00    +0.000 A 
ATOM     33  C   UNL     1       1.556   9.501  17.729  0.00  0.00    +0.000 A 
ATOM     34  C   UNL     1       0.813  10.273  18.619  0.00  0.00    +0.000 A 
ATOM     35  C   UNL     1       0.651   9.847  19.940  0.00  0.00    +0.000 A 
ATOM     36  C   UNL     1       1.261   8.667  20.375  0.00  0.00    +0.000 A 
ENDBRANCH  30  31
ENDBRANCH  28  29
ENDBRANCH  21  23
ENDBRANCH  20  21
ENDBRANCH   4  20
TORSDOF 8
ENDMDL
MODEL 3
REMARK VINA RESULT:      -8.8      1.233      1.401
REMARK  Name = 
REMARK  8 active torsions:
REMARK  status: ('A' for Active; 'I' for Inactive)
REMARK    1  A    between atoms: N_1  and  C_2
REMARK    2  A    between atoms: C_7  and  N_8
REMARK    3  A    between atoms: C_9  and  C_11
REMARK    4  A    between atoms: C_14  and  C_15
REMARK    5  A    between atoms: C_15  and  N_16
REMARK    6  A    between atoms: N_16  and  C_17
REMARK    7  A    between atoms: C_22  and  N_23
REMARK    8  A    between atoms: N_24  and  C_25
REMARK                            x       y       z     vdW  Elec       q    Type
REMARK                         _______ _______ _______ _____ _____    ______ ____
ROOT
ATOM      1  C   UNL     1       8.332   8.504  18.303  0.00  0.00    +0.000 A 
ATOM      2  C   UNL     1       8.602   7.423  19.155  0.00  0.00    +0.000 A 
ATOM      3  C   UNL     1       7.963   6.206  18.986  0.00  0.00    +0.000 A 
ATOM      4  C   UNL     1       7.034   6.044  17.953  0.00  0.00    +0.000 A 
ATOM      5  C   UNL     1       6.805   7.105  17.061  0.00  0.00    +0.000 A 
ATOM      6  C   UNL     1       7.457   8.336  17.227  0.00  0.00    +0.000 A 
ENDROOT
BRANCH   1   8
ATOM      7  N   UNL     1       9.442  10.628  17.715  0.00  0.00    +0.000 N 
ATOM      8  C   UNL     1       8.949   9.795  18.703  0.00  0.00    +0.000 C 
ATOM      9  O   UNL     1       8.969  10.030  19.907  0.00  0.00    +0.000 OA
ATOM     10  H   UNL     1       9.176  10.465  16.762  0.00  0.00    +0.000 HD
BRANCH   7  16
ATOM     11  C   UNL     1       9.726  13.067  17.678  0.00  0.00    +0.000 A 
ATOM     12  C   UNL     1      10.500  14.189  18.028  0.00  0.00    +0.000 A 
ATOM     13  C   UNL     1      11.787  14.055  18.552  0.00  0.00    +0.000 A 
ATOM     14  C   UNL     1      12.311  12.791  18.768  0.00  0.00    +0.000 A 
ATOM     15  C   UNL     1      11.542  11.668  18.479  0.00  0.00    +0.000 A 
ATOM     16  C   UNL     1      10.234  11.782  17.972  0.00  0.00    +0.000 A 
BRANCH  11  17
ATOM     17  N   UNL     1       8.390  13.282  17.285  0.00  0.00    +0.000 N 
ATOM     18  H   UNL     1       7.961  14.071  17.764  0.00  0.00    +0.000 HD
ATOM     19  H   UNL     1       8.236  13.326  16.290  0.00  0.00    +0.000 HD
ENDBRANCH  11  17
ENDBRANCH   7  16
ENDBRANCH   1   8
BRANCH   4  20
ATOM     20  C   UNL     1       6.215   4.776  17.910  0.00  0.00    +0.000 C 
BRANCH  20  21
ATOM     21  N   UNL     1       4.874   5.081  18.374  0.00  0.00    +0.000 N 
ATOM     22  H   UNL     1       4.851   5.605  19.245  0.00  0.00    +0.000 HD
BRANCH  21  23
ATOM     23  C   UNL     1       3.797   4.193  18.238  0.00  0.00    +0.000 A 
ATOM     24  C   UNL     1       4.148   2.824  18.220  0.00  0.00    +0.000 A 
ATOM     25  C   UNL     1       3.189   1.813  18.239  0.00  0.00    +0.000 A 
ATOM     26  C   UNL     1       1.844   2.146  18.283  0.00  0.00    +0.000 A 
ATOM     27  C   UNL     1       1.465   3.489  18.291  0.00  0.00    +0.000 A 
ATOM     28  C   UNL     1       2.414   4.533  18.271  0.00  0.00    +0.000 A 
BRANCH  28  29
ATOM     29  N   UNL     1       2.016   5.891  18.331  0.00  0.00    +0.000 NA
ATOM     30  N   UNL     1       2.383   6.513  19.352  0.00  0.00    +0.000 NA
BRANCH  30  31
ATOM     31  C   UNL     1       1.946   7.856  19.295  0.00  0.00    +0.000 A 
ATOM     32  C   UNL     1       1.375   8.504  20.401  0.00  0.00    +0.000 A 
ATOM     33  C   UNL     1       0.912   9.818  20.309  0.00  0.00    +0.000 A 
ATOM     34  C   UNL     1       1.045  10.517  19.112  0.00  0.00    +0.000 A 
ATOM     35  C   UNL     1       1.658   9.906  18.015  0.00  0.00    +0.000 A 
ATOM     36  C   UNL     1       2.107   8.585  18.110  0.00  0.00    +0.000 A 
ENDBRANCH  30  31
ENDBRANCH  28  29
ENDBRANCH  21  23
ENDBRANCH  20  21
ENDBRANCH   4  20
TORSDOF 8
ENDMDL
MODEL 4
REMARK VINA RESULT:      -8.7      0.537      1.499
REMARK  Name = 
REMARK  8 active torsions:
REMARK  status: ('A' for Active; 'I' for Inactive)
REMARK    1  A    between atoms: N_1  and  C_2
REMARK    2  A    between atoms: C_7  and  N_8
REMARK    3  A    between atoms: C_9  and  C_11
REMARK    4  A    between atoms: C_14  and  C_15
REMARK    5  A    between atoms: C_15  and  N_16
REMARK    6  A    between atoms: N_16  and  C_17
REMARK    7  A    between atoms: C_22  and  N_23
REMARK    8  A    between atoms: N_24  and  C_25
REMARK                            x       y       z     vdW  Elec       q    Type
REMARK                         _______ _______ _______ _____ _____    ______ ____
ROOT
ATOM      1  C   UNL     1       7.996   8.428  18.087  0.00  0.00    +0.000 A 
ATOM      2  C   UNL     1       8.484   7.440  18.953  0.00  0.00    +0.000 A 
ATOM      3  C   UNL     1       7.924   6.173  18.977  0.00  0.00    +0.000 A 
ATOM      4  C   UNL     1       6.856   5.867  18.126  0.00  0.00    +0.000 A 
ATOM      5  C   UNL     1       6.404   6.836  17.214  0.00  0.00    +0.000 A 
ATOM      6  C   UNL     1       6.974   8.116  17.185  0.00  0.00    +0.000 A 
ENDROOT
BRANCH   1   8
ATOM      7  N   UNL     1       9.476   9.977  19.313  0.00  0.00    +0.000 N 
ATOM      8  C   UNL     1       8.565   9.785  18.289  0.00  0.00    +0.000 C 
ATOM      9  O   UNL     1       8.177  10.651  17.512  0.00  0.00    +0.000 OA
ATOM     10  H   UNL     1       9.903   9.176  19.741  0.00  0.00    +0.000 HD
BRANCH   7  16
ATOM     11  C   UNL     1       9.492  11.784  20.975  0.00  0.00    +0.000 A 
ATOM     12  C   UNL     1      10.033  13.009  21.409  0.00  0.00    +0.000 A 
ATOM     13  C   UNL     1      10.900  13.751  20.605  0.00  0.00    +0.000 A 
ATOM     14  C   UNL     1      11.269  13.263  19.362  0.00  0.00    +0.000 A 
ATOM     15  C   UNL     1      10.788  12.028  18.937  0.00  0.00    +0.000 A 
ATOM     16  C   UNL     1       9.932  11.254  19.742  0.00  0.00    +0.000 A 
BRANCH  11  17
ATOM     17  N   UNL     1       8.736  11.032  21.897  0.00  0.00    +0.000 N 
ATOM     18  H   UNL     1       8.999  11.214  22.863  0.00  0.00    +0.000 HD
ATOM     19  H   UNL     1       7.737  11.076  21.772  0.00  0.00    +0.000 HD
ENDBRANCH  11  17
ENDBRANCH   7  16
ENDBRANCH   1   8
BRANCH   4  20
ATOM     20  C   UNL     1       6.144   4.548  18.306  0.00  0.00    +0.000 C 
BRANCH  20  21
ATOM     21  N   UNL     1       4.823   4.811  18.848  0.00  0.00    +0.000 N 
ATOM     22  H   UNL     1       4.836   5.214  19.781  0.00  0.00    +0.000 HD
BRANCH  21  23
ATOM     23  C   UNL     1       3.724   3.969  18.628  0.00  0.00    +0.000 A 
ATOM     24  C   UNL     1       3.999   2.586  18.737  0.00  0.00    +0.000 A 
ATOM     25  C   UNL     1       2.990   1.625  18.693  0.00  0.00    +0.000 A 
ATOM     26  C   UNL     1       1.671   2.024  18.545  0.00  0.00    +0.000 A 
ATOM     27  C   UNL     1       1.369   3.381  18.423  0.00  0.00    +0.000 A 
ATOM     28  C   UNL     1       2.369   4.374  18.463  0.00  0.00    +0.000 A 
BRANCH  28  29
ATOM     29  N   UNL     1       2.043   5.752  18.390  0.00  0.00    +0.000 NA
ATOM     30  N   UNL     1       2.407   6.442  19.368  0.00  0.00    +0.000 NA
BRANCH  30  31
ATOM     31  C   UNL     1       2.045   7.795  19.178  0.00  0.00    +0.000 A 
ATOM     32  C   UNL     1       2.333   8.485  17.991  0.00  0.00    +0.000 A 
ATOM     33  C   UNL     1       2.004   9.834  17.842  0.00  0.00    +0.000 A 
ATOM     34  C   UNL     1       1.350  10.506  18.871  0.00  0.00    +0.000 A 
ATOM     35  C   UNL     1       1.009   9.820  20.041  0.00  0.00    +0.000 A 
ATOM     36  C   UNL     1       1.354   8.474  20.189  0.00  0.00    +0.000 A 
ENDBRANCH  30  31
ENDBRANCH  28  29
ENDBRANCH  21  23
ENDBRANCH  20  21
ENDBRANCH   4  20
TORSDOF 8
ENDMDL
MODEL 5
REMARK VINA RESULT:      -8.6      2.695      9.520
REMARK  Name = 
REMARK  8 active torsions:
REMARK  status: ('A' for Active; 'I' for Inactive)
REMARK    1  A    between atoms: N_1  and  C_2
REMARK    2  A    between atoms: C_7  and  N_8
REMARK    3  A    between atoms: C_9  and  C_11
REMARK    4  A    between atoms: C_14  and  C_15
REMARK    5  A    between atoms: C_15  and  N_16
REMARK    6  A    between atoms: N_16  and  C_17
REMARK    7  A    between atoms: C_22  and  N_23
REMARK    8  A    between atoms: N_24  and  C_25
REMARK                            x       y       z     vdW  Elec       q    Type
REMARK                         _______ _______ _______ _____ _____    ______ ____
ROOT
ATOM      1  C   UNL     1       6.354   5.926  18.391  0.00  0.00    +0.000 A 
ATOM      2  C   UNL     1       5.962   6.883  17.444  0.00  0.00    +0.000 A 
ATOM      3  C   UNL     1       6.735   8.008  17.207  0.00  0.00    +0.000 A 
ATOM      4  C   UNL     1       7.925   8.199  17.917  0.00  0.00    +0.000 A 
ATOM      5  C   UNL     1       8.352   7.213  18.823  0.00  0.00    +0.000 A 
ATOM      6  C   UNL     1       7.574   6.071  19.059  0.00  0.00    +0.000 A 
ENDROOT
BRANCH   1   8
ATOM      7  N   UNL     1       4.026   5.232  18.829  0.00  0.00    +0.000 N 
ATOM      8  C   UNL     1       5.352   4.867  18.673  0.00  0.00    +0.000 C 
ATOM      9  O   UNL     1       5.786   3.722  18.742  0.00  0.00    +0.000 OA
ATOM     10  H   UNL     1       3.734   6.143  18.527  0.00  0.00    +0.000 HD
BRANCH   7  16
ATOM     11  C   UNL     1       2.396   3.444  18.415  0.00  0.00    +0.000 A 
ATOM     12  C   UNL     1       1.461   2.530  18.936  0.00  0.00    +0.000 A 
ATOM     13  C   UNL     1       1.055   2.581  20.271  0.00  0.00    +0.000 A 
ATOM     14  C   UNL     1       1.605   3.527  21.119  0.00  0.00    +0.000 A 
ATOM     15  C   UNL     1       2.571   4.405  20.637  0.00  0.00    +0.000 A 
ATOM     16  C   UNL     1       3.011   4.355  19.302  0.00  0.00    +0.000 A 
BRANCH  11  17
ATOM     17  N   UNL     1       2.855   3.241  17.098  0.00  0.00    +0.000 N 
ATOM     18  H   UNL     1       3.795   3.600  16.948  0.00  0.00    +0.000 HD
ATOM     19  H   UNL     1       2.760   2.300  16.749  0.00  0.00    +0.000 HD
ENDBRANCH  11  17
ENDBRANCH   7  16
ENDBRANCH   1   8
BRANCH   4  20
ATOM     20  C   UNL     1       8.645   9.520  17.779  0.00  0.00    +0.000 C 
BRANCH  20  21
ATOM     21  N   UNL     1       9.089   9.939  19.096  0.00  0.00    +0.000 N 
ATOM     22  H   UNL     1       8.368   9.876  19.811  0.00  0.00    +0.000 HD
BRANCH  21  23
ATOM     23  C   UNL     1       9.975  11.006  19.302  0.00  0.00    +0.000 A 
ATOM     24  C   UNL     1      10.843  11.279  18.220  0.00  0.00    +0.000 A 
ATOM     25  C   UNL     1      11.680  12.395  18.205  0.00  0.00    +0.000 A 
ATOM     26  C   UNL     1      11.665  13.275  19.276  0.00  0.00    +0.000 A 
ATOM     27  C   UNL     1      10.827  13.026  20.364  0.00  0.00    +0.000 A 
ATOM     28  C   UNL     1       9.971  11.906  20.406  0.00  0.00    +0.000 A 
BRANCH  28  29
ATOM     29  N   UNL     1       9.088  11.693  21.494  0.00  0.00    +0.000 NA
ATOM     30  N   UNL     1       9.163  12.534  22.417  0.00  0.00    +0.000 NA
BRANCH  30  31
ATOM     31  C   UNL     1       8.229  12.233  23.434  0.00  0.00    +0.000 A 
ATOM     32  C   UNL     1       8.568  12.277  24.795  0.00  0.00    +0.000 A 
ATOM     33  C   UNL     1       7.641  11.934  25.782  0.00  0.00    +0.000 A 
ATOM     34  C   UNL     1       6.346  11.572  25.420  0.00  0.00    +0.000 A 
ATOM     35  C   UNL     1       5.976  11.573  24.072  0.00  0.00    +0.000 A 
ATOM     36  C   UNL     1       6.913  11.903  23.089  0.00  0.00    +0.000 A 
ENDBRANCH  30  31
ENDBRANCH  28  29
ENDBRANCH  21  23
ENDBRANCH  20  21
ENDBRANCH   4  20
TORSDOF 8
ENDMDL
MODEL 6
REMARK VINA RESULT:      -8.5      5.214      8.281
REMARK  Name = 
REMARK  8 active torsions:
REMARK  status: ('A' for Active; 'I' for Inactive)
REMARK    1  A    between atoms: N_1  and  C_2
REMARK    2  A    between atoms: C_7  and  N_8
REMARK    3  A    between atoms: C_9  and  C_11
REMARK    4  A    between atoms: C_14  and  C_15
REMARK    5  A    between atoms: C_15  and  N_16
REMARK    6  A    between atoms: N_16  and  C_17
REMARK    7  A    between atoms: C_22  and  N_23
REMARK    8  A    between atoms: N_24  and  C_25
REMARK                            x       y       z     vdW  Elec       q    Type
REMARK                         _______ _______ _______ _____ _____    ______ ____
ROOT
ATOM      1  C   UNL     1       0.296   9.847  20.280  0.00  0.00    +0.000 A 
ATOM      2  C   UNL     1       0.695   9.883  18.936  0.00  0.00    +0.000 A 
ATOM      3  C   UNL     1       1.558   8.928  18.423  0.00  0.00    +0.000 A 
ATOM      4  C   UNL     1       2.041   7.909  19.251  0.00  0.00    +0.000 A 
ATOM      5  C   UNL     1       1.596   7.835  20.582  0.00  0.00    +0.000 A 
ATOM      6  C   UNL     1       0.718   8.797  21.100  0.00  0.00    +0.000 A 
ENDROOT
BRANCH   1   8
ATOM      7  N   UNL     1      -0.398  11.397  22.070  0.00  0.00    +0.000 N 
ATOM      8  C   UNL     1      -0.484  11.024  20.740  0.00  0.00    +0.000 C 
ATOM      9  O   UNL     1      -1.156  11.591  19.885  0.00  0.00    +0.000 OA
ATOM     10  H   UNL     1       0.344  11.026  22.633  0.00  0.00    +0.000 HD
BRANCH   7  16
ATOM     11  C   UNL     1      -0.822  13.711  22.776  0.00  0.00    +0.000 A 
ATOM     12  C   UNL     1      -1.719  14.658  23.302  0.00  0.00    +0.000 A 
ATOM     13  C   UNL     1      -2.958  14.281  23.823  0.00  0.00    +0.000 A 
ATOM     14  C   UNL     1      -3.337  12.948  23.796  0.00  0.00    +0.000 A 
ATOM     15  C   UNL     1      -2.486  12.003  23.231  0.00  0.00    +0.000 A 
ATOM     16  C   UNL     1      -1.244  12.366  22.679  0.00  0.00    +0.000 A 
BRANCH  11  17
ATOM     17  N   UNL     1       0.346  14.186  22.146  0.00  0.00    +0.000 N 
ATOM     18  H   UNL     1       0.888  13.443  21.709  0.00  0.00    +0.000 HD
ATOM     19  H   UNL     1       0.211  14.963  21.518  0.00  0.00    +0.000 HD
ENDBRANCH  11  17
ENDBRANCH   7  16
ENDBRANCH   1   8
BRANCH   4  20
ATOM     20  C   UNL     1       3.124   7.000  18.721  0.00  0.00    +0.000 C 
BRANCH  20  21
ATOM     21  N   UNL     1       3.315   5.916  19.667  0.00  0.00    +0.000 N 
ATOM     22  H   UNL     1       4.273   5.824  19.998  0.00  0.00    +0.000 HD
BRANCH  21  23
ATOM     23  C   UNL     1       2.648   4.686  19.568  0.00  0.00    +0.000 A 
ATOM     24  C   UNL     1       1.750   4.407  20.622  0.00  0.00    +0.000 A 
ATOM     25  C   UNL     1       0.902   3.299  20.600  0.00  0.00    +0.000 A 
ATOM     26  C   UNL     1       0.928   2.441  19.512  0.00  0.00    +0.000 A 
ATOM     27  C   UNL     1       1.812   2.684  18.460  0.00  0.00    +0.000 A 
ATOM     28  C   UNL     1       2.680   3.795  18.457  0.00  0.00    +0.000 A 
BRANCH  28  29
ATOM     29  N   UNL     1       3.537   4.058  17.359  0.00  0.00    +0.000 NA
ATOM     30  N   UNL     1       4.761   3.976  17.602  0.00  0.00    +0.000 NA
BRANCH  30  31
ATOM     31  C   UNL     1       5.514   4.240  16.435  0.00  0.00    +0.000 A 
ATOM     32  C   UNL     1       5.009   3.995  15.149  0.00  0.00    +0.000 A 
ATOM     33  C   UNL     1       5.786   4.224  14.012  0.00  0.00    +0.000 A 
ATOM     34  C   UNL     1       7.075   4.734  14.145  0.00  0.00    +0.000 A 
ATOM     35  C   UNL     1       7.576   5.033  15.415  0.00  0.00    +0.000 A 
ATOM     36  C   UNL     1       6.797   4.788  16.550  0.00  0.00    +0.000 A 
ENDBRANCH  30  31
ENDBRANCH  28  29
ENDBRANCH  21  23
ENDBRANCH  20  21
ENDBRANCH   4  20
TORSDOF 8
ENDMDL
MODEL 7
REMARK VINA RESULT:      -8.5      5.220      8.269
REMARK  Name = 
REMARK  8 active torsions:
REMARK  status: ('A' for Active; 'I' for Inactive)
REMARK    1  A    between atoms: N_1  and  C_2
REMARK    2  A    between atoms: C_7  and  N_8
REMARK    3  A    between atoms: C_9  and  C_11
REMARK    4  A    between atoms: C_14  and  C_15
REMARK    5  A    between atoms: C_15  and  N_16
REMARK    6  A    between atoms: N_16  and  C_17
REMARK    7  A    between atoms: C_22  and  N_23
REMARK    8  A    between atoms: N_24  and  C_25
REMARK                            x       y       z     vdW  Elec       q    Type
REMARK                         _______ _______ _______ _____ _____    ______ ____
ROOT
ATOM      1  C   UNL     1       0.485  10.204  20.034  0.00  0.00    +0.000 A 
ATOM      2  C   UNL     1       0.893   9.187  20.910  0.00  0.00    +0.000 A 
ATOM      3  C   UNL     1       1.674   8.134  20.464  0.00  0.00    +0.000 A 
ATOM      4  C   UNL     1       2.065   8.076  19.121  0.00  0.00    +0.000 A 
ATOM      5  C   UNL     1       1.709   9.123  18.255  0.00  0.00    +0.000 A 
ATOM      6  C   UNL     1       0.924  10.193  18.707  0.00  0.00    +0.000 A 
ENDROOT
BRANCH   1   8
ATOM      7  N   UNL     1      -0.261  11.683  21.864  0.00  0.00    +0.000 N 
ATOM      8  C   UNL     1      -0.490  11.172  20.599  0.00  0.00    +0.000 C 
ATOM      9  O   UNL     1      -1.444  11.453  19.881  0.00  0.00    +0.000 OA
ATOM     10  H   UNL     1       0.649  11.580  22.273  0.00  0.00    +0.000 HD
BRANCH   7  16
ATOM     11  C   UNL     1      -0.957  13.809  22.876  0.00  0.00    +0.000 A 
ATOM     12  C   UNL     1      -1.958  14.557  23.524  0.00  0.00    +0.000 A 
ATOM     13  C   UNL     1      -3.134  13.962  23.983  0.00  0.00    +0.000 A 
ATOM     14  C   UNL     1      -3.345  12.609  23.773  0.00  0.00    +0.000 A 
ATOM     15  C   UNL     1      -2.392  11.862  23.088  0.00  0.00    +0.000 A 
ATOM     16  C   UNL     1      -1.211  12.448  22.596  0.00  0.00    +0.000 A 
BRANCH  11  17
ATOM     17  N   UNL     1       0.135  14.506  22.322  0.00  0.00    +0.000 N 
ATOM     18  H   UNL     1      -0.077  15.483  22.131  0.00  0.00    +0.000 HD
ATOM     19  H   UNL     1       1.006  14.408  22.820  0.00  0.00    +0.000 HD
ENDBRANCH  11  17
ENDBRANCH   7  16
ENDBRANCH   1   8
BRANCH   4  20
ATOM     20  C   UNL     1       2.749   6.826  18.621  0.00  0.00    +0.000 C 
BRANCH  20  21
ATOM     21  N   UNL     1       3.060   5.985  19.764  0.00  0.00    +0.000 N 
ATOM     22  H   UNL     1       3.959   6.191  20.192  0.00  0.00    +0.000 HD
BRANCH  21  23
ATOM     23  C   UNL     1       2.717   4.627  19.830  0.00  0.00    +0.000 A 
ATOM     24  C   UNL     1       1.631   4.326  20.683  0.00  0.00    +0.000 A 
ATOM     25  C   UNL     1       1.073   3.049  20.748  0.00  0.00    +0.000 A 
ATOM     26  C   UNL     1       1.587   2.037  19.953  0.00  0.00    +0.000 A 
ATOM     27  C   UNL     1       2.666   2.301  19.109  0.00  0.00    +0.000 A 
ATOM     28  C   UNL     1       3.250   3.582  19.024  0.00  0.00    +0.000 A 
BRANCH  28  29
ATOM     29  N   UNL     1       4.313   3.848  18.125  0.00  0.00    +0.000 NA
ATOM     30  N   UNL     1       3.986   3.951  16.922  0.00  0.00    +0.000 NA
BRANCH  30  31
ATOM     31  C   UNL     1       5.118   4.233  16.125  0.00  0.00    +0.000 A 
ATOM     32  C   UNL     1       6.262   4.855  16.647  0.00  0.00    +0.000 A 
ATOM     33  C   UNL     1       7.353   5.162  15.831  0.00  0.00    +0.000 A 
ATOM     34  C   UNL     1       7.328   4.819  14.482  0.00  0.00    +0.000 A 
ATOM     35  C   UNL     1       6.218   4.153  13.956  0.00  0.00    +0.000 A 
ATOM     36  C   UNL     1       5.123   3.861  14.775  0.00  0.00    +0.000 A 
ENDBRANCH  30  31
ENDBRANCH  28  29
ENDBRANCH  21  23
ENDBRANCH  20  21
ENDBRANCH   4  20
TORSDOF 8
ENDMDL
MODEL 8
REMARK VINA RESULT:      -8.5      1.070      1.959
REMARK  Name = 
REMARK  8 active torsions:
REMARK  status: ('A' for Active; 'I' for Inactive)
REMARK    1  A    between atoms: N_1  and  C_2
REMARK    2  A    between atoms: C_7  and  N_8
REMARK    3  A    between atoms: C_9  and  C_11
REMARK    4  A    between atoms: C_14  and  C_15
REMARK    5  A    between atoms: C_15  and  N_16
REMARK    6  A    between atoms: N_16  and  C_17
REMARK    7  A    between atoms: C_22  and  N_23
REMARK    8  A    between atoms: N_24  and  C_25
REMARK                            x       y       z     vdW  Elec       q    Type
REMARK                         _______ _______ _______ _____ _____    ______ ____
ROOT
ATOM      1  C   UNL     1       7.718   8.068  18.149  0.00  0.00    +0.000 A 
ATOM      2  C   UNL     1       6.556   8.050  17.363  0.00  0.00    +0.000 A 
ATOM      3  C   UNL     1       5.903   6.861  17.084  0.00  0.00    +0.000 A 
ATOM      4  C   UNL     1       6.403   5.656  17.590  0.00  0.00    +0.000 A 
ATOM      5  C   UNL     1       7.531   5.677  18.428  0.00  0.00    +0.000 A 
ATOM      6  C   UNL     1       8.189   6.881  18.716  0.00  0.00    +0.000 A 
ENDROOT
BRANCH   1   8
ATOM      7  N   UNL     1       9.373   9.567  19.199  0.00  0.00    +0.000 N 
ATOM      8  C   UNL     1       8.413   9.379  18.221  0.00  0.00    +0.000 C 
ATOM      9  O   UNL     1       8.077  10.211  17.385  0.00  0.00    +0.000 OA
ATOM     10  H   UNL     1       9.742   8.768  19.680  0.00  0.00    +0.000 HD
BRANCH   7  16
ATOM     11  C   UNL     1       9.653  11.468  20.728  0.00  0.00    +0.000 A 
ATOM     12  C   UNL     1      10.317  12.669  21.038  0.00  0.00    +0.000 A 
ATOM     13  C   UNL     1      11.176  13.286  20.127  0.00  0.00    +0.000 A 
ATOM     14  C   UNL     1      11.412  12.693  18.897  0.00  0.00    +0.000 A 
ATOM     15  C   UNL     1      10.807  11.477  18.592  0.00  0.00    +0.000 A 
ATOM     16  C   UNL     1       9.957  10.828  19.506  0.00  0.00    +0.000 A 
BRANCH  11  17
ATOM     17  N   UNL     1       8.913  10.839  21.750  0.00  0.00    +0.000 N 
ATOM     18  H   UNL     1       9.227   9.890  21.936  0.00  0.00    +0.000 HD
ATOM     19  H   UNL     1       8.817  11.371  22.601  0.00  0.00    +0.000 HD
ENDBRANCH  11  17
ENDBRANCH   7  16
ENDBRANCH   1   8
BRANCH   4  20
ATOM     20  C   UNL     1       5.786   4.361  17.116  0.00  0.00    +0.000 C 
BRANCH  20  21
ATOM     21  N   UNL     1       4.355   4.425  17.345  0.00  0.00    +0.000 N 
ATOM     22  H   UNL     1       3.920   5.274  16.993  0.00  0.00    +0.000 HD
BRANCH  21  23
ATOM     23  C   UNL     1       3.743   3.937  18.509  0.00  0.00    +0.000 A 
ATOM     24  C   UNL     1       4.174   2.654  18.917  0.00  0.00    +0.000 A 
ATOM     25  C   UNL     1       3.776   2.090  20.129  0.00  0.00    +0.000 A 
ATOM     26  C   UNL     1       2.936   2.802  20.971  0.00  0.00    +0.000 A 
ATOM     27  C   UNL     1       2.485   4.066  20.591  0.00  0.00    +0.000 A 
ATOM     28  C   UNL     1       2.871   4.660  19.371  0.00  0.00    +0.000 A 
BRANCH  28  29
ATOM     29  N   UNL     1       2.446   5.966  19.021  0.00  0.00    +0.000 NA
ATOM     30  N   UNL     1       2.315   6.762  19.977  0.00  0.00    +0.000 NA
BRANCH  30  31
ATOM     31  C   UNL     1       1.906   8.032  19.508  0.00  0.00    +0.000 A 
ATOM     32  C   UNL     1       2.228   8.492  18.222  0.00  0.00    +0.000 A 
ATOM     33  C   UNL     1       1.850   9.767  17.796  0.00  0.00    +0.000 A 
ATOM     34  C   UNL     1       1.113  10.591  18.643  0.00  0.00    +0.000 A 
ATOM     35  C   UNL     1       0.739  10.129  19.908  0.00  0.00    +0.000 A 
ATOM     36  C   UNL     1       1.133   8.857  20.334  0.00  0.00    +0.000 A 
ENDBRANCH  30  31
ENDBRANCH  28  29
ENDBRANCH  21  23
ENDBRANCH  20  21
ENDBRANCH   4  20
TORSDOF 8
ENDMDL
MODEL 9
REMARK VINA RESULT:      -8.4      5.241      8.418
REMARK  Name = 
REMARK  8 active torsions:
REMARK  status: ('A' for Active; 'I' for Inactive)
REMARK    1  A    between atoms: N_1  and  C_2
REMARK    2  A    between atoms: C_7  and  N_8
REMARK    3  A    between atoms: C_9  and  C_11
REMARK    4  A    between atoms: C_14  and  C_15
REMARK    5  A    between atoms: C_15  and  N_16
REMARK    6  A    between atoms: N_16  and  C_17
REMARK    7  A    between atoms: C_22  and  N_23
REMARK    8  A    between atoms: N_24  and  C_25
REMARK                            x       y       z     vdW  Elec       q    Type
REMARK                         _______ _______ _______ _____ _____    ______ ____
ROOT
ATOM      1  C   UNL     1       0.278  10.026  19.432  0.00  0.00    +0.000 A 
ATOM      2  C   UNL     1       0.699   9.149  20.442  0.00  0.00    +0.000 A 
ATOM      3  C   UNL     1       1.626   8.153  20.180  0.00  0.00    +0.000 A 
ATOM      4  C   UNL     1       2.154   8.014  18.891  0.00  0.00    +0.000 A 
ATOM      5  C   UNL     1       1.780   8.928  17.892  0.00  0.00    +0.000 A 
ATOM      6  C   UNL     1       0.847   9.941  18.158  0.00  0.00    +0.000 A 
ENDROOT
BRANCH   1   8
ATOM      7  N   UNL     1      -0.658  11.824  20.840  0.00  0.00    +0.000 N 
ATOM      8  C   UNL     1      -0.843  10.927  19.803  0.00  0.00    +0.000 C 
ATOM      9  O   UNL     1      -1.870  10.806  19.142  0.00  0.00    +0.000 OA
ATOM     10  H   UNL     1       0.273  12.013  21.161  0.00  0.00    +0.000 HD
BRANCH   7  16
ATOM     11  C   UNL     1      -2.047  13.849  20.885  0.00  0.00    +0.000 A 
ATOM     12  C   UNL     1      -3.146  14.536  21.433  0.00  0.00    +0.000 A 
ATOM     13  C   UNL     1      -3.827  14.054  22.552  0.00  0.00    +0.000 A 
ATOM     14  C   UNL     1      -3.440  12.853  23.125  0.00  0.00    +0.000 A 
ATOM     15  C   UNL     1      -2.390  12.131  22.567  0.00  0.00    +0.000 A 
ATOM     16  C   UNL     1      -1.706  12.588  21.425  0.00  0.00    +0.000 A 
BRANCH  11  17
ATOM     17  N   UNL     1      -1.502  14.329  19.677  0.00  0.00    +0.000 N 
ATOM     18  H   UNL     1      -0.924  15.156  19.807  0.00  0.00    +0.000 HD
ATOM     19  H   UNL     1      -1.035  13.637  19.111  0.00  0.00    +0.000 HD
ENDBRANCH  11  17
ENDBRANCH   7  16
ENDBRANCH   1   8
BRANCH   4  20
ATOM     20  C   UNL     1       3.010   6.807  18.587  0.00  0.00    +0.000 C 
BRANCH  20  21
ATOM     21  N   UNL     1       3.196   6.057  19.816  0.00  0.00    +0.000 N 
ATOM     22  H   UNL     1       4.060   6.279  20.305  0.00  0.00    +0.000 HD
BRANCH  21  23
ATOM     23  C   UNL     1       2.812   4.716  19.960  0.00  0.00    +0.000 A 
ATOM     24  C   UNL     1       2.033   4.437  21.105  0.00  0.00    +0.000 A 
ATOM     25  C   UNL     1       1.449   3.188  21.317  0.00  0.00    +0.000 A 
ATOM     26  C   UNL     1       1.626   2.182  20.380  0.00  0.00    +0.000 A 
ATOM     27  C   UNL     1       2.400   2.424  19.245  0.00  0.00    +0.000 A 
ATOM     28  C   UNL     1       3.003   3.677  19.005  0.00  0.00    +0.000 A 
BRANCH  28  29
ATOM     29  N   UNL     1       3.744   3.924  17.823  0.00  0.00    +0.000 NA
ATOM     30  N   UNL     1       4.973   4.086  17.984  0.00  0.00    +0.000 NA
BRANCH  30  31
ATOM     31  C   UNL     1       5.609   4.307  16.741  0.00  0.00    +0.000 A 
ATOM     32  C   UNL     1       4.949   4.106  15.519  0.00  0.00    +0.000 A 
ATOM     33  C   UNL     1       5.610   4.290  14.303  0.00  0.00    +0.000 A 
ATOM     34  C   UNL     1       6.937   4.711  14.292  0.00  0.00    +0.000 A 
ATOM     35  C   UNL     1       7.595   4.965  15.499  0.00  0.00    +0.000 A 
ATOM     36  C   UNL     1       6.931   4.766  16.713  0.00  0.00    +0.000 A 
ENDBRANCH  30  31
ENDBRANCH  28  29
ENDBRANCH  21  23
ENDBRANCH  20  21
ENDBRANCH   4  20
TORSDOF 8
ENDMDL
