MODEL 1
REMARK VINA RESULT:      -6.8      0.000      0.000
REMARK  Name = 
REMARK  6 active torsions:
REMARK  status: ('A' for Active; 'I' for Inactive)
REMARK    1  A    between atoms: C_1  and  C_2
REMARK    2  A    between atoms: C_2  and  C_3
REMARK    3  A    between atoms: C_3  and  N_4
REMARK    4  A    between atoms: N_4  and  C_5
REMARK    5  A    between atoms: C_5  and  C_6
REMARK    6  A    between atoms: C_12  and  O_13
REMARK                            x       y       z     vdW  Elec       q    Type
REMARK                         _______ _______ _______ _____ _____    ______ ____
ROOT
ATOM      1  C   UNL     1       5.354   4.898  15.752  0.00  0.00    +0.000 C 
ATOM      2  C   UNL     1       5.522   6.052  16.737  0.00  0.00    +0.000 C 
ATOM      3  C   UNL     1       4.154   6.387  17.315  0.00  0.00    +0.000 C 
ATOM      4  C   UNL     1       3.400   5.136  17.675  0.00  0.00    +0.000 A 
ATOM      5  C   UNL     1       2.227   5.218  18.437  0.00  0.00    +0.000 A 
ATOM      6  C   UNL     1       1.514   4.059  18.761  0.00  0.00    +0.000 A 
ATOM      7  C   UNL     1       1.977   2.823  18.322  0.00  0.00    +0.000 A 
ATOM      8  C   UNL     1       3.136   2.725  17.563  0.00  0.00    +0.000 A 
ATOM      9  C   UNL     1       3.832   3.882  17.223  0.00  0.00    +0.000 A 
ATOM     10  O   UNL     1       4.954   3.709  16.460  0.00  0.00    +0.000 OA
ENDROOT
BRANCH   7  11
ATOM     11  O   UNL     1       1.309   1.670  18.615  0.00  0.00    +0.000 OA
ATOM     12  H   UNL     1       1.240   1.138  17.806  0.00  0.00    +0.000 HD
ENDBRANCH   7  11
BRANCH   1  13
ATOM     13  C   UNL     1       6.681   4.595  15.040  0.00  0.00    +0.000 C 
BRANCH  13  14
ATOM     14  N   UNL     1       6.485   3.566  14.010  0.00  0.00    +0.000 NA
ATOM     15  H   UNL     1       7.379   3.425  13.529  0.00  0.00    +0.000 HD
BRANCH  14  16
ATOM     16  C   UNL     1       5.432   3.899  13.063  0.00  0.00    +0.000 C 
BRANCH  16  18
ATOM     17  C   UNL     1       3.954   3.178  11.103  0.00  0.00    +0.000 C 
ATOM     18  C   UNL     1       5.278   3.010  11.827  0.00  0.00    +0.000 C 
ENDBRANCH  16  18
ENDBRANCH  14  16
ENDBRANCH  13  14
ENDBRANCH   1  13
TORSDOF 5
ENDMDL
MODEL 2
REMARK VINA RESULT:      -6.7      3.209      6.072
REMARK  Name = 
REMARK  6 active torsions:
REMARK  status: ('A' for Active; 'I' for Inactive)
REMARK    1  A    between atoms: C_1  and  C_2
REMARK    2  A    between atoms: C_2  and  C_3
REMARK    3  A    between atoms: C_3  and  N_4
REMARK    4  A    between atoms: N_4  and  C_5
REMARK    5  A    between atoms: C_5  and  C_6
REMARK    6  A    between atoms: C_12  and  O_13
REMARK                            x       y       z     vdW  Elec       q    Type
REMARK                         _______ _______ _______ _____ _____    ______ ____
ROOT
ATOM      1  C   UNL     1       4.178   3.445  18.622  0.00  0.00    +0.000 C 
ATOM      2  C   UNL     1       4.225   3.184  17.120  0.00  0.00    +0.000 C 
ATOM      3  C   UNL     1       4.553   4.496  16.419  0.00  0.00    +0.000 C 
ATOM      4  C   UNL     1       5.655   5.227  17.136  0.00  0.00    +0.000 A 
ATOM      5  C   UNL     1       6.272   6.331  16.532  0.00  0.00    +0.000 A 
ATOM      6  C   UNL     1       7.286   7.025  17.201  0.00  0.00    +0.000 A 
ATOM      7  C   UNL     1       7.679   6.612  18.469  0.00  0.00    +0.000 A 
ATOM      8  C   UNL     1       7.075   5.522  19.082  0.00  0.00    +0.000 A 
ATOM      9  C   UNL     1       6.051   4.847  18.424  0.00  0.00    +0.000 A 
ATOM     10  O   UNL     1       5.492   3.794  19.096  0.00  0.00    +0.000 OA
ENDROOT
BRANCH   7  11
ATOM     11  O   UNL     1       8.663   7.263  19.155  0.00  0.00    +0.000 OA
ATOM     12  H   UNL     1       8.334   8.140  19.411  0.00  0.00    +0.000 HD
ENDBRANCH   7  11
BRANCH   1  13
ATOM     13  C   UNL     1       3.727   2.185  19.378  0.00  0.00    +0.000 C 
BRANCH  13  14
ATOM     14  N   UNL     1       2.536   1.607  18.741  0.00  0.00    +0.000 NA
ATOM     15  H   UNL     1       2.718   1.536  17.735  0.00  0.00    +0.000 HD
BRANCH  14  16
ATOM     16  C   UNL     1       1.324   2.372  18.996  0.00  0.00    +0.000 C 
BRANCH  16  18
ATOM     17  C   UNL     1       1.104   4.401  20.539  0.00  0.00    +0.000 C 
ATOM     18  C   UNL     1       1.095   2.887  20.419  0.00  0.00    +0.000 C 
ENDBRANCH  16  18
ENDBRANCH  14  16
ENDBRANCH  13  14
ENDBRANCH   1  13
TORSDOF 5
ENDMDL
MODEL 3
REMARK VINA RESULT:      -6.6      3.672      5.697
REMARK  Name = 
REMARK  6 active torsions:
REMARK  status: ('A' for Active; 'I' for Inactive)
REMARK    1  A    between atoms: C_1  and  C_2
REMARK    2  A    between atoms: C_2  and  C_3
REMARK    3  A    between atoms: C_3  and  N_4
REMARK    4  A    between atoms: N_4  and  C_5
REMARK    5  A    between atoms: C_5  and  C_6
REMARK    6  A    between atoms: C_12  and  O_13
REMARK                            x       y       z     vdW  Elec       q    Type
REMARK                         _______ _______ _______ _____ _____    ______ ____
ROOT
ATOM      1  C   UNL     1       3.098   5.580  20.005  0.00  0.00    +0.000 C 
ATOM      2  C   UNL     1       2.293   6.113  18.824  0.00  0.00    +0.000 C 
ATOM      3  C   UNL     1       3.236   6.896  17.919  0.00  0.00    +0.000 C 
ATOM      4  C   UNL     1       4.535   6.160  17.732  0.00  0.00    +0.000 A 
ATOM      5  C   UNL     1       5.446   6.583  16.753  0.00  0.00    +0.000 A 
ATOM      6  C   UNL     1       6.662   5.913  16.586  0.00  0.00    +0.000 A 
ATOM      7  C   UNL     1       6.963   4.823  17.396  0.00  0.00    +0.000 A 
ATOM      8  C   UNL     1       6.073   4.395  18.373  0.00  0.00    +0.000 A 
ATOM      9  C   UNL     1       4.873   5.076  18.552  0.00  0.00    +0.000 A 
ATOM     10  O   UNL     1       4.054   4.607  19.544  0.00  0.00    +0.000 OA
ENDROOT
BRANCH   7  11
ATOM     11  O   UNL     1       8.140   4.144  17.266  0.00  0.00    +0.000 OA
ATOM     12  H   UNL     1       7.949   3.193  17.261  0.00  0.00    +0.000 HD
ENDBRANCH   7  11
BRANCH   1  13
ATOM     13  C   UNL     1       2.177   4.887  21.021  0.00  0.00    +0.000 C 
BRANCH  13  14
ATOM     14  N   UNL     1       0.976   4.370  20.351  0.00  0.00    +0.000 NA
ATOM     15  H   UNL     1       0.163   4.622  20.921  0.00  0.00    +0.000 HD
BRANCH  14  16
ATOM     16  C   UNL     1       1.024   2.934  20.119  0.00  0.00    +0.000 C 
BRANCH  16  18
ATOM     17  C   UNL     1       2.323   2.124  18.069  0.00  0.00    +0.000 C 
ATOM     18  C   UNL     1       0.966   2.445  18.671  0.00  0.00    +0.000 C 
ENDBRANCH  16  18
ENDBRANCH  14  16
ENDBRANCH  13  14
ENDBRANCH   1  13
TORSDOF 5
ENDMDL
MODEL 4
REMARK VINA RESULT:      -6.6      3.533      6.370
REMARK  Name = 
REMARK  6 active torsions:
REMARK  status: ('A' for Active; 'I' for Inactive)
REMARK    1  A    between atoms: C_1  and  C_2
REMARK    2  A    between atoms: C_2  and  C_3
REMARK    3  A    between atoms: C_3  and  N_4
REMARK    4  A    between atoms: N_4  and  C_5
REMARK    5  A    between atoms: C_5  and  C_6
REMARK    6  A    between atoms: C_12  and  O_13
REMARK                            x       y       z     vdW  Elec       q    Type
REMARK                         _______ _______ _______ _____ _____    ______ ____
ROOT
ATOM      1  C   UNL     1       4.164   3.430  19.033  0.00  0.00    +0.000 C 
ATOM      2  C   UNL     1       4.113   3.074  17.550  0.00  0.00    +0.000 C 
ATOM      3  C   UNL     1       4.380   4.340  16.747  0.00  0.00    +0.000 C 
ATOM      4  C   UNL     1       5.520   5.123  17.340  0.00  0.00    +0.000 A 
ATOM      5  C   UNL     1       6.084   6.189  16.627  0.00  0.00    +0.000 A 
ATOM      6  C   UNL     1       7.133   6.931  17.181  0.00  0.00    +0.000 A 
ATOM      7  C   UNL     1       7.614   6.602  18.444  0.00  0.00    +0.000 A 
ATOM      8  C   UNL     1       7.063   5.550  19.164  0.00  0.00    +0.000 A 
ATOM      9  C   UNL     1       6.005   4.828  18.621  0.00  0.00    +0.000 A 
ATOM     10  O   UNL     1       5.503   3.817  19.395  0.00  0.00    +0.000 OA
ENDROOT
BRANCH   7  11
ATOM     11  O   UNL     1       8.635   7.302  19.019  0.00  0.00    +0.000 OA
ATOM     12  H   UNL     1       9.145   7.738  18.318  0.00  0.00    +0.000 HD
ENDBRANCH   7  11
BRANCH   1  13
ATOM     13  C   UNL     1       3.778   2.218  19.896  0.00  0.00    +0.000 C 
BRANCH  13  14
ATOM     14  N   UNL     1       3.376   2.655  21.239  0.00  0.00    +0.000 NA
ATOM     15  H   UNL     1       3.855   2.060  21.922  0.00  0.00    +0.000 HD
BRANCH  14  16
ATOM     16  C   UNL     1       1.935   2.625  21.443  0.00  0.00    +0.000 C 
BRANCH  16  18
ATOM     17  C   UNL     1       1.348   4.977  20.624  0.00  0.00    +0.000 C 
ATOM     18  C   UNL     1       1.068   3.487  20.523  0.00  0.00    +0.000 C 
ENDBRANCH  16  18
ENDBRANCH  14  16
ENDBRANCH  13  14
ENDBRANCH   1  13
TORSDOF 5
ENDMDL
MODEL 5
REMARK VINA RESULT:      -6.5      1.515      1.805
REMARK  Name = 
REMARK  6 active torsions:
REMARK  status: ('A' for Active; 'I' for Inactive)
REMARK    1  A    between atoms: C_1  and  C_2
REMARK    2  A    between atoms: C_2  and  C_3
REMARK    3  A    between atoms: C_3  and  N_4
REMARK    4  A    between atoms: N_4  and  C_5
REMARK    5  A    between atoms: C_5  and  C_6
REMARK    6  A    between atoms: C_12  and  O_13
REMARK                            x       y       z     vdW  Elec       q    Type
REMARK                         _______ _______ _______ _____ _____    ______ ____
ROOT
ATOM      1  C   UNL     1       5.470   4.713  17.476  0.00  0.00    +0.000 C 
ATOM      2  C   UNL     1       5.751   5.159  18.908  0.00  0.00    +0.000 C 
ATOM      3  C   UNL     1       4.427   5.541  19.556  0.00  0.00    +0.000 C 
ATOM      4  C   UNL     1       3.358   4.535  19.230  0.00  0.00    +0.000 A 
ATOM      5  C   UNL     1       2.135   4.565  19.914  0.00  0.00    +0.000 A 
ATOM      6  C   UNL     1       1.131   3.641  19.603  0.00  0.00    +0.000 A 
ATOM      7  C   UNL     1       1.354   2.692  18.612  0.00  0.00    +0.000 A 
ATOM      8  C   UNL     1       2.559   2.652  17.923  0.00  0.00    +0.000 A 
ATOM      9  C   UNL     1       3.549   3.585  18.218  0.00  0.00    +0.000 A 
ATOM     10  O   UNL     1       4.703   3.495  17.488  0.00  0.00    +0.000 OA
ENDROOT
BRANCH   7  11
ATOM     11  O   UNL     1       0.400   1.775  18.279  0.00  0.00    +0.000 OA
ATOM     12  H   UNL     1       0.032   1.401  19.095  0.00  0.00    +0.000 HD
ENDBRANCH   7  11
BRANCH   1  13
ATOM     13  C   UNL     1       6.782   4.432  16.728  0.00  0.00    +0.000 C 
BRANCH  13  14
ATOM     14  N   UNL     1       6.983   5.421  15.660  0.00  0.00    +0.000 NA
ATOM     15  H   UNL     1       6.180   6.059  15.665  0.00  0.00    +0.000 HD
BRANCH  14  16
ATOM     16  C   UNL     1       7.158   4.817  14.348  0.00  0.00    +0.000 C 
BRANCH  16  18
ATOM     17  C   UNL     1       6.245   3.455  12.384  0.00  0.00    +0.000 C 
ATOM     18  C   UNL     1       5.997   3.999  13.780  0.00  0.00    +0.000 C 
ENDBRANCH  16  18
ENDBRANCH  14  16
ENDBRANCH  13  14
ENDBRANCH   1  13
TORSDOF 5
ENDMDL
MODEL 6
REMARK VINA RESULT:      -6.5      1.116      1.135
REMARK  Name = 
REMARK  6 active torsions:
REMARK  status: ('A' for Active; 'I' for Inactive)
REMARK    1  A    between atoms: C_1  and  C_2
REMARK    2  A    between atoms: C_2  and  C_3
REMARK    3  A    between atoms: C_3  and  N_4
REMARK    4  A    between atoms: N_4  and  C_5
REMARK    5  A    between atoms: C_5  and  C_6
REMARK    6  A    between atoms: C_12  and  O_13
REMARK                            x       y       z     vdW  Elec       q    Type
REMARK                         _______ _______ _______ _____ _____    ______ ____
ROOT
ATOM      1  C   UNL     1       5.538   4.601  16.794  0.00  0.00    +0.000 C 
ATOM      2  C   UNL     1       6.114   4.888  18.178  0.00  0.00    +0.000 C 
ATOM      3  C   UNL     1       4.967   5.277  19.100  0.00  0.00    +0.000 C 
ATOM      4  C   UNL     1       3.785   4.368  18.902  0.00  0.00    +0.000 A 
ATOM      5  C   UNL     1       2.718   4.397  19.810  0.00  0.00    +0.000 A 
ATOM      6  C   UNL     1       1.609   3.565  19.621  0.00  0.00    +0.000 A 
ATOM      7  C   UNL     1       1.573   2.707  18.527  0.00  0.00    +0.000 A 
ATOM      8  C   UNL     1       2.621   2.669  17.617  0.00  0.00    +0.000 A 
ATOM      9  C   UNL     1       3.713   3.513  17.795  0.00  0.00    +0.000 A 
ATOM     10  O   UNL     1       4.700   3.432  16.850  0.00  0.00    +0.000 OA
ENDROOT
BRANCH   7  11
ATOM     11  O   UNL     1       0.509   1.882  18.307  0.00  0.00    +0.000 OA
ATOM     12  H   UNL     1      -0.103   2.321  17.696  0.00  0.00    +0.000 HD
ENDBRANCH   7  11
BRANCH   1  13
ATOM     13  C   UNL     1       6.663   4.325  15.785  0.00  0.00    +0.000 C 
BRANCH  13  14
ATOM     14  N   UNL     1       6.207   3.375  14.761  0.00  0.00    +0.000 NA
ATOM     15  H   UNL     1       6.997   2.770  14.517  0.00  0.00    +0.000 HD
BRANCH  14  16
ATOM     16  C   UNL     1       5.667   4.027  13.577  0.00  0.00    +0.000 C 
BRANCH  16  18
ATOM     17  C   UNL     1       4.442   3.230  11.477  0.00  0.00    +0.000 C 
ATOM     18  C   UNL     1       5.749   3.272  12.249  0.00  0.00    +0.000 C 
ENDBRANCH  16  18
ENDBRANCH  14  16
ENDBRANCH  13  14
ENDBRANCH   1  13
TORSDOF 5
ENDMDL
MODEL 7
REMARK VINA RESULT:      -6.4      1.496      1.976
REMARK  Name = 
REMARK  6 active torsions:
REMARK  status: ('A' for Active; 'I' for Inactive)
REMARK    1  A    between atoms: C_1  and  C_2
REMARK    2  A    between atoms: C_2  and  C_3
REMARK    3  A    between atoms: C_3  and  N_4
REMARK    4  A    between atoms: N_4  and  C_5
REMARK    5  A    between atoms: C_5  and  C_6
REMARK    6  A    between atoms: C_12  and  O_13
REMARK                            x       y       z     vdW  Elec       q    Type
REMARK                         _______ _______ _______ _____ _____    ______ ____
ROOT
ATOM      1  C   UNL     1       4.940   5.451  17.059  0.00  0.00    +0.000 C 
ATOM      2  C   UNL     1       6.022   4.833  17.940  0.00  0.00    +0.000 C 
ATOM      3  C   UNL     1       5.382   4.412  19.256  0.00  0.00    +0.000 C 
ATOM      4  C   UNL     1       4.062   3.731  19.018  0.00  0.00    +0.000 A 
ATOM      5  C   UNL     1       3.423   3.055  20.067  0.00  0.00    +0.000 A 
ATOM      6  C   UNL     1       2.187   2.433  19.855  0.00  0.00    +0.000 A 
ATOM      7  C   UNL     1       1.598   2.488  18.597  0.00  0.00    +0.000 A 
ATOM      8  C   UNL     1       2.217   3.157  17.549  0.00  0.00    +0.000 A 
ATOM      9  C   UNL     1       3.436   3.793  17.767  0.00  0.00    +0.000 A 
ATOM     10  O   UNL     1       3.978   4.445  16.693  0.00  0.00    +0.000 OA
ENDROOT
BRANCH   7  11
ATOM     11  O   UNL     1       0.393   1.896  18.351  0.00  0.00    +0.000 OA
ATOM     12  H   UNL     1       0.104   2.143  17.458  0.00  0.00    +0.000 HD
ENDBRANCH   7  11
BRANCH   1  13
ATOM     13  C   UNL     1       5.549   6.011  15.765  0.00  0.00    +0.000 C 
BRANCH  13  14
ATOM     14  N   UNL     1       6.890   5.453  15.548  0.00  0.00    +0.000 NA
ATOM     15  H   UNL     1       7.573   6.201  15.702  0.00  0.00    +0.000 HD
BRANCH  14  16
ATOM     16  C   UNL     1       7.056   4.862  14.229  0.00  0.00    +0.000 C 
BRANCH  16  18
ATOM     17  C   UNL     1       6.190   3.381  12.330  0.00  0.00    +0.000 C 
ATOM     18  C   UNL     1       5.993   3.869  13.755  0.00  0.00    +0.000 C 
ENDBRANCH  16  18
ENDBRANCH  14  16
ENDBRANCH  13  14
ENDBRANCH   1  13
TORSDOF 5
ENDMDL
MODEL 8
REMARK VINA RESULT:      -6.4      2.528      3.696
REMARK  Name = 
REMARK  6 active torsions:
REMARK  status: ('A' for Active; 'I' for Inactive)
REMARK    1  A    between atoms: C_1  and  C_2
REMARK    2  A    between atoms: C_2  and  C_3
REMARK    3  A    between atoms: C_3  and  N_4
REMARK    4  A    between atoms: N_4  and  C_5
REMARK    5  A    between atoms: C_5  and  C_6
REMARK    6  A    between atoms: C_12  and  O_13
REMARK                            x       y       z     vdW  Elec       q    Type
REMARK                         _______ _______ _______ _____ _____    ______ ____
ROOT
ATOM      1  C   UNL     1       4.141   4.459  17.030  0.00  0.00    +0.000 C 
ATOM      2  C   UNL     1       3.943   5.939  17.341  0.00  0.00    +0.000 C 
ATOM      3  C   UNL     1       2.644   6.092  18.121  0.00  0.00    +0.000 C 
ATOM      4  C   UNL     1       2.525   5.032  19.181  0.00  0.00    +0.000 A 
ATOM      5  C   UNL     1       1.530   5.130  20.164  0.00  0.00    +0.000 A 
ATOM      6  C   UNL     1       1.404   4.138  21.142  0.00  0.00    +0.000 A 
ATOM      7  C   UNL     1       2.275   3.054  21.136  0.00  0.00    +0.000 A 
ATOM      8  C   UNL     1       3.264   2.940  20.167  0.00  0.00    +0.000 A 
ATOM      9  C   UNL     1       3.373   3.917  19.182  0.00  0.00    +0.000 A 
ATOM     10  O   UNL     1       4.359   3.729  18.252  0.00  0.00    +0.000 OA
ENDROOT
BRANCH   7  11
ATOM     11  O   UNL     1       2.184   2.065  22.072  0.00  0.00    +0.000 OA
ATOM     12  H   UNL     1       1.608   2.371  22.790  0.00  0.00    +0.000 HD
ENDBRANCH   7  11
BRANCH   1  13
ATOM     13  C   UNL     1       5.372   4.253  16.134  0.00  0.00    +0.000 C 
BRANCH  13  14
ATOM     14  N   UNL     1       6.521   3.815  16.939  0.00  0.00    +0.000 NA
ATOM     15  H   UNL     1       6.177   3.563  17.871  0.00  0.00    +0.000 HD
BRANCH  14  16
ATOM     16  C   UNL     1       7.571   4.819  17.028  0.00  0.00    +0.000 C 
BRANCH  16  18
ATOM     17  C   UNL     1       7.661   7.250  17.821  0.00  0.00    +0.000 C 
ATOM     18  C   UNL     1       7.532   5.788  18.211  0.00  0.00    +0.000 C 
ENDBRANCH  16  18
ENDBRANCH  14  16
ENDBRANCH  13  14
ENDBRANCH   1  13
TORSDOF 5
ENDMDL
MODEL 9
REMARK VINA RESULT:      -6.4      1.363      1.619
REMARK  Name = 
REMARK  6 active torsions:
REMARK  status: ('A' for Active; 'I' for Inactive)
REMARK    1  A    between atoms: C_1  and  C_2
REMARK    2  A    between atoms: C_2  and  C_3
REMARK    3  A    between atoms: C_3  and  N_4
REMARK    4  A    between atoms: N_4  and  C_5
REMARK    5  A    between atoms: C_5  and  C_6
REMARK    6  A    between atoms: C_12  and  O_13
REMARK                            x       y       z     vdW  Elec       q    Type
REMARK                         _______ _______ _______ _____ _____    ______ ____
ROOT
ATOM      1  C   UNL     1       6.096   4.920  15.728  0.00  0.00    +0.000 C 
ATOM      2  C   UNL     1       7.075   4.601  16.854  0.00  0.00    +0.000 C 
ATOM      3  C   UNL     1       6.398   4.924  18.179  0.00  0.00    +0.000 C 
ATOM      4  C   UNL     1       4.978   4.427  18.193  0.00  0.00    +0.000 A 
ATOM      5  C   UNL     1       4.254   4.405  19.393  0.00  0.00    +0.000 A 
ATOM      6  C   UNL     1       2.928   3.960  19.409  0.00  0.00    +0.000 A 
ATOM      7  C   UNL     1       2.333   3.536  18.226  0.00  0.00    +0.000 A 
ATOM      8  C   UNL     1       3.036   3.554  17.028  0.00  0.00    +0.000 A 
ATOM      9  C   UNL     1       4.348   4.019  17.011  0.00  0.00    +0.000 A 
ATOM     10  O   UNL     1       4.971   4.023  15.793  0.00  0.00    +0.000 OA
ENDROOT
BRANCH   7  11
ATOM     11  O   UNL     1       1.041   3.096  18.199  0.00  0.00    +0.000 OA
ATOM     12  H   UNL     1       0.959   2.342  18.805  0.00  0.00    +0.000 HD
ENDBRANCH   7  11
BRANCH   1  13
ATOM     13  C   UNL     1       6.765   4.734  14.358  0.00  0.00    +0.000 C 
BRANCH  13  14
ATOM     14  N   UNL     1       6.367   3.451  13.765  0.00  0.00    +0.000 NA
ATOM     15  H   UNL     1       7.010   2.731  14.108  0.00  0.00    +0.000 HD
BRANCH  14  16
ATOM     16  C   UNL     1       6.343   3.477  12.310  0.00  0.00    +0.000 C 
BRANCH  16  18
ATOM     17  C   UNL     1       6.463   1.241  11.072  0.00  0.00    +0.000 C 
ATOM     18  C   UNL     1       5.580   2.362  11.591  0.00  0.00    +0.000 C 
ENDBRANCH  16  18
ENDBRANCH  14  16
ENDBRANCH  13  14
ENDBRANCH   1  13
TORSDOF 5
ENDMDL
