MODEL 1
REMARK VINA RESULT:      -6.6      0.000      0.000
REMARK  Name = 
REMARK  3 active torsions:
REMARK  status: ('A' for Active; 'I' for Inactive)
REMARK    1  A    between atoms: C_1  and  O_2
REMARK    2  A    between atoms: O_2  and  C_3
REMARK    3  A    between atoms: C_14  and  C_15
REMARK                            x       y       z     vdW  Elec       q    Type
REMARK                         _______ _______ _______ _____ _____    ______ ____
ROOT
ATOM      1  C   UNL     1       1.202   3.057  20.017  0.00  0.00    +0.000 A 
ATOM      2  N   UNL     1       0.552   2.802  18.900  0.00  0.00    +0.000 NA
ATOM      3  N   UNL     1       1.286   3.166  17.786  0.00  0.00    +0.000 NA
ATOM      4  C   UNL     1       2.473   3.633  18.110  0.00  0.00    +0.000 A 
ATOM      5  N   UNL     1       3.391   4.025  17.162  0.00  0.00    +0.000 N 
ATOM      6  C   UNL     1       4.736   4.177  17.374  0.00  0.00    +0.000 C 
ATOM      7  O   UNL     1       5.299   3.966  18.445  0.00  0.00    +0.000 OA
ATOM      8  N   UNL     1       5.465   4.566  16.266  0.00  0.00    +0.000 N 
ATOM      9  C   UNL     1       5.021   4.825  14.905  0.00  0.00    +0.000 C 
ATOM     10  C   UNL     1       6.193   4.370  14.055  0.00  0.00    +0.000 C 
ATOM     11  C   UNL     1       7.415   4.713  14.899  0.00  0.00    +0.000 C 
ATOM     12  C   UNL     1       6.924   4.665  16.356  0.00  0.00    +0.000 C 
ATOM     13  S   UNL     1       2.735   3.776  19.789  0.00  0.00    +0.000 S 
ATOM     14  H   UNL     1       3.056   3.894  16.225  0.00  0.00    +0.000 HD
ENDROOT
BRANCH  12  15
ATOM     15  C   UNL     1       7.341   5.912  17.099  0.00  0.00    +0.000 A 
ATOM     16  C   UNL     1       7.325   7.236  16.692  0.00  0.00    +0.000 A 
ATOM     17  C   UNL     1       7.824   8.122  17.689  0.00  0.00    +0.000 A 
ATOM     18  C   UNL     1       8.209   7.452  18.827  0.00  0.00    +0.000 A 
ATOM     19  S   UNL     1       7.970   5.766  18.692  0.00  0.00    +0.000 S 
ENDBRANCH  12  15
BRANCH   1  21
ATOM     20  C   UNL     1       1.731   2.471  22.199  0.00  0.00    +0.000 C 
ATOM     21  O   UNL     1       0.735   2.791  21.238  0.00  0.00    +0.000 OA
ENDBRANCH   1  21
TORSDOF 2
ENDMDL
MODEL 2
REMARK VINA RESULT:      -6.2      3.213      6.484
REMARK  Name = 
REMARK  3 active torsions:
REMARK  status: ('A' for Active; 'I' for Inactive)
REMARK    1  A    between atoms: C_1  and  O_2
REMARK    2  A    between atoms: O_2  and  C_3
REMARK    3  A    between atoms: C_14  and  C_15
REMARK                            x       y       z     vdW  Elec       q    Type
REMARK                         _______ _______ _______ _____ _____    ______ ____
ROOT
ATOM      1  C   UNL     1       6.126   3.206  11.924  0.00  0.00    +0.000 A 
ATOM      2  N   UNL     1       7.154   3.999  11.705  0.00  0.00    +0.000 NA
ATOM      3  N   UNL     1       7.461   4.760  12.818  0.00  0.00    +0.000 NA
ATOM      4  C   UNL     1       6.682   4.473  13.839  0.00  0.00    +0.000 A 
ATOM      5  N   UNL     1       6.827   5.082  15.065  0.00  0.00    +0.000 N 
ATOM      6  C   UNL     1       6.325   4.612  16.250  0.00  0.00    +0.000 C 
ATOM      7  O   UNL     1       5.688   3.568  16.370  0.00  0.00    +0.000 OA
ATOM      8  N   UNL     1       6.610   5.387  17.358  0.00  0.00    +0.000 N 
ATOM      9  C   UNL     1       7.374   6.621  17.458  0.00  0.00    +0.000 C 
ATOM     10  C   UNL     1       8.038   6.520  18.820  0.00  0.00    +0.000 C 
ATOM     11  C   UNL     1       7.011   5.788  19.676  0.00  0.00    +0.000 C 
ATOM     12  C   UNL     1       6.204   4.927  18.689  0.00  0.00    +0.000 C 
ATOM     13  S   UNL     1       5.450   3.350  13.486  0.00  0.00    +0.000 S 
ATOM     14  H   UNL     1       7.589   5.736  15.083  0.00  0.00    +0.000 HD
ENDROOT
BRANCH  12  15
ATOM     15  C   UNL     1       4.721   5.121  18.904  0.00  0.00    +0.000 A 
ATOM     16  C   UNL     1       3.923   6.223  18.648  0.00  0.00    +0.000 A 
ATOM     17  C   UNL     1       2.563   6.012  19.013  0.00  0.00    +0.000 A 
ATOM     18  C   UNL     1       2.361   4.757  19.539  0.00  0.00    +0.000 A 
ATOM     19  S   UNL     1       3.802   3.841  19.592  0.00  0.00    +0.000 S 
ENDBRANCH  12  15
BRANCH   1  21
ATOM     20  C   UNL     1       6.213   1.058  11.049  0.00  0.00    +0.000 C 
ATOM     21  O   UNL     1       5.627   2.353  11.029  0.00  0.00    +0.000 OA
ENDBRANCH   1  21
TORSDOF 2
ENDMDL
MODEL 3
REMARK VINA RESULT:      -6.0      5.332      7.157
REMARK  Name = 
REMARK  3 active torsions:
REMARK  status: ('A' for Active; 'I' for Inactive)
REMARK    1  A    between atoms: C_1  and  O_2
REMARK    2  A    between atoms: O_2  and  C_3
REMARK    3  A    between atoms: C_14  and  C_15
REMARK                            x       y       z     vdW  Elec       q    Type
REMARK                         _______ _______ _______ _____ _____    ______ ____
ROOT
ATOM      1  C   UNL     1       5.197   4.937  17.443  0.00  0.00    +0.000 A 
ATOM      2  N   UNL     1       4.957   4.220  18.522  0.00  0.00    +0.000 NA
ATOM      3  N   UNL     1       4.133   4.889  19.408  0.00  0.00    +0.000 NA
ATOM      4  C   UNL     1       3.751   6.057  18.938  0.00  0.00    +0.000 A 
ATOM      5  N   UNL     1       2.898   6.884  19.634  0.00  0.00    +0.000 N 
ATOM      6  C   UNL     1       2.177   7.917  19.095  0.00  0.00    +0.000 C 
ATOM      7  O   UNL     1       2.192   8.230  17.907  0.00  0.00    +0.000 OA
ATOM      8  N   UNL     1       1.374   8.602  19.988  0.00  0.00    +0.000 N 
ATOM      9  C   UNL     1       1.168   8.381  21.411  0.00  0.00    +0.000 C 
ATOM     10  C   UNL     1      -0.286   8.764  21.623  0.00  0.00    +0.000 C 
ATOM     11  C   UNL     1      -0.513   9.908  20.642  0.00  0.00    +0.000 C 
ATOM     12  C   UNL     1       0.489   9.662  19.500  0.00  0.00    +0.000 C 
ATOM     13  S   UNL     1       4.458   6.477  17.445  0.00  0.00    +0.000 S 
ATOM     14  H   UNL     1       2.601   6.485  20.507  0.00  0.00    +0.000 HD
ENDROOT
BRANCH  12  15
ATOM     15  C   UNL     1       1.265  10.923  19.194  0.00  0.00    +0.000 A 
ATOM     16  C   UNL     1       1.963  11.280  18.053  0.00  0.00    +0.000 A 
ATOM     17  C   UNL     1       2.582  12.558  18.168  0.00  0.00    +0.000 A 
ATOM     18  C   UNL     1       2.343  13.137  19.393  0.00  0.00    +0.000 A 
ATOM     19  S   UNL     1       1.377  12.147  20.395  0.00  0.00    +0.000 S 
ENDBRANCH  12  15
BRANCH   1  21
ATOM     20  C   UNL     1       5.504   4.973  15.143  0.00  0.00    +0.000 C 
ATOM     21  O   UNL     1       5.947   4.529  16.419  0.00  0.00    +0.000 OA
ENDBRANCH   1  21
TORSDOF 2
ENDMDL
MODEL 4
REMARK VINA RESULT:      -6.0      6.543      8.071
REMARK  Name = 
REMARK  3 active torsions:
REMARK  status: ('A' for Active; 'I' for Inactive)
REMARK    1  A    between atoms: C_1  and  O_2
REMARK    2  A    between atoms: O_2  and  C_3
REMARK    3  A    between atoms: C_14  and  C_15
REMARK                            x       y       z     vdW  Elec       q    Type
REMARK                         _______ _______ _______ _____ _____    ______ ____
ROOT
ATOM      1  C   UNL     1       3.190   5.480  18.266  0.00  0.00    +0.000 A 
ATOM      2  N   UNL     1       3.023   4.848  19.409  0.00  0.00    +0.000 NA
ATOM      3  N   UNL     1       2.483   5.675  20.377  0.00  0.00    +0.000 NA
ATOM      4  C   UNL     1       2.223   6.877  19.907  0.00  0.00    +0.000 A 
ATOM      5  N   UNL     1       1.648   7.858  20.683  0.00  0.00    +0.000 N 
ATOM      6  C   UNL     1       1.025   8.983  20.208  0.00  0.00    +0.000 C 
ATOM      7  O   UNL     1       0.889   9.252  19.017  0.00  0.00    +0.000 OA
ATOM      8  N   UNL     1       0.509   9.822  21.178  0.00  0.00    +0.000 N 
ATOM      9  C   UNL     1       0.514   9.683  22.625  0.00  0.00    +0.000 C 
ATOM     10  C   UNL     1      -0.800  10.316  23.049  0.00  0.00    +0.000 C 
ATOM     11  C   UNL     1      -1.000  11.451  22.051  0.00  0.00    +0.000 C 
ATOM     12  C   UNL     1      -0.261  11.003  20.779  0.00  0.00    +0.000 C 
ATOM     13  S   UNL     1       2.725   7.123  18.297  0.00  0.00    +0.000 S 
ATOM     14  H   UNL     1       1.443   7.543  21.614  0.00  0.00    +0.000 HD
ENDROOT
BRANCH  12  15
ATOM     15  C   UNL     1       0.648  12.102  20.277  0.00  0.00    +0.000 A 
ATOM     16  C   UNL     1       1.742  12.695  20.884  0.00  0.00    +0.000 A 
ATOM     17  C   UNL     1       2.324  13.719  20.083  0.00  0.00    +0.000 A 
ATOM     18  C   UNL     1       1.658  13.880  18.891  0.00  0.00    +0.000 A 
ATOM     19  S   UNL     1       0.340  12.804  18.739  0.00  0.00    +0.000 S 
ENDBRANCH  12  15
BRANCH   1  21
ATOM     20  C   UNL     1       3.918   3.521  17.256  0.00  0.00    +0.000 C 
ATOM     21  O   UNL     1       3.678   4.919  17.159  0.00  0.00    +0.000 OA
ENDBRANCH   1  21
TORSDOF 2
ENDMDL
MODEL 5
REMARK VINA RESULT:      -5.9      9.398     10.840
REMARK  Name = 
REMARK  3 active torsions:
REMARK  status: ('A' for Active; 'I' for Inactive)
REMARK    1  A    between atoms: C_1  and  O_2
REMARK    2  A    between atoms: O_2  and  C_3
REMARK    3  A    between atoms: C_14  and  C_15
REMARK                            x       y       z     vdW  Elec       q    Type
REMARK                         _______ _______ _______ _____ _____    ______ ____
ROOT
ATOM      1  C   UNL     1       3.222  16.006  18.493  0.00  0.00    +0.000 A 
ATOM      2  N   UNL     1       3.714  17.219  18.632  0.00  0.00    +0.000 NA
ATOM      3  N   UNL     1       5.096  17.208  18.688  0.00  0.00    +0.000 NA
ATOM      4  C   UNL     1       5.584  15.995  18.542  0.00  0.00    +0.000 A 
ATOM      5  N   UNL     1       6.938  15.746  18.528  0.00  0.00    +0.000 N 
ATOM      6  C   UNL     1       7.533  14.614  18.036  0.00  0.00    +0.000 C 
ATOM      7  O   UNL     1       6.926  13.675  17.527  0.00  0.00    +0.000 OA
ATOM      8  N   UNL     1       8.913  14.593  18.117  0.00  0.00    +0.000 N 
ATOM      9  C   UNL     1       9.829  15.597  18.633  0.00  0.00    +0.000 C 
ATOM     10  C   UNL     1      11.053  15.453  17.746  0.00  0.00    +0.000 C 
ATOM     11  C   UNL     1      11.112  13.960  17.441  0.00  0.00    +0.000 C 
ATOM     12  C   UNL     1       9.656  13.473  17.533  0.00  0.00    +0.000 C 
ATOM     13  S   UNL     1       4.402  14.771  18.446  0.00  0.00    +0.000 S 
ATOM     14  H   UNL     1       7.484  16.583  18.623  0.00  0.00    +0.000 HD
ENDROOT
BRANCH  12  15
ATOM     15  C   UNL     1       9.561  12.242  18.405  0.00  0.00    +0.000 A 
ATOM     16  C   UNL     1       9.212  10.944  18.073  0.00  0.00    +0.000 A 
ATOM     17  C   UNL     1       9.223  10.069  19.196  0.00  0.00    +0.000 A 
ATOM     18  C   UNL     1       9.577  10.724  20.354  0.00  0.00    +0.000 A 
ATOM     19  S   UNL     1       9.893  12.381  20.085  0.00  0.00    +0.000 S 
ENDBRANCH  12  15
BRANCH   1  21
ATOM     20  C   UNL     1       1.541  14.467  18.932  0.00  0.00    +0.000 C 
ATOM     21  O   UNL     1       1.922  15.727  18.396  0.00  0.00    +0.000 OA
ENDBRANCH   1  21
TORSDOF 2
ENDMDL
MODEL 6
REMARK VINA RESULT:      -5.9      5.996      7.513
REMARK  Name = 
REMARK  3 active torsions:
REMARK  status: ('A' for Active; 'I' for Inactive)
REMARK    1  A    between atoms: C_1  and  O_2
REMARK    2  A    between atoms: O_2  and  C_3
REMARK    3  A    between atoms: C_14  and  C_15
REMARK                            x       y       z     vdW  Elec       q    Type
REMARK                         _______ _______ _______ _____ _____    ______ ____
ROOT
ATOM      1  C   UNL     1       3.550   4.835  18.129  0.00  0.00    +0.000 A 
ATOM      2  N   UNL     1       3.414   4.276  19.313  0.00  0.00    +0.000 NA
ATOM      3  N   UNL     1       2.910   5.165  20.244  0.00  0.00    +0.000 NA
ATOM      4  C   UNL     1       2.646   6.339  19.711  0.00  0.00    +0.000 A 
ATOM      5  N   UNL     1       2.103   7.371  20.442  0.00  0.00    +0.000 N 
ATOM      6  C   UNL     1       1.477   8.472  19.919  0.00  0.00    +0.000 C 
ATOM      7  O   UNL     1       1.306   8.669  18.718  0.00  0.00    +0.000 OA
ATOM      8  N   UNL     1       0.998   9.373  20.850  0.00  0.00    +0.000 N 
ATOM      9  C   UNL     1       1.046   9.323  22.303  0.00  0.00    +0.000 C 
ATOM     10  C   UNL     1      -0.249   9.994  22.726  0.00  0.00    +0.000 C 
ATOM     11  C   UNL     1      -0.469  11.068  21.668  0.00  0.00    +0.000 C 
ATOM     12  C   UNL     1       0.226  10.536  20.403  0.00  0.00    +0.000 C 
ATOM     13  S   UNL     1       3.101   6.482  18.074  0.00  0.00    +0.000 S 
ATOM     14  H   UNL     1       1.925   7.115  21.396  0.00  0.00    +0.000 HD
ENDROOT
BRANCH  12  15
ATOM     15  C   UNL     1       1.128  11.593  19.809  0.00  0.00    +0.000 A 
ATOM     16  C   UNL     1       1.663  11.689  18.535  0.00  0.00    +0.000 A 
ATOM     17  C   UNL     1       2.490  12.838  18.373  0.00  0.00    +0.000 A 
ATOM     18  C   UNL     1       2.565  13.583  19.527  0.00  0.00    +0.000 A 
ATOM     19  S   UNL     1       1.646  12.902  20.795  0.00  0.00    +0.000 S 
ENDBRANCH  12  15
BRANCH   1  21
ATOM     20  C   UNL     1       5.287   4.614  16.605  0.00  0.00    +0.000 C 
ATOM     21  O   UNL     1       3.999   4.203  17.044  0.00  0.00    +0.000 OA
ENDBRANCH   1  21
TORSDOF 2
ENDMDL
MODEL 7
REMARK VINA RESULT:      -5.9      9.628     11.211
REMARK  Name = 
REMARK  3 active torsions:
REMARK  status: ('A' for Active; 'I' for Inactive)
REMARK    1  A    between atoms: C_1  and  O_2
REMARK    2  A    between atoms: O_2  and  C_3
REMARK    3  A    between atoms: C_14  and  C_15
REMARK                            x       y       z     vdW  Elec       q    Type
REMARK                         _______ _______ _______ _____ _____    ______ ____
ROOT
ATOM      1  C   UNL     1      -3.242  10.550  15.280  0.00  0.00    +0.000 A 
ATOM      2  N   UNL     1      -4.360  11.227  15.439  0.00  0.00    +0.000 NA
ATOM      3  N   UNL     1      -4.476  11.731  16.721  0.00  0.00    +0.000 NA
ATOM      4  C   UNL     1      -3.420  11.452  17.456  0.00  0.00    +0.000 A 
ATOM      5  N   UNL     1      -3.298  11.883  18.758  0.00  0.00    +0.000 N 
ATOM      6  C   UNL     1      -2.127  11.956  19.464  0.00  0.00    +0.000 C 
ATOM      7  O   UNL     1      -1.024  11.655  19.014  0.00  0.00    +0.000 OA
ATOM      8  N   UNL     1      -2.248  12.434  20.755  0.00  0.00    +0.000 N 
ATOM      9  C   UNL     1      -3.430  12.886  21.472  0.00  0.00    +0.000 C 
ATOM     10  C   UNL     1      -2.903  13.996  22.365  0.00  0.00    +0.000 C 
ATOM     11  C   UNL     1      -1.499  13.534  22.736  0.00  0.00    +0.000 C 
ATOM     12  C   UNL     1      -1.046  12.644  21.566  0.00  0.00    +0.000 C 
ATOM     13  S   UNL     1      -2.270  10.461  16.682  0.00  0.00    +0.000 S 
ATOM     14  H   UNL     1      -4.084  12.434  19.056  0.00  0.00    +0.000 HD
ENDROOT
BRANCH  12  15
ATOM     15  C   UNL     1      -0.498  11.332  22.078  0.00  0.00    +0.000 A 
ATOM     16  C   UNL     1      -0.939  10.530  23.118  0.00  0.00    +0.000 A 
ATOM     17  C   UNL     1      -0.130   9.372  23.298  0.00  0.00    +0.000 A 
ATOM     18  C   UNL     1       0.906   9.323  22.394  0.00  0.00    +0.000 A 
ATOM     19  S   UNL     1       0.902  10.664  21.337  0.00  0.00    +0.000 S 
ENDBRANCH  12  15
BRANCH   1  21
ATOM     20  C   UNL     1      -3.893   9.865  13.160  0.00  0.00    +0.000 C 
ATOM     21  O   UNL     1      -2.867   9.971  14.138  0.00  0.00    +0.000 OA
ENDBRANCH   1  21
TORSDOF 2
ENDMDL
MODEL 8
REMARK VINA RESULT:      -5.7     10.888     11.969
REMARK  Name = 
REMARK  3 active torsions:
REMARK  status: ('A' for Active; 'I' for Inactive)
REMARK    1  A    between atoms: C_1  and  O_2
REMARK    2  A    between atoms: O_2  and  C_3
REMARK    3  A    between atoms: C_14  and  C_15
REMARK                            x       y       z     vdW  Elec       q    Type
REMARK                         _______ _______ _______ _____ _____    ______ ____
ROOT
ATOM      1  C   UNL     1       4.057  15.944  18.904  0.00  0.00    +0.000 A 
ATOM      2  N   UNL     1       4.241  17.244  19.009  0.00  0.00    +0.000 NA
ATOM      3  N   UNL     1       5.582  17.578  18.954  0.00  0.00    +0.000 NA
ATOM      4  C   UNL     1       6.343  16.522  18.763  0.00  0.00    +0.000 A 
ATOM      5  N   UNL     1       7.711  16.617  18.640  0.00  0.00    +0.000 N 
ATOM      6  C   UNL     1       8.529  15.661  18.097  0.00  0.00    +0.000 C 
ATOM      7  O   UNL     1       8.136  14.593  17.633  0.00  0.00    +0.000 OA
ATOM      8  N   UNL     1       9.872  15.985  18.067  0.00  0.00    +0.000 N 
ATOM      9  C   UNL     1      10.547  17.194  18.512  0.00  0.00    +0.000 C 
ATOM     10  C   UNL     1      11.694  17.344  17.528  0.00  0.00    +0.000 C 
ATOM     11  C   UNL     1      12.099  15.909  17.214  0.00  0.00    +0.000 C 
ATOM     12  C   UNL     1      10.822  15.076  17.420  0.00  0.00    +0.000 C 
ATOM     13  S   UNL     1       5.499  15.041  18.757  0.00  0.00    +0.000 S 
ATOM     14  H   UNL     1       8.037  17.565  18.694  0.00  0.00    +0.000 HD
ENDROOT
BRANCH  12  15
ATOM     15  C   UNL     1      11.106  13.874  18.291  0.00  0.00    +0.000 A 
ATOM     16  C   UNL     1      11.385  13.806  19.645  0.00  0.00    +0.000 A 
ATOM     17  C   UNL     1      11.617  12.473  20.090  0.00  0.00    +0.000 A 
ATOM     18  C   UNL     1      11.512  11.562  19.064  0.00  0.00    +0.000 A 
ATOM     19  S   UNL     1      11.136  12.312  17.576  0.00  0.00    +0.000 S 
ENDBRANCH  12  15
BRANCH   1  21
ATOM     20  C   UNL     1       1.772  16.201  18.592  0.00  0.00    +0.000 C 
ATOM     21  O   UNL     1       2.863  15.349  18.911  0.00  0.00    +0.000 OA
ENDBRANCH   1  21
TORSDOF 2
ENDMDL
MODEL 9
REMARK VINA RESULT:      -5.6      6.283      7.662
REMARK  Name = 
REMARK  3 active torsions:
REMARK  status: ('A' for Active; 'I' for Inactive)
REMARK    1  A    between atoms: C_1  and  O_2
REMARK    2  A    between atoms: O_2  and  C_3
REMARK    3  A    between atoms: C_14  and  C_15
REMARK                            x       y       z     vdW  Elec       q    Type
REMARK                         _______ _______ _______ _____ _____    ______ ____
ROOT
ATOM      1  C   UNL     1       3.962   5.675  17.531  0.00  0.00    +0.000 A 
ATOM      2  N   UNL     1       3.261   5.034  18.442  0.00  0.00    +0.000 NA
ATOM      3  N   UNL     1       2.468   5.896  19.179  0.00  0.00    +0.000 NA
ATOM      4  C   UNL     1       2.572   7.139  18.759  0.00  0.00    +0.000 A 
ATOM      5  N   UNL     1       1.847   8.165  19.320  0.00  0.00    +0.000 N 
ATOM      6  C   UNL     1       1.617   9.385  18.741  0.00  0.00    +0.000 C 
ATOM      7  O   UNL     1       2.022   9.714  17.628  0.00  0.00    +0.000 OA
ATOM      8  N   UNL     1       0.847  10.256  19.490  0.00  0.00    +0.000 N 
ATOM      9  C   UNL     1       0.233  10.066  20.794  0.00  0.00    +0.000 C 
ATOM     10  C   UNL     1      -1.053  10.869  20.703  0.00  0.00    +0.000 C 
ATOM     11  C   UNL     1      -0.683  12.056  19.821  0.00  0.00    +0.000 C 
ATOM     12  C   UNL     1       0.459  11.550  18.924  0.00  0.00    +0.000 C 
ATOM     13  S   UNL     1       3.724   7.367  17.523  0.00  0.00    +0.000 S 
ATOM     14  H   UNL     1       1.237   7.850  20.053  0.00  0.00    +0.000 HD
ENDROOT
BRANCH  12  15
ATOM     15  C   UNL     1       1.617  12.521  18.941  0.00  0.00    +0.000 A 
ATOM     16  C   UNL     1       2.457  12.920  17.914  0.00  0.00    +0.000 A 
ATOM     17  C   UNL     1       3.449  13.846  18.346  0.00  0.00    +0.000 A 
ATOM     18  C   UNL     1       3.341  14.126  19.688  0.00  0.00    +0.000 A 
ATOM     19  S   UNL     1       2.052  13.278  20.421  0.00  0.00    +0.000 S 
ENDBRANCH  12  15
BRANCH   1  21
ATOM     20  C   UNL     1       5.364   5.960  15.704  0.00  0.00    +0.000 C 
ATOM     21  O   UNL     1       4.796   5.088  16.671  0.00  0.00    +0.000 OA
ENDBRANCH   1  21
TORSDOF 2
ENDMDL
