MODEL 1
REMARK VINA RESULT:      -7.7      0.000      0.000
REMARK  Name = 
REMARK  4 active torsions:
REMARK  status: ('A' for Active; 'I' for Inactive)
REMARK    1  A    between atoms: C_1  and  C_2
REMARK    2  A    between atoms: C_2  and  C_3
REMARK    3  A    between atoms: C_8  and  N_9
REMARK    4  A    between atoms: C_10  and  C_12
REMARK                            x       y       z     vdW  Elec       q    Type
REMARK                         _______ _______ _______ _____ _____    ______ ____
ROOT
ATOM      1  C   UNL     1      -6.770  13.025  19.515  0.00  0.00    +0.000 C 
ATOM      2  C   UNL     1      -7.076  14.182  18.570  0.00  0.00    +0.000 A 
ATOM      3  C   UNL     1      -7.841  13.984  17.410  0.00  0.00    +0.000 A 
ATOM      4  C   UNL     1      -7.916  14.978  16.434  0.00  0.00    +0.000 A 
ATOM      5  C   UNL     1      -7.200  16.163  16.594  0.00  0.00    +0.000 A 
ATOM      6  C   UNL     1      -6.513  16.404  17.783  0.00  0.00    +0.000 A 
ATOM      7  C   UNL     1      -6.510  15.440  18.798  0.00  0.00    +0.000 A 
ATOM      8  C   UNL     1      -6.098  15.830  20.177  0.00  0.00    +0.000 C 
ATOM      9  O   UNL     1      -5.665  16.957  20.389  0.00  0.00    +0.000 OA
ATOM     10  N   UNL     1      -6.417  14.933  21.169  0.00  0.00    +0.000 N 
ATOM     11  C   UNL     1      -6.542  15.369  22.569  0.00  0.00    +0.000 C 
ATOM     12  C   UNL     1      -7.237  14.272  23.429  0.00  0.00    +0.000 C 
ATOM     13  C   UNL     1      -6.288  13.062  23.395  0.00  0.00    +0.000 A 
ATOM     14  C   UNL     1      -5.800  12.616  24.626  0.00  0.00    +0.000 A 
ATOM     15  C   UNL     1      -4.442  12.396  24.724  0.00  0.00    +0.000 A 
ATOM     16  C   UNL     1      -3.645  12.543  23.583  0.00  0.00    +0.000 A 
ATOM     17  C   UNL     1      -4.214  12.742  22.289  0.00  0.00    +0.000 A 
ATOM     18  C   UNL     1      -5.593  12.898  22.153  0.00  0.00    +0.000 A 
ATOM     19  C   UNL     1      -6.397  13.483  20.957  0.00  0.00    +0.000 C 
ENDROOT
BRANCH   1  21
ATOM     20  N   UNL     1      -4.662  12.453  18.371  0.00  0.00    +0.000 N 
ATOM     21  C   UNL     1      -5.867  11.984  18.888  0.00  0.00    +0.000 C 
ATOM     22  O   UNL     1      -6.259  10.828  18.792  0.00  0.00    +0.000 OA
ATOM     23  H   UNL     1      -4.618  13.423  18.082  0.00  0.00    +0.000 HD
BRANCH  20  29
ATOM     24  C   UNL     1      -2.382  11.522  18.505  0.00  0.00    +0.000 A 
ATOM     25  C   UNL     1      -1.443  10.621  17.970  0.00  0.00    +0.000 A 
ATOM     26  C   UNL     1      -1.745   9.816  16.867  0.00  0.00    +0.000 A 
ATOM     27  C   UNL     1      -2.994   9.902  16.274  0.00  0.00    +0.000 A 
ATOM     28  C   UNL     1      -3.931  10.790  16.768  0.00  0.00    +0.000 A 
ATOM     29  C   UNL     1      -3.649  11.602  17.882  0.00  0.00    +0.000 A 
BRANCH  24  31
ATOM     30  C   UNL     1      -0.916  13.434  19.295  0.00  0.00    +0.000 C 
ATOM     31  C   UNL     1      -1.937  12.369  19.680  0.00  0.00    +0.000 C 
ENDBRANCH  24  31
ENDBRANCH  20  29
ENDBRANCH   1  21
TORSDOF 3
ENDMDL
MODEL 2
REMARK VINA RESULT:      -7.6      0.735      1.727
REMARK  Name = 
REMARK  4 active torsions:
REMARK  status: ('A' for Active; 'I' for Inactive)
REMARK    1  A    between atoms: C_1  and  C_2
REMARK    2  A    between atoms: C_2  and  C_3
REMARK    3  A    between atoms: C_8  and  N_9
REMARK    4  A    between atoms: C_10  and  C_12
REMARK                            x       y       z     vdW  Elec       q    Type
REMARK                         _______ _______ _______ _____ _____    ______ ____
ROOT
ATOM      1  C   UNL     1      -6.499  12.700  19.581  0.00  0.00    +0.000 C 
ATOM      2  C   UNL     1      -6.915  13.783  18.591  0.00  0.00    +0.000 A 
ATOM      3  C   UNL     1      -7.637  13.461  17.431  0.00  0.00    +0.000 A 
ATOM      4  C   UNL     1      -7.805  14.407  16.418  0.00  0.00    +0.000 A 
ATOM      5  C   UNL     1      -7.225  15.667  16.544  0.00  0.00    +0.000 A 
ATOM      6  C   UNL     1      -6.586  16.024  17.730  0.00  0.00    +0.000 A 
ATOM      7  C   UNL     1      -6.493  15.102  18.779  0.00  0.00    +0.000 A 
ATOM      8  C   UNL     1      -6.146  15.583  20.148  0.00  0.00    +0.000 C 
ATOM      9  O   UNL     1      -5.842  16.757  20.324  0.00  0.00    +0.000 OA
ATOM     10  N   UNL     1      -6.381  14.692  21.169  0.00  0.00    +0.000 N 
ATOM     11  C   UNL     1      -6.573  15.160  22.550  0.00  0.00    +0.000 C 
ATOM     12  C   UNL     1      -7.157  14.025  23.441  0.00  0.00    +0.000 C 
ATOM     13  C   UNL     1      -6.082  12.924  23.462  0.00  0.00    +0.000 A 
ATOM     14  C   UNL     1      -5.566  12.578  24.714  0.00  0.00    +0.000 A 
ATOM     15  C   UNL     1      -4.194  12.511  24.835  0.00  0.00    +0.000 A 
ATOM     16  C   UNL     1      -3.401  12.704  23.697  0.00  0.00    +0.000 A 
ATOM     17  C   UNL     1      -3.969  12.795  22.392  0.00  0.00    +0.000 A 
ATOM     18  C   UNL     1      -5.354  12.794  22.235  0.00  0.00    +0.000 A 
ATOM     19  C   UNL     1      -6.200  13.245  21.010  0.00  0.00    +0.000 C 
ENDROOT
BRANCH   1  21
ATOM     20  N   UNL     1      -4.197  12.253  18.821  0.00  0.00    +0.000 N 
ATOM     21  C   UNL     1      -5.479  11.743  19.002  0.00  0.00    +0.000 C 
ATOM     22  O   UNL     1      -5.835  10.624  18.653  0.00  0.00    +0.000 OA
ATOM     23  H   UNL     1      -4.100  13.254  18.698  0.00  0.00    +0.000 HD
BRANCH  20  29
ATOM     24  C   UNL     1      -2.958  10.995  17.099  0.00  0.00    +0.000 A 
ATOM     25  C   UNL     1      -1.813  10.239  16.786  0.00  0.00    +0.000 A 
ATOM     26  C   UNL     1      -0.833   9.962  17.744  0.00  0.00    +0.000 A 
ATOM     27  C   UNL     1      -0.983  10.433  19.039  0.00  0.00    +0.000 A 
ATOM     28  C   UNL     1      -2.106  11.164  19.378  0.00  0.00    +0.000 A 
ATOM     29  C   UNL     1      -3.098  11.460  18.426  0.00  0.00    +0.000 A 
BRANCH  24  31
ATOM     30  C   UNL     1      -3.763  10.272  14.805  0.00  0.00    +0.000 C 
ATOM     31  C   UNL     1      -3.972  11.205  15.992  0.00  0.00    +0.000 C 
ENDBRANCH  24  31
ENDBRANCH  20  29
ENDBRANCH   1  21
TORSDOF 3
ENDMDL
MODEL 3
REMARK VINA RESULT:      -7.3      3.216      5.755
REMARK  Name = 
REMARK  4 active torsions:
REMARK  status: ('A' for Active; 'I' for Inactive)
REMARK    1  A    between atoms: C_1  and  C_2
REMARK    2  A    between atoms: C_2  and  C_3
REMARK    3  A    between atoms: C_8  and  N_9
REMARK    4  A    between atoms: C_10  and  C_12
REMARK                            x       y       z     vdW  Elec       q    Type
REMARK                         _______ _______ _______ _____ _____    ______ ____
ROOT
ATOM      1  C   UNL     1      -0.904  12.256  20.916  0.00  0.00    +0.000 C 
ATOM      2  C   UNL     1      -1.473  11.509  19.714  0.00  0.00    +0.000 A 
ATOM      3  C   UNL     1      -0.729  10.511  19.066  0.00  0.00    +0.000 A 
ATOM      4  C   UNL     1      -1.149  10.004  17.835  0.00  0.00    +0.000 A 
ATOM      5  C   UNL     1      -2.294  10.514  17.229  0.00  0.00    +0.000 A 
ATOM      6  C   UNL     1      -3.087  11.438  17.908  0.00  0.00    +0.000 A 
ATOM      7  C   UNL     1      -2.710  11.882  19.181  0.00  0.00    +0.000 A 
ATOM      8  C   UNL     1      -3.714  12.570  20.044  0.00  0.00    +0.000 C 
ATOM      9  O   UNL     1      -4.824  12.836  19.596  0.00  0.00    +0.000 OA
ATOM     10  N   UNL     1      -3.375  12.690  21.370  0.00  0.00    +0.000 N 
ATOM     11  C   UNL     1      -4.410  12.867  22.401  0.00  0.00    +0.000 C 
ATOM     12  C   UNL     1      -3.820  12.632  23.822  0.00  0.00    +0.000 C 
ATOM     13  C   UNL     1      -2.768  13.736  24.018  0.00  0.00    +0.000 A 
ATOM     14  C   UNL     1      -2.967  14.605  25.094  0.00  0.00    +0.000 A 
ATOM     15  C   UNL     1      -2.865  15.957  24.841  0.00  0.00    +0.000 A 
ATOM     16  C   UNL     1      -2.488  16.383  23.561  0.00  0.00    +0.000 A 
ATOM     17  C   UNL     1      -2.039  15.464  22.566  0.00  0.00    +0.000 A 
ATOM     18  C   UNL     1      -2.066  14.095  22.821  0.00  0.00    +0.000 A 
ATOM     19  C   UNL     1      -1.995  12.911  21.815  0.00  0.00    +0.000 C 
ENDROOT
BRANCH   1  21
ATOM     20  N   UNL     1       0.351  13.534  19.222  0.00  0.00    +0.000 N 
ATOM     21  C   UNL     1       0.278  13.129  20.552  0.00  0.00    +0.000 C 
ATOM     22  O   UNL     1       1.133  13.365  21.396  0.00  0.00    +0.000 OA
ATOM     23  H   UNL     1      -0.102  12.953  18.527  0.00  0.00    +0.000 HD
BRANCH  20  29
ATOM     24  C   UNL     1       1.021  15.845  18.679  0.00  0.00    +0.000 A 
ATOM     25  C   UNL     1       2.042  16.700  18.226  0.00  0.00    +0.000 A 
ATOM     26  C   UNL     1       3.303  16.212  17.866  0.00  0.00    +0.000 A 
ATOM     27  C   UNL     1       3.564  14.854  17.949  0.00  0.00    +0.000 A 
ATOM     28  C   UNL     1       2.574  13.988  18.375  0.00  0.00    +0.000 A 
ATOM     29  C   UNL     1       1.303  14.461  18.748  0.00  0.00    +0.000 A 
BRANCH  24  31
ATOM     30  C   UNL     1      -0.758  17.510  17.978  0.00  0.00    +0.000 C 
ATOM     31  C   UNL     1      -0.316  16.476  19.008  0.00  0.00    +0.000 C 
ENDBRANCH  24  31
ENDBRANCH  20  29
ENDBRANCH   1  21
TORSDOF 3
ENDMDL
MODEL 4
REMARK VINA RESULT:      -7.2      2.451      5.792
REMARK  Name = 
REMARK  4 active torsions:
REMARK  status: ('A' for Active; 'I' for Inactive)
REMARK    1  A    between atoms: C_1  and  C_2
REMARK    2  A    between atoms: C_2  and  C_3
REMARK    3  A    between atoms: C_8  and  N_9
REMARK    4  A    between atoms: C_10  and  C_12
REMARK                            x       y       z     vdW  Elec       q    Type
REMARK                         _______ _______ _______ _____ _____    ______ ____
ROOT
ATOM      1  C   UNL     1      -4.739  13.477  20.576  0.00  0.00    +0.000 C 
ATOM      2  C   UNL     1      -5.830  13.498  21.641  0.00  0.00    +0.000 A 
ATOM      3  C   UNL     1      -5.998  14.610  22.481  0.00  0.00    +0.000 A 
ATOM      4  C   UNL     1      -6.829  14.532  23.600  0.00  0.00    +0.000 A 
ATOM      5  C   UNL     1      -7.469  13.333  23.905  0.00  0.00    +0.000 A 
ATOM      6  C   UNL     1      -7.380  12.254  23.028  0.00  0.00    +0.000 A 
ATOM      7  C   UNL     1      -6.615  12.362  21.860  0.00  0.00    +0.000 A 
ATOM      8  C   UNL     1      -6.808  11.370  20.764  0.00  0.00    +0.000 C 
ATOM      9  O   UNL     1      -7.550  10.409  20.933  0.00  0.00    +0.000 OA
ATOM     10  N   UNL     1      -6.268  11.715  19.547  0.00  0.00    +0.000 N 
ATOM     11  C   UNL     1      -6.781  11.128  18.300  0.00  0.00    +0.000 C 
ATOM     12  C   UNL     1      -6.261  11.917  17.063  0.00  0.00    +0.000 C 
ATOM     13  C   UNL     1      -4.733  11.738  17.074  0.00  0.00    +0.000 A 
ATOM     14  C   UNL     1      -4.167  11.133  15.949  0.00  0.00    +0.000 A 
ATOM     15  C   UNL     1      -3.273  10.105  16.168  0.00  0.00    +0.000 A 
ATOM     16  C   UNL     1      -2.917   9.782  17.483  0.00  0.00    +0.000 A 
ATOM     17  C   UNL     1      -3.313  10.592  18.589  0.00  0.00    +0.000 A 
ATOM     18  C   UNL     1      -4.160  11.680  18.386  0.00  0.00    +0.000 A 
ATOM     19  C   UNL     1      -5.013  12.463  19.425  0.00  0.00    +0.000 C 
ENDROOT
BRANCH   1  21
ATOM     20  N   UNL     1      -2.367  14.138  20.451  0.00  0.00    +0.000 N 
ATOM     21  C   UNL     1      -3.346  13.458  21.170  0.00  0.00    +0.000 C 
ATOM     22  O   UNL     1      -3.132  12.798  22.178  0.00  0.00    +0.000 OA
ATOM     23  H   UNL     1      -2.507  14.253  19.454  0.00  0.00    +0.000 HD
BRANCH  20  29
ATOM     24  C   UNL     1      -0.001  13.458  20.595  0.00  0.00    +0.000 A 
ATOM     25  C   UNL     1       1.282  13.753  21.090  0.00  0.00    +0.000 A 
ATOM     26  C   UNL     1       1.523  14.883  21.878  0.00  0.00    +0.000 A 
ATOM     27  C   UNL     1       0.478  15.739  22.191  0.00  0.00    +0.000 A 
ATOM     28  C   UNL     1      -0.796  15.465  21.731  0.00  0.00    +0.000 A 
ATOM     29  C   UNL     1      -1.056  14.338  20.931  0.00  0.00    +0.000 A 
BRANCH  24  31
ATOM     30  C   UNL     1      -0.290  10.939  20.642  0.00  0.00    +0.000 C 
ATOM     31  C   UNL     1      -0.154  12.189  19.781  0.00  0.00    +0.000 C 
ENDBRANCH  24  31
ENDBRANCH  20  29
ENDBRANCH   1  21
TORSDOF 3
ENDMDL
MODEL 5
REMARK VINA RESULT:      -7.2      3.236      5.737
REMARK  Name = 
REMARK  4 active torsions:
REMARK  status: ('A' for Active; 'I' for Inactive)
REMARK    1  A    between atoms: C_1  and  C_2
REMARK    2  A    between atoms: C_2  and  C_3
REMARK    3  A    between atoms: C_8  and  N_9
REMARK    4  A    between atoms: C_10  and  C_12
REMARK                            x       y       z     vdW  Elec       q    Type
REMARK                         _______ _______ _______ _____ _____    ______ ____
ROOT
ATOM      1  C   UNL     1      -1.122  12.268  19.700  0.00  0.00    +0.000 C 
ATOM      2  C   UNL     1      -1.991  11.432  18.766  0.00  0.00    +0.000 A 
ATOM      3  C   UNL     1      -1.424  10.457  17.932  0.00  0.00    +0.000 A 
ATOM      4  C   UNL     1      -2.180   9.869  16.917  0.00  0.00    +0.000 A 
ATOM      5  C   UNL     1      -3.496  10.275  16.708  0.00  0.00    +0.000 A 
ATOM      6  C   UNL     1      -4.093  11.176  17.588  0.00  0.00    +0.000 A 
ATOM      7  C   UNL     1      -3.359  11.700  18.659  0.00  0.00    +0.000 A 
ATOM      8  C   UNL     1      -4.078  12.359  19.787  0.00  0.00    +0.000 C 
ATOM      9  O   UNL     1      -5.290  12.532  19.721  0.00  0.00    +0.000 OA
ATOM     10  N   UNL     1      -3.337  12.561  20.928  0.00  0.00    +0.000 N 
ATOM     11  C   UNL     1      -3.992  12.715  22.236  0.00  0.00    +0.000 C 
ATOM     12  C   UNL     1      -2.956  12.584  23.391  0.00  0.00    +0.000 C 
ATOM     13  C   UNL     1      -1.985  13.762  23.209  0.00  0.00    +0.000 A 
ATOM     14  C   UNL     1      -1.890  14.664  24.272  0.00  0.00    +0.000 A 
ATOM     15  C   UNL     1      -1.979  16.007  23.971  0.00  0.00    +0.000 A 
ATOM     16  C   UNL     1      -2.071  16.398  22.629  0.00  0.00    +0.000 A 
ATOM     17  C   UNL     1      -1.901  15.467  21.562  0.00  0.00    +0.000 A 
ATOM     18  C   UNL     1      -1.739  14.111  21.841  0.00  0.00    +0.000 A 
ATOM     19  C   UNL     1      -1.909  12.890  20.892  0.00  0.00    +0.000 C 
ENDROOT
BRANCH   1  21
ATOM     20  N   UNL     1       0.889  13.694  19.675  0.00  0.00    +0.000 N 
ATOM     21  C   UNL     1      -0.192  13.199  18.951  0.00  0.00    +0.000 C 
ATOM     22  O   UNL     1      -0.469  13.531  17.806  0.00  0.00    +0.000 OA
ATOM     23  H   UNL     1       0.798  13.748  20.683  0.00  0.00    +0.000 HD
BRANCH  20  29
ATOM     24  C   UNL     1       1.846  15.866  19.006  0.00  0.00    +0.000 A 
ATOM     25  C   UNL     1       2.940  16.549  18.442  0.00  0.00    +0.000 A 
ATOM     26  C   UNL     1       4.076  15.869  17.992  0.00  0.00    +0.000 A 
ATOM     27  C   UNL     1       4.138  14.489  18.094  0.00  0.00    +0.000 A 
ATOM     28  C   UNL     1       3.072  13.791  18.629  0.00  0.00    +0.000 A 
ATOM     29  C   UNL     1       1.924  14.457  19.094  0.00  0.00    +0.000 A 
BRANCH  24  31
ATOM     30  C   UNL     1      -0.324  16.963  18.286  0.00  0.00    +0.000 C 
ATOM     31  C   UNL     1       0.653  16.699  19.427  0.00  0.00    +0.000 C 
ENDBRANCH  24  31
ENDBRANCH  20  29
ENDBRANCH   1  21
TORSDOF 3
ENDMDL
MODEL 6
REMARK VINA RESULT:      -7.1      2.359      4.948
REMARK  Name = 
REMARK  4 active torsions:
REMARK  status: ('A' for Active; 'I' for Inactive)
REMARK    1  A    between atoms: C_1  and  C_2
REMARK    2  A    between atoms: C_2  and  C_3
REMARK    3  A    between atoms: C_8  and  N_9
REMARK    4  A    between atoms: C_10  and  C_12
REMARK                            x       y       z     vdW  Elec       q    Type
REMARK                         _______ _______ _______ _____ _____    ______ ____
ROOT
ATOM      1  C   UNL     1      -3.142  11.967  19.677  0.00  0.00    +0.000 C 
ATOM      2  C   UNL     1      -3.117  11.236  18.339  0.00  0.00    +0.000 A 
ATOM      3  C   UNL     1      -2.152  10.253  18.070  0.00  0.00    +0.000 A 
ATOM      4  C   UNL     1      -1.982   9.764  16.774  0.00  0.00    +0.000 A 
ATOM      5  C   UNL     1      -2.753  10.277  15.733  0.00  0.00    +0.000 A 
ATOM      6  C   UNL     1      -3.774  11.186  16.006  0.00  0.00    +0.000 A 
ATOM      7  C   UNL     1      -4.000  11.611  17.321  0.00  0.00    +0.000 A 
ATOM      8  C   UNL     1      -5.289  12.278  17.664  0.00  0.00    +0.000 C 
ATOM      9  O   UNL     1      -6.092  12.546  16.778  0.00  0.00    +0.000 OA
ATOM     10  N   UNL     1      -5.568  12.379  19.006  0.00  0.00    +0.000 N 
ATOM     11  C   UNL     1      -6.952  12.532  19.480  0.00  0.00    +0.000 C 
ATOM     12  C   UNL     1      -7.042  12.278  21.013  0.00  0.00    +0.000 C 
ATOM     13  C   UNL     1      -6.196  13.385  21.665  0.00  0.00    +0.000 A 
ATOM     14  C   UNL     1      -6.858  14.235  22.554  0.00  0.00    +0.000 A 
ATOM     15  C   UNL     1      -6.672  15.592  22.388  0.00  0.00    +0.000 A 
ATOM     16  C   UNL     1      -5.777  16.041  21.409  0.00  0.00    +0.000 A 
ATOM     17  C   UNL     1      -4.926  15.141  20.700  0.00  0.00    +0.000 A 
ATOM     18  C   UNL     1      -5.045  13.767  20.901  0.00  0.00    +0.000 A 
ATOM     19  C   UNL     1      -4.526  12.600  20.014  0.00  0.00    +0.000 C 
ENDROOT
BRANCH   1  21
ATOM     20  N   UNL     1      -1.293  13.287  18.722  0.00  0.00    +0.000 N 
ATOM     21  C   UNL     1      -1.932  12.853  19.880  0.00  0.00    +0.000 C 
ATOM     22  O   UNL     1      -1.533  13.074  21.016  0.00  0.00    +0.000 OA
ATOM     23  H   UNL     1      -1.390  12.720  17.888  0.00  0.00    +0.000 HD
BRANCH  20  29
ATOM     24  C   UNL     1       1.112  13.827  18.646  0.00  0.00    +0.000 A 
ATOM     25  C   UNL     1       2.094  14.835  18.622  0.00  0.00    +0.000 A 
ATOM     26  C   UNL     1       1.755  16.191  18.662  0.00  0.00    +0.000 A 
ATOM     27  C   UNL     1       0.422  16.565  18.732  0.00  0.00    +0.000 A 
ATOM     28  C   UNL     1      -0.563  15.596  18.774  0.00  0.00    +0.000 A 
ATOM     29  C   UNL     1      -0.242  14.228  18.726  0.00  0.00    +0.000 A 
BRANCH  24  31
ATOM     30  C   UNL     1       1.514  11.722  20.002  0.00  0.00    +0.000 C 
ATOM     31  C   UNL     1       1.594  12.391  18.634  0.00  0.00    +0.000 C 
ENDBRANCH  24  31
ENDBRANCH  20  29
ENDBRANCH   1  21
TORSDOF 3
ENDMDL
MODEL 7
REMARK VINA RESULT:      -7.0      2.763      6.953
REMARK  Name = 
REMARK  4 active torsions:
REMARK  status: ('A' for Active; 'I' for Inactive)
REMARK    1  A    between atoms: C_1  and  C_2
REMARK    2  A    between atoms: C_2  and  C_3
REMARK    3  A    between atoms: C_8  and  N_9
REMARK    4  A    between atoms: C_10  and  C_12
REMARK                            x       y       z     vdW  Elec       q    Type
REMARK                         _______ _______ _______ _____ _____    ______ ____
ROOT
ATOM      1  C   UNL     1      -1.484  13.048  22.172  0.00  0.00    +0.000 C 
ATOM      2  C   UNL     1      -1.205  14.504  22.529  0.00  0.00    +0.000 A 
ATOM      3  C   UNL     1      -1.069  14.907  23.866  0.00  0.00    +0.000 A 
ATOM      4  C   UNL     1      -1.056  16.263  24.198  0.00  0.00    +0.000 A 
ATOM      5  C   UNL     1      -1.212  17.222  23.201  0.00  0.00    +0.000 A 
ATOM      6  C   UNL     1      -1.256  16.834  21.863  0.00  0.00    +0.000 A 
ATOM      7  C   UNL     1      -1.182  15.477  21.525  0.00  0.00    +0.000 A 
ATOM      8  C   UNL     1      -0.866  15.088  20.121  0.00  0.00    +0.000 C 
ATOM      9  O   UNL     1      -0.778  15.950  19.253  0.00  0.00    +0.000 OA
ATOM     10  N   UNL     1      -0.502  13.776  19.934  0.00  0.00    +0.000 N 
ATOM     11  C   UNL     1       0.298  13.372  18.767  0.00  0.00    +0.000 C 
ATOM     12  C   UNL     1       0.865  11.934  18.958  0.00  0.00    +0.000 C 
ATOM     13  C   UNL     1      -0.365  11.013  19.026  0.00  0.00    +0.000 A 
ATOM     14  C   UNL     1      -0.451  10.011  18.056  0.00  0.00    +0.000 A 
ATOM     15  C   UNL     1      -1.650   9.879  17.389  0.00  0.00    +0.000 A 
ATOM     16  C   UNL     1      -2.732  10.683  17.769  0.00  0.00    +0.000 A 
ATOM     17  C   UNL     1      -2.684  11.506  18.933  0.00  0.00    +0.000 A 
ATOM     18  C   UNL     1      -1.503  11.603  19.668  0.00  0.00    +0.000 A 
ATOM     19  C   UNL     1      -1.086  12.678  20.712  0.00  0.00    +0.000 C 
ENDROOT
BRANCH   1  21
ATOM     20  N   UNL     1      -3.928  13.362  22.214  0.00  0.00    +0.000 N 
ATOM     21  C   UNL     1      -2.850  12.587  22.632  0.00  0.00    +0.000 C 
ATOM     22  O   UNL     1      -2.937  11.632  23.394  0.00  0.00    +0.000 OA
ATOM     23  H   UNL     1      -3.753  14.335  21.995  0.00  0.00    +0.000 HD
BRANCH  20  29
ATOM     24  C   UNL     1      -6.100  12.544  21.380  0.00  0.00    +0.000 A 
ATOM     25  C   UNL     1      -7.419  12.168  21.696  0.00  0.00    +0.000 A 
ATOM     26  C   UNL     1      -7.903  12.223  23.006  0.00  0.00    +0.000 A 
ATOM     27  C   UNL     1      -7.076  12.662  24.028  0.00  0.00    +0.000 A 
ATOM     28  C   UNL     1      -5.781  13.053  23.744  0.00  0.00    +0.000 A 
ATOM     29  C   UNL     1      -5.274  12.997  22.433  0.00  0.00    +0.000 A 
BRANCH  24  31
ATOM     30  C   UNL     1      -6.881  12.368  18.973  0.00  0.00    +0.000 C 
ATOM     31  C   UNL     1      -5.692  12.478  19.922  0.00  0.00    +0.000 C 
ENDBRANCH  24  31
ENDBRANCH  20  29
ENDBRANCH   1  21
TORSDOF 3
ENDMDL
MODEL 8
REMARK VINA RESULT:      -7.0      2.544      5.625
REMARK  Name = 
REMARK  4 active torsions:
REMARK  status: ('A' for Active; 'I' for Inactive)
REMARK    1  A    between atoms: C_1  and  C_2
REMARK    2  A    between atoms: C_2  and  C_3
REMARK    3  A    between atoms: C_8  and  N_9
REMARK    4  A    between atoms: C_10  and  C_12
REMARK                            x       y       z     vdW  Elec       q    Type
REMARK                         _______ _______ _______ _____ _____    ______ ____
ROOT
ATOM      1  C   UNL     1      -2.202  12.871  20.603  0.00  0.00    +0.000 C 
ATOM      2  C   UNL     1      -1.985  11.758  19.584  0.00  0.00    +0.000 A 
ATOM      3  C   UNL     1      -0.820  10.976  19.606  0.00  0.00    +0.000 A 
ATOM      4  C   UNL     1      -0.517  10.129  18.539  0.00  0.00    +0.000 A 
ATOM      5  C   UNL     1      -1.358  10.083  17.430  0.00  0.00    +0.000 A 
ATOM      6  C   UNL     1      -2.561  10.786  17.440  0.00  0.00    +0.000 A 
ATOM      7  C   UNL     1      -2.905  11.569  18.548  0.00  0.00    +0.000 A 
ATOM      8  C   UNL     1      -4.318  12.016  18.719  0.00  0.00    +0.000 C 
ATOM      9  O   UNL     1      -5.140  11.790  17.839  0.00  0.00    +0.000 OA
ATOM     10  N   UNL     1      -4.643  12.499  19.964  0.00  0.00    +0.000 N 
ATOM     11  C   UNL     1      -6.037  12.499  20.434  0.00  0.00    +0.000 C 
ATOM     12  C   UNL     1      -6.103  12.761  21.967  0.00  0.00    +0.000 C 
ATOM     13  C   UNL     1      -5.540  14.178  22.167  0.00  0.00    +0.000 A 
ATOM     14  C   UNL     1      -6.394  15.112  22.758  0.00  0.00    +0.000 A 
ATOM     15  C   UNL     1      -6.510  16.340  22.141  0.00  0.00    +0.000 A 
ATOM     16  C   UNL     1      -5.715  16.617  21.022  0.00  0.00    +0.000 A 
ATOM     17  C   UNL     1      -4.669  15.739  20.608  0.00  0.00    +0.000 A 
ATOM     18  C   UNL     1      -4.485  14.521  21.260  0.00  0.00    +0.000 A 
ATOM     19  C   UNL     1      -3.699  13.266  20.784  0.00  0.00    +0.000 C 
ENDROOT
BRANCH   1  21
ATOM     20  N   UNL     1      -0.840  14.300  19.127  0.00  0.00    +0.000 N 
ATOM     21  C   UNL     1      -1.224  14.014  20.434  0.00  0.00    +0.000 C 
ATOM     22  O   UNL     1      -0.765  14.564  21.428  0.00  0.00    +0.000 OA
ATOM     23  H   UNL     1      -0.890  13.552  18.446  0.00  0.00    +0.000 HD
BRANCH  20  29
ATOM     24  C   UNL     1       1.363  15.349  18.767  0.00  0.00    +0.000 A 
ATOM     25  C   UNL     1       2.070  16.501  18.376  0.00  0.00    +0.000 A 
ATOM     26  C   UNL     1       1.410  17.676  18.001  0.00  0.00    +0.000 A 
ATOM     27  C   UNL     1       0.025  17.720  18.013  0.00  0.00    +0.000 A 
ATOM     28  C   UNL     1      -0.695  16.609  18.408  0.00  0.00    +0.000 A 
ATOM     29  C   UNL     1      -0.049  15.417  18.782  0.00  0.00    +0.000 A 
BRANCH  24  31
ATOM     30  C   UNL     1       2.288  13.086  18.096  0.00  0.00    +0.000 C 
ATOM     31  C   UNL     1       2.180  14.145  19.187  0.00  0.00    +0.000 C 
ENDBRANCH  24  31
ENDBRANCH  20  29
ENDBRANCH   1  21
TORSDOF 3
ENDMDL
MODEL 9
REMARK VINA RESULT:      -6.9      2.348      4.953
REMARK  Name = 
REMARK  4 active torsions:
REMARK  status: ('A' for Active; 'I' for Inactive)
REMARK    1  A    between atoms: C_1  and  C_2
REMARK    2  A    between atoms: C_2  and  C_3
REMARK    3  A    between atoms: C_8  and  N_9
REMARK    4  A    between atoms: C_10  and  C_12
REMARK                            x       y       z     vdW  Elec       q    Type
REMARK                         _______ _______ _______ _____ _____    ______ ____
ROOT
ATOM      1  C   UNL     1      -2.864  11.749  19.612  0.00  0.00    +0.000 C 
ATOM      2  C   UNL     1      -2.988  11.098  18.239  0.00  0.00    +0.000 A 
ATOM      3  C   UNL     1      -2.127  10.060  17.852  0.00  0.00    +0.000 A 
ATOM      4  C   UNL     1      -2.084   9.635  16.523  0.00  0.00    +0.000 A 
ATOM      5  C   UNL     1      -2.876  10.267  15.567  0.00  0.00    +0.000 A 
ATOM      6  C   UNL     1      -3.798  11.236  15.959  0.00  0.00    +0.000 A 
ATOM      7  C   UNL     1      -3.901  11.601  17.307  0.00  0.00    +0.000 A 
ATOM      8  C   UNL     1      -5.105  12.347  17.774  0.00  0.00    +0.000 C 
ATOM      9  O   UNL     1      -5.940  12.728  16.962  0.00  0.00    +0.000 OA
ATOM     10  N   UNL     1      -5.286  12.391  19.136  0.00  0.00    +0.000 N 
ATOM     11  C   UNL     1      -6.619  12.625  19.713  0.00  0.00    +0.000 C 
ATOM     12  C   UNL     1      -6.629  12.290  21.234  0.00  0.00    +0.000 C 
ATOM     13  C   UNL     1      -5.653  13.287  21.881  0.00  0.00    +0.000 A 
ATOM     14  C   UNL     1      -6.182  14.133  22.859  0.00  0.00    +0.000 A 
ATOM     15  C   UNL     1      -5.896  15.478  22.752  0.00  0.00    +0.000 A 
ATOM     16  C   UNL     1      -5.033  15.911  21.738  0.00  0.00    +0.000 A 
ATOM     17  C   UNL     1      -4.308  14.990  20.924  0.00  0.00    +0.000 A 
ATOM     18  C   UNL     1      -4.527  13.620  21.060  0.00  0.00    +0.000 A 
ATOM     19  C   UNL     1      -4.165  12.470  20.078  0.00  0.00    +0.000 C 
ENDROOT
BRANCH   1  21
ATOM     20  N   UNL     1      -1.135  13.222  18.655  0.00  0.00    +0.000 N 
ATOM     21  C   UNL     1      -1.574  12.524  19.776  0.00  0.00    +0.000 C 
ATOM     22  O   UNL     1      -0.950  12.437  20.826  0.00  0.00    +0.000 OA
ATOM     23  H   UNL     1      -1.431  12.889  17.745  0.00  0.00    +0.000 HD
BRANCH  20  29
ATOM     24  C   UNL     1      -0.171  15.452  19.080  0.00  0.00    +0.000 A 
ATOM     25  C   UNL     1       0.988  16.251  19.103  0.00  0.00    +0.000 A 
ATOM     26  C   UNL     1       2.240  15.736  18.754  0.00  0.00    +0.000 A 
ATOM     27  C   UNL     1       2.357  14.410  18.369  0.00  0.00    +0.000 A 
ATOM     28  C   UNL     1       1.233  13.607  18.321  0.00  0.00    +0.000 A 
ATOM     29  C   UNL     1      -0.034  14.104  18.676  0.00  0.00    +0.000 A 
BRANCH  24  31
ATOM     30  C   UNL     1      -1.525  17.596  19.057  0.00  0.00    +0.000 C 
ATOM     31  C   UNL     1      -1.480  16.122  19.443  0.00  0.00    +0.000 C 
ENDBRANCH  24  31
ENDBRANCH  20  29
ENDBRANCH   1  21
TORSDOF 3
ENDMDL
