MODEL 1
REMARK VINA RESULT:      -7.3      0.000      0.000
REMARK  Name = 
REMARK  2 active torsions:
REMARK  status: ('A' for Active; 'I' for Inactive)
REMARK    1  A    between atoms: N_1  and  C_2
REMARK    2  A    between atoms: C_5  and  C_6
REMARK                            x       y       z     vdW  Elec       q    Type
REMARK                         _______ _______ _______ _____ _____    ______ ____
ROOT
ATOM      1  C   UNL     1       4.358   3.862  18.016  0.00  0.00    +0.000 A 
ATOM      2  C   UNL     1       4.628   3.327  19.262  0.00  0.00    +0.000 A 
ATOM      3  C   UNL     1       3.404   3.141  19.955  0.00  0.00    +0.000 A 
ATOM      4  C   UNL     1       3.073   2.677  21.240  0.00  0.00    +0.000 A 
ATOM      5  C   UNL     1       1.730   2.633  21.625  0.00  0.00    +0.000 A 
ATOM      6  C   UNL     1       0.727   3.033  20.744  0.00  0.00    +0.000 A 
ATOM      7  C   UNL     1       1.034   3.491  19.457  0.00  0.00    +0.000 A 
ATOM      8  C   UNL     1       2.385   3.540  19.095  0.00  0.00    +0.000 A 
ATOM      9  N   UNL     1       2.984   3.952  17.925  0.00  0.00    +0.000 N 
ATOM     10  H   UNL     1       2.481   4.279  17.113  0.00  0.00    +0.000 HD
ENDROOT
BRANCH   1  14
ATOM     11  C   UNL     1       7.053   4.938  14.858  0.00  0.00    +0.000 A 
ATOM     12  C   UNL     1       5.709   4.675  14.593  0.00  0.00    +0.000 A 
ATOM     13  C   UNL     1       4.835   4.325  15.627  0.00  0.00    +0.000 A 
ATOM     14  C   UNL     1       5.277   4.273  16.955  0.00  0.00    +0.000 A 
ATOM     15  C   UNL     1       6.611   4.595  17.225  0.00  0.00    +0.000 A 
ATOM     16  C   UNL     1       7.483   4.943  16.186  0.00  0.00    +0.000 A 
BRANCH  11  17
ATOM     17  N   UNL     1       7.891   5.412  13.842  0.00  0.00    +0.000 N 
ATOM     18  H   UNL     1       8.836   5.611  14.154  0.00  0.00    +0.000 HD
ATOM     19  H   UNL     1       7.493   6.178  13.308  0.00  0.00    +0.000 HD
ENDBRANCH  11  17
ENDBRANCH   1  14
TORSDOF 2
ENDMDL
MODEL 2
REMARK VINA RESULT:      -7.2      0.790      1.506
REMARK  Name = 
REMARK  2 active torsions:
REMARK  status: ('A' for Active; 'I' for Inactive)
REMARK    1  A    between atoms: N_1  and  C_2
REMARK    2  A    between atoms: C_5  and  C_6
REMARK                            x       y       z     vdW  Elec       q    Type
REMARK                         _______ _______ _______ _____ _____    ______ ____
ROOT
ATOM      1  C   UNL     1       4.269   4.173  17.867  0.00  0.00    +0.000 A 
ATOM      2  C   UNL     1       2.928   4.492  17.990  0.00  0.00    +0.000 A 
ATOM      3  C   UNL     1       2.422   3.886  19.170  0.00  0.00    +0.000 A 
ATOM      4  C   UNL     1       1.151   3.837  19.770  0.00  0.00    +0.000 A 
ATOM      5  C   UNL     1       0.986   3.118  20.958  0.00  0.00    +0.000 A 
ATOM      6  C   UNL     1       2.067   2.467  21.549  0.00  0.00    +0.000 A 
ATOM      7  C   UNL     1       3.341   2.511  20.972  0.00  0.00    +0.000 A 
ATOM      8  C   UNL     1       3.485   3.224  19.776  0.00  0.00    +0.000 A 
ATOM      9  N   UNL     1       4.592   3.428  18.982  0.00  0.00    +0.000 N 
ATOM     10  H   UNL     1       5.514   3.075  19.191  0.00  0.00    +0.000 HD
ENDROOT
BRANCH   1  14
ATOM     11  C   UNL     1       7.111   5.052  14.778  0.00  0.00    +0.000 A 
ATOM     12  C   UNL     1       6.075   4.145  14.560  0.00  0.00    +0.000 A 
ATOM     13  C   UNL     1       5.151   3.862  15.571  0.00  0.00    +0.000 A 
ATOM     14  C   UNL     1       5.218   4.515  16.807  0.00  0.00    +0.000 A 
ATOM     15  C   UNL     1       6.222   5.468  17.004  0.00  0.00    +0.000 A 
ATOM     16  C   UNL     1       7.146   5.746  15.989  0.00  0.00    +0.000 A 
BRANCH  11  17
ATOM     17  N   UNL     1       7.953   5.426  13.724  0.00  0.00    +0.000 N 
ATOM     18  H   UNL     1       8.939   5.293  13.924  0.00  0.00    +0.000 HD
ATOM     19  H   UNL     1       7.758   6.350  13.353  0.00  0.00    +0.000 HD
ENDBRANCH  11  17
ENDBRANCH   1  14
TORSDOF 2
ENDMDL
MODEL 3
REMARK VINA RESULT:      -7.2      0.736      1.872
REMARK  Name = 
REMARK  2 active torsions:
REMARK  status: ('A' for Active; 'I' for Inactive)
REMARK    1  A    between atoms: N_1  and  C_2
REMARK    2  A    between atoms: C_5  and  C_6
REMARK                            x       y       z     vdW  Elec       q    Type
REMARK                         _______ _______ _______ _____ _____    ______ ____
ROOT
ATOM      1  C   UNL     1       4.261   4.104  17.787  0.00  0.00    +0.000 A 
ATOM      2  C   UNL     1       2.919   4.423  17.896  0.00  0.00    +0.000 A 
ATOM      3  C   UNL     1       2.408   3.847  19.088  0.00  0.00    +0.000 A 
ATOM      4  C   UNL     1       1.134   3.810  19.683  0.00  0.00    +0.000 A 
ATOM      5  C   UNL     1       0.965   3.122  20.888  0.00  0.00    +0.000 A 
ATOM      6  C   UNL     1       2.044   2.489  21.502  0.00  0.00    +0.000 A 
ATOM      7  C   UNL     1       3.321   2.521  20.930  0.00  0.00    +0.000 A 
ATOM      8  C   UNL     1       3.469   3.203  19.717  0.00  0.00    +0.000 A 
ATOM      9  N   UNL     1       4.580   3.389  18.923  0.00  0.00    +0.000 N 
ATOM     10  H   UNL     1       5.502   3.044  19.146  0.00  0.00    +0.000 HD
ENDROOT
BRANCH   1  14
ATOM     11  C   UNL     1       7.014   5.162  14.673  0.00  0.00    +0.000 A 
ATOM     12  C   UNL     1       7.240   5.553  15.993  0.00  0.00    +0.000 A 
ATOM     13  C   UNL     1       6.339   5.205  17.004  0.00  0.00    +0.000 A 
ATOM     14  C   UNL     1       5.214   4.420  16.724  0.00  0.00    +0.000 A 
ATOM     15  C   UNL     1       5.020   3.979  15.411  0.00  0.00    +0.000 A 
ATOM     16  C   UNL     1       5.925   4.332  14.402  0.00  0.00    +0.000 A 
BRANCH  11  17
ATOM     17  N   UNL     1       7.982   5.402  13.692  0.00  0.00    +0.000 N 
ATOM     18  H   UNL     1       8.682   6.082  13.969  0.00  0.00    +0.000 HD
ATOM     19  H   UNL     1       7.594   5.602  12.775  0.00  0.00    +0.000 HD
ENDBRANCH  11  17
ENDBRANCH   1  14
TORSDOF 2
ENDMDL
MODEL 4
REMARK VINA RESULT:      -7.2      0.222      1.185
REMARK  Name = 
REMARK  2 active torsions:
REMARK  status: ('A' for Active; 'I' for Inactive)
REMARK    1  A    between atoms: N_1  and  C_2
REMARK    2  A    between atoms: C_5  and  C_6
REMARK                            x       y       z     vdW  Elec       q    Type
REMARK                         _______ _______ _______ _____ _____    ______ ____
ROOT
ATOM      1  C   UNL     1       4.368   3.848  17.957  0.00  0.00    +0.000 A 
ATOM      2  C   UNL     1       4.640   3.313  19.203  0.00  0.00    +0.000 A 
ATOM      3  C   UNL     1       3.418   3.147  19.906  0.00  0.00    +0.000 A 
ATOM      4  C   UNL     1       3.091   2.691  21.195  0.00  0.00    +0.000 A 
ATOM      5  C   UNL     1       1.749   2.669  21.589  0.00  0.00    +0.000 A 
ATOM      6  C   UNL     1       0.746   3.082  20.715  0.00  0.00    +0.000 A 
ATOM      7  C   UNL     1       1.050   3.532  19.425  0.00  0.00    +0.000 A 
ATOM      8  C   UNL     1       2.399   3.559  19.052  0.00  0.00    +0.000 A 
ATOM      9  N   UNL     1       2.996   3.959  17.876  0.00  0.00    +0.000 N 
ATOM     10  H   UNL     1       2.491   4.291  17.068  0.00  0.00    +0.000 HD
ENDROOT
BRANCH   1  14
ATOM     11  C   UNL     1       7.019   5.135  14.840  0.00  0.00    +0.000 A 
ATOM     12  C   UNL     1       7.313   5.387  16.180  0.00  0.00    +0.000 A 
ATOM     13  C   UNL     1       6.445   4.964  17.192  0.00  0.00    +0.000 A 
ATOM     14  C   UNL     1       5.285   4.242  16.888  0.00  0.00    +0.000 A 
ATOM     15  C   UNL     1       5.021   3.939  15.548  0.00  0.00    +0.000 A 
ATOM     16  C   UNL     1       5.893   4.366  14.538  0.00  0.00    +0.000 A 
BRANCH  11  17
ATOM     17  N   UNL     1       7.951   5.445  13.843  0.00  0.00    +0.000 N 
ATOM     18  H   UNL     1       8.880   5.080  14.028  0.00  0.00    +0.000 HD
ATOM     19  H   UNL     1       7.967   6.428  13.591  0.00  0.00    +0.000 HD
ENDBRANCH  11  17
ENDBRANCH   1  14
TORSDOF 2
ENDMDL
MODEL 5
REMARK VINA RESULT:      -7.0      1.193      1.541
REMARK  Name = 
REMARK  2 active torsions:
REMARK  status: ('A' for Active; 'I' for Inactive)
REMARK    1  A    between atoms: N_1  and  C_2
REMARK    2  A    between atoms: C_5  and  C_6
REMARK                            x       y       z     vdW  Elec       q    Type
REMARK                         _______ _______ _______ _____ _____    ______ ____
ROOT
ATOM      1  C   UNL     1       4.028   4.296  17.248  0.00  0.00    +0.000 A 
ATOM      2  C   UNL     1       2.977   3.406  17.123  0.00  0.00    +0.000 A 
ATOM      3  C   UNL     1       2.236   3.402  18.333  0.00  0.00    +0.000 A 
ATOM      4  C   UNL     1       1.113   2.686  18.784  0.00  0.00    +0.000 A 
ATOM      5  C   UNL     1       0.630   2.918  20.076  0.00  0.00    +0.000 A 
ATOM      6  C   UNL     1       1.244   3.856  20.904  0.00  0.00    +0.000 A 
ATOM      7  C   UNL     1       2.357   4.585  20.471  0.00  0.00    +0.000 A 
ATOM      8  C   UNL     1       2.835   4.329  19.180  0.00  0.00    +0.000 A 
ATOM      9  N   UNL     1       3.901   4.870  18.496  0.00  0.00    +0.000 N 
ATOM     10  H   UNL     1       4.508   5.587  18.865  0.00  0.00    +0.000 HD
ENDROOT
BRANCH   1  14
ATOM     11  C   UNL     1       7.208   5.126  14.491  0.00  0.00    +0.000 A 
ATOM     12  C   UNL     1       6.143   4.301  14.129  0.00  0.00    +0.000 A 
ATOM     13  C   UNL     1       5.109   4.034  15.032  0.00  0.00    +0.000 A 
ATOM     14  C   UNL     1       5.095   4.623  16.302  0.00  0.00    +0.000 A 
ATOM     15  C   UNL     1       6.134   5.497  16.642  0.00  0.00    +0.000 A 
ATOM     16  C   UNL     1       7.168   5.759  15.735  0.00  0.00    +0.000 A 
BRANCH  11  17
ATOM     17  N   UNL     1       8.170   5.492  13.542  0.00  0.00    +0.000 N 
ATOM     18  H   UNL     1       7.778   5.924  12.712  0.00  0.00    +0.000 HD
ATOM     19  H   UNL     1       8.824   4.749  13.317  0.00  0.00    +0.000 HD
ENDBRANCH  11  17
ENDBRANCH   1  14
TORSDOF 2
ENDMDL
MODEL 6
REMARK VINA RESULT:      -6.8      4.150      4.705
REMARK  Name = 
REMARK  2 active torsions:
REMARK  status: ('A' for Active; 'I' for Inactive)
REMARK    1  A    between atoms: N_1  and  C_2
REMARK    2  A    between atoms: C_5  and  C_6
REMARK                            x       y       z     vdW  Elec       q    Type
REMARK                         _______ _______ _______ _____ _____    ______ ____
ROOT
ATOM      1  C   UNL     1       2.948   7.064  18.371  0.00  0.00    +0.000 A 
ATOM      2  C   UNL     1       2.346   8.226  17.923  0.00  0.00    +0.000 A 
ATOM      3  C   UNL     1       1.593   8.789  18.987  0.00  0.00    +0.000 A 
ATOM      4  C   UNL     1       0.766   9.921  19.101  0.00  0.00    +0.000 A 
ATOM      5  C   UNL     1       0.144  10.189  20.324  0.00  0.00    +0.000 A 
ATOM      6  C   UNL     1       0.347   9.354  21.421  0.00  0.00    +0.000 A 
ATOM      7  C   UNL     1       1.172   8.228  21.331  0.00  0.00    +0.000 A 
ATOM      8  C   UNL     1       1.777   7.968  20.095  0.00  0.00    +0.000 A 
ATOM      9  N   UNL     1       2.613   6.945  19.704  0.00  0.00    +0.000 N 
ATOM     10  H   UNL     1       2.933   6.208  20.314  0.00  0.00    +0.000 HD
ENDROOT
BRANCH   1  14
ATOM     11  C   UNL     1       5.329   4.285  16.134  0.00  0.00    +0.000 A 
ATOM     12  C   UNL     1       5.554   5.658  16.040  0.00  0.00    +0.000 A 
ATOM     13  C   UNL     1       4.774   6.559  16.772  0.00  0.00    +0.000 A 
ATOM     14  C   UNL     1       3.781   6.104  17.648  0.00  0.00    +0.000 A 
ATOM     15  C   UNL     1       3.597   4.724  17.785  0.00  0.00    +0.000 A 
ATOM     16  C   UNL     1       4.379   3.826  17.048  0.00  0.00    +0.000 A 
BRANCH  11  17
ATOM     17  N   UNL     1       6.193   3.385  15.501  0.00  0.00    +0.000 N 
ATOM     18  H   UNL     1       5.814   2.447  15.417  0.00  0.00    +0.000 HD
ATOM     19  H   UNL     1       7.135   3.386  15.880  0.00  0.00    +0.000 HD
ENDBRANCH  11  17
ENDBRANCH   1  14
TORSDOF 2
ENDMDL
MODEL 7
REMARK VINA RESULT:      -6.8      4.129      5.515
REMARK  Name = 
REMARK  2 active torsions:
REMARK  status: ('A' for Active; 'I' for Inactive)
REMARK    1  A    between atoms: N_1  and  C_2
REMARK    2  A    between atoms: C_5  and  C_6
REMARK                            x       y       z     vdW  Elec       q    Type
REMARK                         _______ _______ _______ _____ _____    ______ ____
ROOT
ATOM      1  C   UNL     1       2.500   6.215  18.962  0.00  0.00    +0.000 A 
ATOM      2  C   UNL     1       2.462   7.239  18.032  0.00  0.00    +0.000 A 
ATOM      3  C   UNL     1       1.930   8.399  18.653  0.00  0.00    +0.000 A 
ATOM      4  C   UNL     1       1.632   9.696  18.198  0.00  0.00    +0.000 A 
ATOM      5  C   UNL     1       1.085  10.622  19.092  0.00  0.00    +0.000 A 
ATOM      6  C   UNL     1       0.847  10.272  20.419  0.00  0.00    +0.000 A 
ATOM      7  C   UNL     1       1.144   8.989  20.893  0.00  0.00    +0.000 A 
ATOM      8  C   UNL     1       1.678   8.071  19.981  0.00  0.00    +0.000 A 
ATOM      9  N   UNL     1       2.049   6.755  20.149  0.00  0.00    +0.000 N 
ATOM     10  H   UNL     1       1.993   6.256  21.024  0.00  0.00    +0.000 HD
ENDROOT
BRANCH   1  14
ATOM     11  C   UNL     1       3.617   2.093  18.568  0.00  0.00    +0.000 A 
ATOM     12  C   UNL     1       2.552   2.619  17.837  0.00  0.00    +0.000 A 
ATOM     13  C   UNL     1       2.193   3.964  17.969  0.00  0.00    +0.000 A 
ATOM     14  C   UNL     1       2.919   4.823  18.803  0.00  0.00    +0.000 A 
ATOM     15  C   UNL     1       4.023   4.307  19.490  0.00  0.00    +0.000 A 
ATOM     16  C   UNL     1       4.378   2.959  19.356  0.00  0.00    +0.000 A 
BRANCH  11  17
ATOM     17  N   UNL     1       4.052   0.783  18.335  0.00  0.00    +0.000 N 
ATOM     18  H   UNL     1       5.038   0.642  18.526  0.00  0.00    +0.000 HD
ATOM     19  H   UNL     1       3.780   0.417  17.428  0.00  0.00    +0.000 HD
ENDBRANCH  11  17
ENDBRANCH   1  14
TORSDOF 2
ENDMDL
MODEL 8
REMARK VINA RESULT:      -6.8      1.617      6.650
REMARK  Name = 
REMARK  2 active torsions:
REMARK  status: ('A' for Active; 'I' for Inactive)
REMARK    1  A    between atoms: N_1  and  C_2
REMARK    2  A    between atoms: C_5  and  C_6
REMARK                            x       y       z     vdW  Elec       q    Type
REMARK                         _______ _______ _______ _____ _____    ______ ____
ROOT
ATOM      1  C   UNL     1       4.117   3.718  18.189  0.00  0.00    +0.000 A 
ATOM      2  C   UNL     1       3.807   3.790  16.842  0.00  0.00    +0.000 A 
ATOM      3  C   UNL     1       4.969   4.184  16.128  0.00  0.00    +0.000 A 
ATOM      4  C   UNL     1       5.234   4.447  14.772  0.00  0.00    +0.000 A 
ATOM      5  C   UNL     1       6.522   4.841  14.394  0.00  0.00    +0.000 A 
ATOM      6  C   UNL     1       7.534   4.962  15.344  0.00  0.00    +0.000 A 
ATOM      7  C   UNL     1       7.292   4.696  16.697  0.00  0.00    +0.000 A 
ATOM      8  C   UNL     1       5.994   4.316  17.059  0.00  0.00    +0.000 A 
ATOM      9  N   UNL     1       5.461   4.010  18.292  0.00  0.00    +0.000 N 
ATOM     10  H   UNL     1       5.987   4.006  19.153  0.00  0.00    +0.000 HD
ENDROOT
BRANCH   1  14
ATOM     11  C   UNL     1       1.595   2.664  21.494  0.00  0.00    +0.000 A 
ATOM     12  C   UNL     1       2.935   2.280  21.465  0.00  0.00    +0.000 A 
ATOM     13  C   UNL     1       3.753   2.627  20.385  0.00  0.00    +0.000 A 
ATOM     14  C   UNL     1       3.258   3.403  19.330  0.00  0.00    +0.000 A 
ATOM     15  C   UNL     1       1.930   3.837  19.390  0.00  0.00    +0.000 A 
ATOM     16  C   UNL     1       1.115   3.486  20.473  0.00  0.00    +0.000 A 
BRANCH  11  17
ATOM     17  N   UNL     1       0.818   2.426  22.634  0.00  0.00    +0.000 N 
ATOM     18  H   UNL     1       1.321   1.949  23.376  0.00  0.00    +0.000 HD
ATOM     19  H   UNL     1      -0.077   1.991  22.435  0.00  0.00    +0.000 HD
ENDBRANCH  11  17
ENDBRANCH   1  14
TORSDOF 2
ENDMDL
MODEL 9
REMARK VINA RESULT:      -6.8      4.167      4.697
REMARK  Name = 
REMARK  2 active torsions:
REMARK  status: ('A' for Active; 'I' for Inactive)
REMARK    1  A    between atoms: N_1  and  C_2
REMARK    2  A    between atoms: C_5  and  C_6
REMARK                            x       y       z     vdW  Elec       q    Type
REMARK                         _______ _______ _______ _____ _____    ______ ____
ROOT
ATOM      1  C   UNL     1       2.921   7.085  18.335  0.00  0.00    +0.000 A 
ATOM      2  C   UNL     1       2.323   8.256  17.903  0.00  0.00    +0.000 A 
ATOM      3  C   UNL     1       1.580   8.812  18.977  0.00  0.00    +0.000 A 
ATOM      4  C   UNL     1       0.761   9.947  19.109  0.00  0.00    +0.000 A 
ATOM      5  C   UNL     1       0.147  10.205  20.338  0.00  0.00    +0.000 A 
ATOM      6  C   UNL     1       0.351   9.358  21.425  0.00  0.00    +0.000 A 
ATOM      7  C   UNL     1       1.170   8.228  21.318  0.00  0.00    +0.000 A 
ATOM      8  C   UNL     1       1.765   7.978  20.075  0.00  0.00    +0.000 A 
ATOM      9  N   UNL     1       2.593   6.954  19.669  0.00  0.00    +0.000 N 
ATOM     10  H   UNL     1       2.912   6.209  20.269  0.00  0.00    +0.000 HD
ENDROOT
BRANCH   1  14
ATOM     11  C   UNL     1       5.396   4.242  16.289  0.00  0.00    +0.000 A 
ATOM     12  C   UNL     1       4.324   3.822  17.078  0.00  0.00    +0.000 A 
ATOM     13  C   UNL     1       3.521   4.754  17.742  0.00  0.00    +0.000 A 
ATOM     14  C   UNL     1       3.744   6.128  17.597  0.00  0.00    +0.000 A 
ATOM     15  C   UNL     1       4.783   6.549  16.759  0.00  0.00    +0.000 A 
ATOM     16  C   UNL     1       5.586   5.611  16.097  0.00  0.00    +0.000 A 
BRANCH  11  17
ATOM     17  N   UNL     1       6.114   3.314  15.526  0.00  0.00    +0.000 N 
ATOM     18  H   UNL     1       5.527   2.634  15.055  0.00  0.00    +0.000 HD
ATOM     19  H   UNL     1       6.881   2.878  16.029  0.00  0.00    +0.000 HD
ENDBRANCH  11  17
ENDBRANCH   1  14
TORSDOF 2
ENDMDL
