MODEL 1
REMARK VINA RESULT:      -7.0      0.000      0.000
REMARK  Name = 
REMARK  5 active torsions:
REMARK  status: ('A' for Active; 'I' for Inactive)
REMARK    1  A    between atoms: C_1  and  C_2
REMARK    2  A    between atoms: C_4  and  N_5
REMARK    3  A    between atoms: N_5  and  C_6
REMARK    4  A    between atoms: C_7  and  C_8
REMARK    5  A    between atoms: C_8  and  C_10
REMARK                            x       y       z     vdW  Elec       q    Type
REMARK                         _______ _______ _______ _____ _____    ______ ____
ROOT
ATOM      1  N   UNL     1       6.819   4.388  17.570  0.00  0.00    +0.000 N 
ATOM      2  H   UNL     1       7.574   4.436  18.247  0.00  0.00    +0.000 HD
ENDROOT
BRANCH   1   6
ATOM      3  C   UNL     1       2.319   2.295  17.846  0.00  0.00    +0.000 C 
ATOM      4  C   UNL     1       3.275   3.361  18.302  0.00  0.00    +0.000 A 
ATOM      5  C   UNL     1       4.567   3.388  17.748  0.00  0.00    +0.000 A 
ATOM      6  C   UNL     1       5.521   4.350  18.113  0.00  0.00    +0.000 A 
ATOM      7  C   UNL     1       5.149   5.302  19.070  0.00  0.00    +0.000 A 
ATOM      8  C   UNL     1       3.869   5.296  19.635  0.00  0.00    +0.000 A 
ATOM      9  C   UNL     1       2.936   4.331  19.252  0.00  0.00    +0.000 A 
ATOM     10 BR   UNL     1       1.221   4.386  20.063  0.00  0.00    +0.000 Br
ENDBRANCH   1   6
BRANCH   1  11
ATOM     11  C   UNL     1       7.180   4.415  16.248  0.00  0.00    +0.000 C 
ATOM     12  C   UNL     1       6.594   5.102  15.260  0.00  0.00    +0.000 C 
BRANCH  12  13
ATOM     13  C   UNL     1       7.152   5.001  13.883  0.00  0.00    +0.000 C 
ATOM     14  O   UNL     1       8.123   5.652  13.516  0.00  0.00    +0.000 OA
BRANCH  13  15
ATOM     15  C   UNL     1       6.501   4.038  12.962  0.00  0.00    +0.000 A 
ATOM     16  C   UNL     1       7.256   3.165  12.166  0.00  0.00    +0.000 A 
ATOM     17  C   UNL     1       6.616   2.278  11.301  0.00  0.00    +0.000 A 
ATOM     18  C   UNL     1       5.223   2.247  11.239  0.00  0.00    +0.000 A 
ATOM     19  C   UNL     1       4.466   3.094  12.050  0.00  0.00    +0.000 A 
ATOM     20  C   UNL     1       5.102   3.984  12.916  0.00  0.00    +0.000 A 
ENDBRANCH  13  15
ENDBRANCH  12  13
ENDBRANCH   1  11
TORSDOF 4
ENDMDL
MODEL 2
REMARK VINA RESULT:      -7.0      6.058      7.807
REMARK  Name = 
REMARK  5 active torsions:
REMARK  status: ('A' for Active; 'I' for Inactive)
REMARK    1  A    between atoms: C_1  and  C_2
REMARK    2  A    between atoms: C_4  and  N_5
REMARK    3  A    between atoms: N_5  and  C_6
REMARK    4  A    between atoms: C_7  and  C_8
REMARK    5  A    between atoms: C_8  and  C_10
REMARK                            x       y       z     vdW  Elec       q    Type
REMARK                         _______ _______ _______ _____ _____    ______ ____
ROOT
ATOM      1  N   UNL     1       8.612   8.718  18.758  0.00  0.00    +0.000 N 
ATOM      2  H   UNL     1       8.899   8.241  19.607  0.00  0.00    +0.000 HD
ENDROOT
BRANCH   1   6
ATOM      3  C   UNL     1      11.573  12.463  20.141  0.00  0.00    +0.000 C 
ATOM      4  C   UNL     1      10.434  11.964  19.297  0.00  0.00    +0.000 A 
ATOM      5  C   UNL     1      10.055  10.615  19.407  0.00  0.00    +0.000 A 
ATOM      6  C   UNL     1       9.001  10.067  18.661  0.00  0.00    +0.000 A 
ATOM      7  C   UNL     1       8.322  10.915  17.777  0.00  0.00    +0.000 A 
ATOM      8  C   UNL     1       8.681  12.261  17.650  0.00  0.00    +0.000 A 
ATOM      9  C   UNL     1       9.731  12.784  18.407  0.00  0.00    +0.000 A 
ATOM     10 BR   UNL     1      10.159  14.619  18.180  0.00  0.00    +0.000 Br
ENDBRANCH   1   6
BRANCH   1  11
ATOM     11  C   UNL     1       7.942   7.964  17.830  0.00  0.00    +0.000 C 
ATOM     12  C   UNL     1       7.557   6.687  17.946  0.00  0.00    +0.000 C 
BRANCH  12  13
ATOM     13  C   UNL     1       6.826   6.050  16.815  0.00  0.00    +0.000 C 
ATOM     14  O   UNL     1       7.324   5.910  15.705  0.00  0.00    +0.000 OA
BRANCH  13  15
ATOM     15  C   UNL     1       5.459   5.548  17.095  0.00  0.00    +0.000 A 
ATOM     16  C   UNL     1       5.104   4.216  16.840  0.00  0.00    +0.000 A 
ATOM     17  C   UNL     1       3.808   3.775  17.103  0.00  0.00    +0.000 A 
ATOM     18  C   UNL     1       2.866   4.657  17.634  0.00  0.00    +0.000 A 
ATOM     19  C   UNL     1       3.221   5.976  17.916  0.00  0.00    +0.000 A 
ATOM     20  C   UNL     1       4.518   6.422  17.654  0.00  0.00    +0.000 A 
ENDBRANCH  13  15
ENDBRANCH  12  13
ENDBRANCH   1  11
TORSDOF 4
ENDMDL
MODEL 3
REMARK VINA RESULT:      -7.0      5.922      7.731
REMARK  Name = 
REMARK  5 active torsions:
REMARK  status: ('A' for Active; 'I' for Inactive)
REMARK    1  A    between atoms: C_1  and  C_2
REMARK    2  A    between atoms: C_4  and  N_5
REMARK    3  A    between atoms: N_5  and  C_6
REMARK    4  A    between atoms: C_7  and  C_8
REMARK    5  A    between atoms: C_8  and  C_10
REMARK                            x       y       z     vdW  Elec       q    Type
REMARK                         _______ _______ _______ _____ _____    ______ ____
ROOT
ATOM      1  N   UNL     1       8.740   8.662  18.859  0.00  0.00    +0.000 N 
ATOM      2  H   UNL     1       9.208   8.101  19.563  0.00  0.00    +0.000 HD
ENDROOT
BRANCH   1   6
ATOM      3  C   UNL     1       9.856  12.676  21.570  0.00  0.00    +0.000 C 
ATOM      4  C   UNL     1       9.496  12.079  20.238  0.00  0.00    +0.000 A 
ATOM      5  C   UNL     1       9.290  10.690  20.157  0.00  0.00    +0.000 A 
ATOM      6  C   UNL     1       8.946  10.051  18.957  0.00  0.00    +0.000 A 
ATOM      7  C   UNL     1       8.817  10.846  17.812  0.00  0.00    +0.000 A 
ATOM      8  C   UNL     1       9.017  12.230  17.868  0.00  0.00    +0.000 A 
ATOM      9  C   UNL     1       9.354  12.843  19.076  0.00  0.00    +0.000 A 
ATOM     10 BR   UNL     1       9.609  14.724  19.073  0.00  0.00    +0.000 Br
ENDBRANCH   1   6
BRANCH   1  11
ATOM     11  C   UNL     1       8.028   7.980  17.906  0.00  0.00    +0.000 C 
ATOM     12  C   UNL     1       7.644   6.698  17.943  0.00  0.00    +0.000 C 
BRANCH  12  13
ATOM     13  C   UNL     1       6.864   6.147  16.801  0.00  0.00    +0.000 C 
ATOM     14  O   UNL     1       7.322   6.072  15.667  0.00  0.00    +0.000 OA
BRANCH  13  15
ATOM     15  C   UNL     1       5.499   5.648  17.095  0.00  0.00    +0.000 A 
ATOM     16  C   UNL     1       4.532   6.472  17.686  0.00  0.00    +0.000 A 
ATOM     17  C   UNL     1       3.260   5.972  17.961  0.00  0.00    +0.000 A 
ATOM     18  C   UNL     1       2.944   4.653  17.634  0.00  0.00    +0.000 A 
ATOM     19  C   UNL     1       3.893   3.837  17.019  0.00  0.00    +0.000 A 
ATOM     20  C   UNL     1       5.168   4.333  16.743  0.00  0.00    +0.000 A 
ENDBRANCH  13  15
ENDBRANCH  12  13
ENDBRANCH   1  11
TORSDOF 4
ENDMDL
MODEL 4
REMARK VINA RESULT:      -7.0      5.729      8.030
REMARK  Name = 
REMARK  5 active torsions:
REMARK  status: ('A' for Active; 'I' for Inactive)
REMARK    1  A    between atoms: C_1  and  C_2
REMARK    2  A    between atoms: C_4  and  N_5
REMARK    3  A    between atoms: N_5  and  C_6
REMARK    4  A    between atoms: C_7  and  C_8
REMARK    5  A    between atoms: C_8  and  C_10
REMARK                            x       y       z     vdW  Elec       q    Type
REMARK                         _______ _______ _______ _____ _____    ______ ____
ROOT
ATOM      1  N   UNL     1       1.857   9.882  18.106  0.00  0.00    +0.000 N 
ATOM      2  H   UNL     1       2.599  10.575  18.091  0.00  0.00    +0.000 HD
ENDROOT
BRANCH   1   6
ATOM      3  C   UNL     1      -3.067   9.683  17.461  0.00  0.00    +0.000 C 
ATOM      4  C   UNL     1      -1.876  10.335  18.107  0.00  0.00    +0.000 A 
ATOM      5  C   UNL     1      -0.596   9.829  17.823  0.00  0.00    +0.000 A 
ATOM      6  C   UNL     1       0.569  10.380  18.378  0.00  0.00    +0.000 A 
ATOM      7  C   UNL     1       0.423  11.467  19.247  0.00  0.00    +0.000 A 
ATOM      8  C   UNL     1      -0.841  11.989  19.545  0.00  0.00    +0.000 A 
ATOM      9  C   UNL     1      -1.985  11.426  18.977  0.00  0.00    +0.000 A 
ATOM     10 BR   UNL     1      -3.664  12.187  19.428  0.00  0.00    +0.000 Br
ENDBRANCH   1   6
BRANCH   1  11
ATOM     11  C   UNL     1       2.220   8.592  17.815  0.00  0.00    +0.000 C 
ATOM     12  C   UNL     1       2.519   7.617  18.682  0.00  0.00    +0.000 C 
BRANCH  12  13
ATOM     13  C   UNL     1       2.883   6.273  18.157  0.00  0.00    +0.000 C 
ATOM     14  O   UNL     1       3.749   6.110  17.305  0.00  0.00    +0.000 OA
BRANCH  13  15
ATOM     15  C   UNL     1       2.172   5.107  18.737  0.00  0.00    +0.000 A 
ATOM     16  C   UNL     1       1.757   4.033  17.938  0.00  0.00    +0.000 A 
ATOM     17  C   UNL     1       1.081   2.956  18.511  0.00  0.00    +0.000 A 
ATOM     18  C   UNL     1       0.829   2.941  19.883  0.00  0.00    +0.000 A 
ATOM     19  C   UNL     1       1.266   3.994  20.687  0.00  0.00    +0.000 A 
ATOM     20  C   UNL     1       1.942   5.074  20.118  0.00  0.00    +0.000 A 
ENDBRANCH  13  15
ENDBRANCH  12  13
ENDBRANCH   1  11
TORSDOF 4
ENDMDL
MODEL 5
REMARK VINA RESULT:      -7.0      0.788      1.927
REMARK  Name = 
REMARK  5 active torsions:
REMARK  status: ('A' for Active; 'I' for Inactive)
REMARK    1  A    between atoms: C_1  and  C_2
REMARK    2  A    between atoms: C_4  and  N_5
REMARK    3  A    between atoms: N_5  and  C_6
REMARK    4  A    between atoms: C_7  and  C_8
REMARK    5  A    between atoms: C_8  and  C_10
REMARK                            x       y       z     vdW  Elec       q    Type
REMARK                         _______ _______ _______ _____ _____    ______ ____
ROOT
ATOM      1  N   UNL     1       6.740   4.401  18.158  0.00  0.00    +0.000 N 
ATOM      2  H   UNL     1       7.473   4.427  18.860  0.00  0.00    +0.000 HD
ENDROOT
BRANCH   1   6
ATOM      3  C   UNL     1       2.550   6.628  19.638  0.00  0.00    +0.000 C 
ATOM      4  C   UNL     1       3.321   5.360  19.400  0.00  0.00    +0.000 A 
ATOM      5  C   UNL     1       4.634   5.454  18.904  0.00  0.00    +0.000 A 
ATOM      6  C   UNL     1       5.426   4.323  18.657  0.00  0.00    +0.000 A 
ATOM      7  C   UNL     1       4.864   3.067  18.916  0.00  0.00    +0.000 A 
ATOM      8  C   UNL     1       3.560   2.948  19.410  0.00  0.00    +0.000 A 
ATOM      9  C   UNL     1       2.793   4.089  19.651  0.00  0.00    +0.000 A 
ATOM     10 BR   UNL     1       1.033   3.847  20.321  0.00  0.00    +0.000 Br
ENDBRANCH   1   6
BRANCH   1  11
ATOM     11  C   UNL     1       7.141   4.492  16.850  0.00  0.00    +0.000 C 
ATOM     12  C   UNL     1       6.401   4.860  15.797  0.00  0.00    +0.000 C 
BRANCH  12  13
ATOM     13  C   UNL     1       7.036   4.902  14.451  0.00  0.00    +0.000 C 
ATOM     14  O   UNL     1       8.050   5.550  14.221  0.00  0.00    +0.000 OA
BRANCH  13  15
ATOM     15  C   UNL     1       6.406   4.088  13.383  0.00  0.00    +0.000 A 
ATOM     16  C   UNL     1       5.013   4.000  13.258  0.00  0.00    +0.000 A 
ATOM     17  C   UNL     1       4.449   3.217  12.251  0.00  0.00    +0.000 A 
ATOM     18  C   UNL     1       5.273   2.532  11.357  0.00  0.00    +0.000 A 
ATOM     19  C   UNL     1       6.660   2.639  11.460  0.00  0.00    +0.000 A 
ATOM     20  C   UNL     1       7.228   3.420  12.467  0.00  0.00    +0.000 A 
ENDBRANCH  13  15
ENDBRANCH  12  13
ENDBRANCH   1  11
TORSDOF 4
ENDMDL
MODEL 6
REMARK VINA RESULT:      -7.0      5.420      7.723
REMARK  Name = 
REMARK  5 active torsions:
REMARK  status: ('A' for Active; 'I' for Inactive)
REMARK    1  A    between atoms: C_1  and  C_2
REMARK    2  A    between atoms: C_4  and  N_5
REMARK    3  A    between atoms: N_5  and  C_6
REMARK    4  A    between atoms: C_7  and  C_8
REMARK    5  A    between atoms: C_8  and  C_10
REMARK                            x       y       z     vdW  Elec       q    Type
REMARK                         _______ _______ _______ _____ _____    ______ ____
ROOT
ATOM      1  N   UNL     1       1.599   9.498  17.969  0.00  0.00    +0.000 N 
ATOM      2  H   UNL     1       1.793  10.145  17.211  0.00  0.00    +0.000 HD
ENDROOT
BRANCH   1   6
ATOM      3  C   UNL     1      -0.291   9.011  22.540  0.00  0.00    +0.000 C 
ATOM      4  C   UNL     1      -0.022   9.878  21.341  0.00  0.00    +0.000 A 
ATOM      5  C   UNL     1       0.644   9.313  20.239  0.00  0.00    +0.000 A 
ATOM      6  C   UNL     1       0.931  10.047  19.078  0.00  0.00    +0.000 A 
ATOM      7  C   UNL     1       0.535  11.390  19.045  0.00  0.00    +0.000 A 
ATOM      8  C   UNL     1      -0.129  11.974  20.129  0.00  0.00    +0.000 A 
ATOM      9  C   UNL     1      -0.407  11.221  21.271  0.00  0.00    +0.000 A 
ATOM     10 BR   UNL     1      -1.311  12.082  22.701  0.00  0.00    +0.000 Br
ENDBRANCH   1   6
BRANCH   1  11
ATOM     11  C   UNL     1       1.975   8.194  17.770  0.00  0.00    +0.000 C 
ATOM     12  C   UNL     1       3.066   7.582  18.247  0.00  0.00    +0.000 C 
BRANCH  12  13
ATOM     13  C   UNL     1       3.287   6.146  17.919  0.00  0.00    +0.000 C 
ATOM     14  O   UNL     1       4.144   5.776  17.125  0.00  0.00    +0.000 OA
BRANCH  13  15
ATOM     15  C   UNL     1       2.441   5.156  18.628  0.00  0.00    +0.000 A 
ATOM     16  C   UNL     1       2.144   5.292  19.991  0.00  0.00    +0.000 A 
ATOM     17  C   UNL     1       1.355   4.339  20.634  0.00  0.00    +0.000 A 
ATOM     18  C   UNL     1       0.848   3.255  19.916  0.00  0.00    +0.000 A 
ATOM     19  C   UNL     1       1.118   3.129  18.553  0.00  0.00    +0.000 A 
ATOM     20  C   UNL     1       1.907   4.081  17.906  0.00  0.00    +0.000 A 
ENDBRANCH  13  15
ENDBRANCH  12  13
ENDBRANCH   1  11
TORSDOF 4
ENDMDL
MODEL 7
REMARK VINA RESULT:      -6.9      5.380      7.723
REMARK  Name = 
REMARK  5 active torsions:
REMARK  status: ('A' for Active; 'I' for Inactive)
REMARK    1  A    between atoms: C_1  and  C_2
REMARK    2  A    between atoms: C_4  and  N_5
REMARK    3  A    between atoms: N_5  and  C_6
REMARK    4  A    between atoms: C_7  and  C_8
REMARK    5  A    between atoms: C_8  and  C_10
REMARK                            x       y       z     vdW  Elec       q    Type
REMARK                         _______ _______ _______ _____ _____    ______ ____
ROOT
ATOM      1  N   UNL     1       1.501   9.492  18.071  0.00  0.00    +0.000 N 
ATOM      2  H   UNL     1       1.703  10.152  17.327  0.00  0.00    +0.000 HD
ENDROOT
BRANCH   1   6
ATOM      3  C   UNL     1       0.319   9.389  22.898  0.00  0.00    +0.000 C 
ATOM      4  C   UNL     1       0.156  10.021  21.543  0.00  0.00    +0.000 A 
ATOM      5  C   UNL     1       0.878   9.488  20.461  0.00  0.00    +0.000 A 
ATOM      6  C   UNL     1       0.782  10.012  19.163  0.00  0.00    +0.000 A 
ATOM      7  C   UNL     1      -0.064  11.109  18.967  0.00  0.00    +0.000 A 
ATOM      8  C   UNL     1      -0.793  11.657  20.028  0.00  0.00    +0.000 A 
ATOM      9  C   UNL     1      -0.684  11.115  21.310  0.00  0.00    +0.000 A 
ATOM     10 BR   UNL     1      -1.704  11.912  22.698  0.00  0.00    +0.000 Br
ENDBRANCH   1   6
BRANCH   1  11
ATOM     11  C   UNL     1       1.916   8.200  17.872  0.00  0.00    +0.000 C 
ATOM     12  C   UNL     1       3.143   7.702  18.066  0.00  0.00    +0.000 C 
BRANCH  12  13
ATOM     13  C   UNL     1       3.385   6.258  17.796  0.00  0.00    +0.000 C 
ATOM     14  O   UNL     1       4.266   5.868  17.039  0.00  0.00    +0.000 OA
BRANCH  13  15
ATOM     15  C   UNL     1       2.529   5.285  18.518  0.00  0.00    +0.000 A 
ATOM     16  C   UNL     1       1.892   4.234  17.845  0.00  0.00    +0.000 A 
ATOM     17  C   UNL     1       1.084   3.341  18.548  0.00  0.00    +0.000 A 
ATOM     18  C   UNL     1       0.922   3.485  19.927  0.00  0.00    +0.000 A 
ATOM     19  C   UNL     1       1.578   4.512  20.606  0.00  0.00    +0.000 A 
ATOM     20  C   UNL     1       2.386   5.408  19.905  0.00  0.00    +0.000 A 
ENDBRANCH  13  15
ENDBRANCH  12  13
ENDBRANCH   1  11
TORSDOF 4
ENDMDL
MODEL 8
REMARK VINA RESULT:      -6.9      5.610      7.714
REMARK  Name = 
REMARK  5 active torsions:
REMARK  status: ('A' for Active; 'I' for Inactive)
REMARK    1  A    between atoms: C_1  and  C_2
REMARK    2  A    between atoms: C_4  and  N_5
REMARK    3  A    between atoms: N_5  and  C_6
REMARK    4  A    between atoms: C_7  and  C_8
REMARK    5  A    between atoms: C_8  and  C_10
REMARK                            x       y       z     vdW  Elec       q    Type
REMARK                         _______ _______ _______ _____ _____    ______ ____
ROOT
ATOM      1  N   UNL     1       7.430   6.801  17.631  0.00  0.00    +0.000 N 
ATOM      2  H   UNL     1       8.238   6.193  17.727  0.00  0.00    +0.000 HD
ENDROOT
BRANCH   1   6
ATOM      3  C   UNL     1       2.478   6.997  18.007  0.00  0.00    +0.000 C 
ATOM      4  C   UNL     1       3.725   6.179  17.826  0.00  0.00    +0.000 A 
ATOM      5  C   UNL     1       4.967   6.839  17.811  0.00  0.00    +0.000 A 
ATOM      6  C   UNL     1       6.180   6.153  17.652  0.00  0.00    +0.000 A 
ATOM      7  C   UNL     1       6.125   4.763  17.497  0.00  0.00    +0.000 A 
ATOM      8  C   UNL     1       4.902   4.084  17.508  0.00  0.00    +0.000 A 
ATOM      9  C   UNL     1       3.708   4.788  17.673  0.00  0.00    +0.000 A 
ATOM     10 BR   UNL     1       2.089   3.798  17.677  0.00  0.00    +0.000 Br
ENDBRANCH   1   6
BRANCH   1  11
ATOM     11  C   UNL     1       7.683   8.145  17.547  0.00  0.00    +0.000 C 
ATOM     12  C   UNL     1       8.490   8.871  18.330  0.00  0.00    +0.000 C 
BRANCH  12  13
ATOM     13  C   UNL     1       8.633  10.329  18.063  0.00  0.00    +0.000 C 
ATOM     14  O   UNL     1       7.820  10.959  17.398  0.00  0.00    +0.000 OA
BRANCH  13  15
ATOM     15  C   UNL     1       9.799  11.014  18.672  0.00  0.00    +0.000 A 
ATOM     16  C   UNL     1      10.870  11.467  17.889  0.00  0.00    +0.000 A 
ATOM     17  C   UNL     1      11.958  12.098  18.491  0.00  0.00    +0.000 A 
ATOM     18  C   UNL     1      11.974  12.293  19.873  0.00  0.00    +0.000 A 
ATOM     19  C   UNL     1      10.898  11.869  20.653  0.00  0.00    +0.000 A 
ATOM     20  C   UNL     1       9.807  11.236  20.054  0.00  0.00    +0.000 A 
ENDBRANCH  13  15
ENDBRANCH  12  13
ENDBRANCH   1  11
TORSDOF 4
ENDMDL
MODEL 9
REMARK VINA RESULT:      -6.9      3.428      6.956
REMARK  Name = 
REMARK  5 active torsions:
REMARK  status: ('A' for Active; 'I' for Inactive)
REMARK    1  A    between atoms: C_1  and  C_2
REMARK    2  A    between atoms: C_4  and  N_5
REMARK    3  A    between atoms: N_5  and  C_6
REMARK    4  A    between atoms: C_7  and  C_8
REMARK    5  A    between atoms: C_8  and  C_10
REMARK                            x       y       z     vdW  Elec       q    Type
REMARK                         _______ _______ _______ _____ _____    ______ ____
ROOT
ATOM      1  N   UNL     1       5.989   5.884  17.349  0.00  0.00    +0.000 N 
ATOM      2  H   UNL     1       6.842   6.313  17.694  0.00  0.00    +0.000 HD
ENDROOT
BRANCH   1   6
ATOM      3  C   UNL     1       8.183   5.456  12.910  0.00  0.00    +0.000 C 
ATOM      4  C   UNL     1       7.136   4.987  13.881  0.00  0.00    +0.000 A 
ATOM      5  C   UNL     1       7.043   5.626  15.130  0.00  0.00    +0.000 A 
ATOM      6  C   UNL     1       6.093   5.256  16.094  0.00  0.00    +0.000 A 
ATOM      7  C   UNL     1       5.223   4.206  15.778  0.00  0.00    +0.000 A 
ATOM      8  C   UNL     1       5.296   3.555  14.542  0.00  0.00    +0.000 A 
ATOM      9  C   UNL     1       6.248   3.944  13.598  0.00  0.00    +0.000 A 
ATOM     10 BR   UNL     1       6.286   3.014  11.944  0.00  0.00    +0.000 Br
ENDBRANCH   1   6
BRANCH   1  11
ATOM     11  C   UNL     1       4.898   5.942  18.176  0.00  0.00    +0.000 C 
ATOM     12  C   UNL     1       3.777   6.651  17.993  0.00  0.00    +0.000 C 
BRANCH  12  13
ATOM     13  C   UNL     1       2.697   6.569  19.015  0.00  0.00    +0.000 C 
ATOM     14  O   UNL     1       2.306   7.548  19.640  0.00  0.00    +0.000 OA
BRANCH  13  15
ATOM     15  C   UNL     1       2.073   5.241  19.231  0.00  0.00    +0.000 A 
ATOM     16  C   UNL     1       1.809   4.376  18.160  0.00  0.00    +0.000 A 
ATOM     17  C   UNL     1       1.212   3.138  18.393  0.00  0.00    +0.000 A 
ATOM     18  C   UNL     1       0.890   2.752  19.695  0.00  0.00    +0.000 A 
ATOM     19  C   UNL     1       1.177   3.597  20.767  0.00  0.00    +0.000 A 
ATOM     20  C   UNL     1       1.774   4.838  20.538  0.00  0.00    +0.000 A 
ENDBRANCH  13  15
ENDBRANCH  12  13
ENDBRANCH   1  11
TORSDOF 4
ENDMDL
