MODEL 1
REMARK VINA RESULT:      -7.3      0.000      0.000
REMARK  Name = 
REMARK  6 active torsions:
REMARK  status: ('A' for Active; 'I' for Inactive)
REMARK    1  A    between atoms: C_1  and  O_2
REMARK    2  A    between atoms: O_2  and  C_3
REMARK    3  A    between atoms: C_3  and  C_4
REMARK    4  A    between atoms: C_3  and  C_5
REMARK    5  A    between atoms: C_3  and  C_15
REMARK    6  A    between atoms: N_7  and  C_8
REMARK                            x       y       z     vdW  Elec       q    Type
REMARK                         _______ _______ _______ _____ _____    ______ ____
ROOT
ATOM      1  C   UNL     1       4.945   5.289  17.422  0.00  0.00    +0.000 C 
ATOM      2  O   UNL     1       4.038   6.032  17.045  0.00  0.00    +0.000 OA
ATOM      3  N   UNL     1       4.796   4.345  18.429  0.00  0.00    +0.000 N 
ATOM      4  H   UNL     1       5.637   4.037  18.909  0.00  0.00    +0.000 HD
ENDROOT
BRANCH   3   5
ATOM      5  C   UNL     1       3.589   4.169  19.149  0.00  0.00    +0.000 A 
ATOM      6  C   UNL     1       3.103   5.154  20.018  0.00  0.00    +0.000 A 
ATOM      7  C   UNL     1       1.918   4.950  20.728  0.00  0.00    +0.000 A 
ATOM      8  C   UNL     1       1.213   3.753  20.591  0.00  0.00    +0.000 A 
ATOM      9  C   UNL     1       1.682   2.768  19.719  0.00  0.00    +0.000 A 
ATOM     10  C   UNL     1       2.849   2.985  18.986  0.00  0.00    +0.000 A 
ATOM     11 CL   UNL     1       3.413   1.724  17.942  0.00  0.00    +0.000 Cl
ENDBRANCH   3   5
BRANCH   1  12
ATOM     12  C   UNL     1       6.350   5.361  16.785  0.00  0.00    +0.000 C 
ATOM     13  C   UNL     1       7.363   4.664  17.713  0.00  0.00    +0.000 C 
BRANCH  12  14
ATOM     14  C   UNL     1       6.294   4.589  15.444  0.00  0.00    +0.000 C 
ATOM     15  F   UNL     1       5.992   3.278  15.634  0.00  0.00    +0.000 F 
ATOM     16  F   UNL     1       5.358   5.076  14.594  0.00  0.00    +0.000 F 
ATOM     17  F   UNL     1       7.469   4.599  14.771  0.00  0.00    +0.000 F 
ENDBRANCH  12  14
BRANCH  12  19
ATOM     18  C   UNL     1       7.517   7.357  17.560  0.00  0.00    +0.000 C 
ATOM     19  O   UNL     1       6.758   6.728  16.536  0.00  0.00    +0.000 OA
ENDBRANCH  12  19
ENDBRANCH   1  12
TORSDOF 4
ENDMDL
MODEL 2
REMARK VINA RESULT:      -7.2      1.106      1.398
REMARK  Name = 
REMARK  6 active torsions:
REMARK  status: ('A' for Active; 'I' for Inactive)
REMARK    1  A    between atoms: C_1  and  O_2
REMARK    2  A    between atoms: O_2  and  C_3
REMARK    3  A    between atoms: C_3  and  C_4
REMARK    4  A    between atoms: C_3  and  C_5
REMARK    5  A    between atoms: C_3  and  C_15
REMARK    6  A    between atoms: N_7  and  C_8
REMARK                            x       y       z     vdW  Elec       q    Type
REMARK                         _______ _______ _______ _____ _____    ______ ____
ROOT
ATOM      1  C   UNL     1       5.337   4.598  18.280  0.00  0.00    +0.000 C 
ATOM      2  O   UNL     1       5.639   3.812  19.178  0.00  0.00    +0.000 OA
ATOM      3  N   UNL     1       4.048   5.069  18.071  0.00  0.00    +0.000 N 
ATOM      4  H   UNL     1       3.820   5.411  17.142  0.00  0.00    +0.000 HD
ENDROOT
BRANCH   3   5
ATOM      5  C   UNL     1       2.941   4.659  18.854  0.00  0.00    +0.000 A 
ATOM      6  C   UNL     1       2.546   5.369  19.995  0.00  0.00    +0.000 A 
ATOM      7  C   UNL     1       1.460   4.935  20.758  0.00  0.00    +0.000 A 
ATOM      8  C   UNL     1       0.766   3.778  20.399  0.00  0.00    +0.000 A 
ATOM      9  C   UNL     1       1.143   3.069  19.257  0.00  0.00    +0.000 A 
ATOM     10  C   UNL     1       2.209   3.520  18.478  0.00  0.00    +0.000 A 
ATOM     11 CL   UNL     1       2.664   2.592  17.089  0.00  0.00    +0.000 Cl
ENDBRANCH   3   5
BRANCH   1  12
ATOM     12  C   UNL     1       6.402   5.128  17.295  0.00  0.00    +0.000 C 
ATOM     13  C   UNL     1       7.800   4.688  17.775  0.00  0.00    +0.000 C 
BRANCH  12  14
ATOM     14  C   UNL     1       6.126   4.481  15.916  0.00  0.00    +0.000 C 
ATOM     15  F   UNL     1       7.258   4.392  15.170  0.00  0.00    +0.000 F 
ATOM     16  F   UNL     1       5.636   3.221  16.014  0.00  0.00    +0.000 F 
ATOM     17  F   UNL     1       5.246   5.180  15.162  0.00  0.00    +0.000 F 
ENDBRANCH  12  14
BRANCH  12  19
ATOM     18  C   UNL     1       7.522   7.281  17.539  0.00  0.00    +0.000 C 
ATOM     19  O   UNL     1       6.348   6.569  17.169  0.00  0.00    +0.000 OA
ENDBRANCH  12  19
ENDBRANCH   1  12
TORSDOF 4
ENDMDL
MODEL 3
REMARK VINA RESULT:      -7.2      2.017      2.629
REMARK  Name = 
REMARK  6 active torsions:
REMARK  status: ('A' for Active; 'I' for Inactive)
REMARK    1  A    between atoms: C_1  and  O_2
REMARK    2  A    between atoms: O_2  and  C_3
REMARK    3  A    between atoms: C_3  and  C_4
REMARK    4  A    between atoms: C_3  and  C_5
REMARK    5  A    between atoms: C_3  and  C_15
REMARK    6  A    between atoms: N_7  and  C_8
REMARK                            x       y       z     vdW  Elec       q    Type
REMARK                         _______ _______ _______ _____ _____    ______ ____
ROOT
ATOM      1  C   UNL     1       4.711   4.923  18.103  0.00  0.00    +0.000 C 
ATOM      2  O   UNL     1       4.332   5.934  18.694  0.00  0.00    +0.000 OA
ATOM      3  N   UNL     1       4.203   3.654  18.346  0.00  0.00    +0.000 N 
ATOM      4  H   UNL     1       4.786   2.861  18.094  0.00  0.00    +0.000 HD
ENDROOT
BRANCH   3   5
ATOM      5  C   UNL     1       3.220   3.392  19.331  0.00  0.00    +0.000 A 
ATOM      6  C   UNL     1       3.557   2.856  20.580  0.00  0.00    +0.000 A 
ATOM      7  C   UNL     1       2.566   2.592  21.529  0.00  0.00    +0.000 A 
ATOM      8  C   UNL     1       1.226   2.848  21.236  0.00  0.00    +0.000 A 
ATOM      9  C   UNL     1       0.878   3.394  19.998  0.00  0.00    +0.000 A 
ATOM     10  C   UNL     1       1.872   3.685  19.062  0.00  0.00    +0.000 A 
ATOM     11 CL   UNL     1       1.394   4.330  17.528  0.00  0.00    +0.000 Cl
ENDBRANCH   3   5
BRANCH   1  12
ATOM     12  C   UNL     1       5.810   4.999  17.020  0.00  0.00    +0.000 C 
ATOM     13  C   UNL     1       5.565   6.238  16.137  0.00  0.00    +0.000 C 
BRANCH  12  14
ATOM     14  C   UNL     1       7.168   5.168  17.745  0.00  0.00    +0.000 C 
ATOM     15  F   UNL     1       7.757   6.352  17.432  0.00  0.00    +0.000 F 
ATOM     16  F   UNL     1       7.051   5.147  19.095  0.00  0.00    +0.000 F 
ATOM     17  F   UNL     1       8.071   4.214  17.420  0.00  0.00    +0.000 F 
ENDBRANCH  12  14
BRANCH  12  19
ATOM     18  C   UNL     1       6.056   3.993  14.813  0.00  0.00    +0.000 C 
ATOM     19  O   UNL     1       5.846   3.803  16.206  0.00  0.00    +0.000 OA
ENDBRANCH  12  19
ENDBRANCH   1  12
TORSDOF 4
ENDMDL
MODEL 4
REMARK VINA RESULT:      -7.2      1.648      2.197
REMARK  Name = 
REMARK  6 active torsions:
REMARK  status: ('A' for Active; 'I' for Inactive)
REMARK    1  A    between atoms: C_1  and  O_2
REMARK    2  A    between atoms: O_2  and  C_3
REMARK    3  A    between atoms: C_3  and  C_4
REMARK    4  A    between atoms: C_3  and  C_5
REMARK    5  A    between atoms: C_3  and  C_15
REMARK    6  A    between atoms: N_7  and  C_8
REMARK                            x       y       z     vdW  Elec       q    Type
REMARK                         _______ _______ _______ _____ _____    ______ ____
ROOT
ATOM      1  C   UNL     1       5.255   4.396  18.137  0.00  0.00    +0.000 C 
ATOM      2  O   UNL     1       5.571   3.728  19.122  0.00  0.00    +0.000 OA
ATOM      3  N   UNL     1       3.942   4.605  17.738  0.00  0.00    +0.000 N 
ATOM      4  H   UNL     1       3.783   4.849  16.764  0.00  0.00    +0.000 HD
ENDROOT
BRANCH   3   5
ATOM      5  C   UNL     1       2.832   4.035  18.408  0.00  0.00    +0.000 A 
ATOM      6  C   UNL     1       2.354   2.760  18.080  0.00  0.00    +0.000 A 
ATOM      7  C   UNL     1       1.247   2.227  18.746  0.00  0.00    +0.000 A 
ATOM      8  C   UNL     1       0.597   2.966  19.735  0.00  0.00    +0.000 A 
ATOM      9  C   UNL     1       1.073   4.234  20.078  0.00  0.00    +0.000 A 
ATOM     10  C   UNL     1       2.197   4.754  19.434  0.00  0.00    +0.000 A 
ATOM     11 CL   UNL     1       2.732   6.343  19.867  0.00  0.00    +0.000 Cl
ENDBRANCH   3   5
BRANCH   1  12
ATOM     12  C   UNL     1       6.330   5.065  17.252  0.00  0.00    +0.000 C 
ATOM     13  C   UNL     1       7.728   4.706  17.794  0.00  0.00    +0.000 C 
BRANCH  12  14
ATOM     14  C   UNL     1       6.188   4.483  15.824  0.00  0.00    +0.000 C 
ATOM     15  F   UNL     1       7.364   4.530  15.146  0.00  0.00    +0.000 F 
ATOM     16  F   UNL     1       5.800   3.184  15.821  0.00  0.00    +0.000 F 
ATOM     17  F   UNL     1       5.297   5.154  15.058  0.00  0.00    +0.000 F 
ENDBRANCH  12  14
BRANCH  12  19
ATOM     18  C   UNL     1       7.337   7.280  17.428  0.00  0.00    +0.000 C 
ATOM     19  O   UNL     1       6.167   6.503  17.203  0.00  0.00    +0.000 OA
ENDBRANCH  12  19
ENDBRANCH   1  12
TORSDOF 4
ENDMDL
MODEL 5
REMARK VINA RESULT:      -7.1      2.411      2.851
REMARK  Name = 
REMARK  6 active torsions:
REMARK  status: ('A' for Active; 'I' for Inactive)
REMARK    1  A    between atoms: C_1  and  O_2
REMARK    2  A    between atoms: O_2  and  C_3
REMARK    3  A    between atoms: C_3  and  C_4
REMARK    4  A    between atoms: C_3  and  C_5
REMARK    5  A    between atoms: C_3  and  C_15
REMARK    6  A    between atoms: N_7  and  C_8
REMARK                            x       y       z     vdW  Elec       q    Type
REMARK                         _______ _______ _______ _____ _____    ______ ____
ROOT
ATOM      1  C   UNL     1       5.530   4.674  18.583  0.00  0.00    +0.000 C 
ATOM      2  O   UNL     1       5.717   3.659  19.253  0.00  0.00    +0.000 OA
ATOM      3  N   UNL     1       4.291   5.285  18.442  0.00  0.00    +0.000 N 
ATOM      4  H   UNL     1       4.151   5.876  17.627  0.00  0.00    +0.000 HD
ENDROOT
BRANCH   3   5
ATOM      5  C   UNL     1       3.108   4.774  19.029  0.00  0.00    +0.000 A 
ATOM      6  C   UNL     1       2.663   5.211  20.283  0.00  0.00    +0.000 A 
ATOM      7  C   UNL     1       1.501   4.680  20.847  0.00  0.00    +0.000 A 
ATOM      8  C   UNL     1       0.778   3.695  20.172  0.00  0.00    +0.000 A 
ATOM      9  C   UNL     1       1.205   3.259  18.916  0.00  0.00    +0.000 A 
ATOM     10  C   UNL     1       2.349   3.813  18.339  0.00  0.00    +0.000 A 
ATOM     11 CL   UNL     1       2.862   3.219  16.795  0.00  0.00    +0.000 Cl
ENDBRANCH   3   5
BRANCH   1  12
ATOM     12  C   UNL     1       6.693   5.357  17.831  0.00  0.00    +0.000 C 
ATOM     13  C   UNL     1       6.171   6.632  17.140  0.00  0.00    +0.000 C 
BRANCH  12  14
ATOM     14  C   UNL     1       7.755   5.764  18.883  0.00  0.00    +0.000 C 
ATOM     15  F   UNL     1       7.208   5.891  20.120  0.00  0.00    +0.000 F 
ATOM     16  F   UNL     1       8.755   4.857  19.000  0.00  0.00    +0.000 F 
ATOM     17  F   UNL     1       8.342   6.954  18.618  0.00  0.00    +0.000 F 
ENDBRANCH  12  14
BRANCH  12  19
ATOM     18  C   UNL     1       6.613   4.336  15.618  0.00  0.00    +0.000 C 
ATOM     19  O   UNL     1       7.296   4.472  16.857  0.00  0.00    +0.000 OA
ENDBRANCH  12  19
ENDBRANCH   1  12
TORSDOF 4
ENDMDL
MODEL 6
REMARK VINA RESULT:      -7.1      2.324      2.981
REMARK  Name = 
REMARK  6 active torsions:
REMARK  status: ('A' for Active; 'I' for Inactive)
REMARK    1  A    between atoms: C_1  and  O_2
REMARK    2  A    between atoms: O_2  and  C_3
REMARK    3  A    between atoms: C_3  and  C_4
REMARK    4  A    between atoms: C_3  and  C_5
REMARK    5  A    between atoms: C_3  and  C_15
REMARK    6  A    between atoms: N_7  and  C_8
REMARK                            x       y       z     vdW  Elec       q    Type
REMARK                         _______ _______ _______ _____ _____    ______ ____
ROOT
ATOM      1  C   UNL     1       5.072   4.384  17.787  0.00  0.00    +0.000 C 
ATOM      2  O   UNL     1       5.491   3.741  18.749  0.00  0.00    +0.000 OA
ATOM      3  N   UNL     1       3.723   4.586  17.526  0.00  0.00    +0.000 N 
ATOM      4  H   UNL     1       3.460   4.805  16.569  0.00  0.00    +0.000 HD
ENDROOT
BRANCH   3   5
ATOM      5  C   UNL     1       2.692   4.038  18.327  0.00  0.00    +0.000 A 
ATOM      6  C   UNL     1       2.162   2.767  18.070  0.00  0.00    +0.000 A 
ATOM      7  C   UNL     1       1.134   2.255  18.866  0.00  0.00    +0.000 A 
ATOM      8  C   UNL     1       0.614   3.012  19.916  0.00  0.00    +0.000 A 
ATOM      9  C   UNL     1       1.143   4.275  20.189  0.00  0.00    +0.000 A 
ATOM     10  C   UNL     1       2.190   4.774  19.414  0.00  0.00    +0.000 A 
ATOM     11 CL   UNL     1       2.793   6.358  19.765  0.00  0.00    +0.000 Cl
ENDBRANCH   3   5
BRANCH   1  12
ATOM     12  C   UNL     1       6.045   5.026  16.774  0.00  0.00    +0.000 C 
ATOM     13  C   UNL     1       5.283   6.063  15.926  0.00  0.00    +0.000 C 
BRANCH  12  14
ATOM     14  C   UNL     1       7.144   5.759  17.582  0.00  0.00    +0.000 C 
ATOM     15  F   UNL     1       8.130   4.909  17.969  0.00  0.00    +0.000 F 
ATOM     16  F   UNL     1       7.748   6.746  16.876  0.00  0.00    +0.000 F 
ATOM     17  F   UNL     1       6.683   6.327  18.721  0.00  0.00    +0.000 F 
ENDBRANCH  12  14
BRANCH  12  19
ATOM     18  C   UNL     1       6.391   4.148  14.525  0.00  0.00    +0.000 C 
ATOM     19  O   UNL     1       6.660   4.035  15.917  0.00  0.00    +0.000 OA
ENDBRANCH  12  19
ENDBRANCH   1  12
TORSDOF 4
ENDMDL
MODEL 7
REMARK VINA RESULT:      -7.0      1.536      1.876
REMARK  Name = 
REMARK  6 active torsions:
REMARK  status: ('A' for Active; 'I' for Inactive)
REMARK    1  A    between atoms: C_1  and  O_2
REMARK    2  A    between atoms: O_2  and  C_3
REMARK    3  A    between atoms: C_3  and  C_4
REMARK    4  A    between atoms: C_3  and  C_5
REMARK    5  A    between atoms: C_3  and  C_15
REMARK    6  A    between atoms: N_7  and  C_8
REMARK                            x       y       z     vdW  Elec       q    Type
REMARK                         _______ _______ _______ _____ _____    ______ ____
ROOT
ATOM      1  C   UNL     1       5.504   4.979  18.752  0.00  0.00    +0.000 C 
ATOM      2  O   UNL     1       5.720   4.034  19.510  0.00  0.00    +0.000 OA
ATOM      3  N   UNL     1       4.236   5.474  18.481  0.00  0.00    +0.000 N 
ATOM      4  H   UNL     1       4.110   5.990  17.615  0.00  0.00    +0.000 HD
ENDROOT
BRANCH   3   5
ATOM      5  C   UNL     1       3.056   4.912  19.027  0.00  0.00    +0.000 A 
ATOM      6  C   UNL     1       2.521   5.365  20.240  0.00  0.00    +0.000 A 
ATOM      7  C   UNL     1       1.364   4.784  20.765  0.00  0.00    +0.000 A 
ATOM      8  C   UNL     1       0.738   3.734  20.093  0.00  0.00    +0.000 A 
ATOM      9  C   UNL     1       1.255   3.282  18.877  0.00  0.00    +0.000 A 
ATOM     10  C   UNL     1       2.393   3.883  18.338  0.00  0.00    +0.000 A 
ATOM     11 CL   UNL     1       3.019   3.269  16.845  0.00  0.00    +0.000 Cl
ENDBRANCH   3   5
BRANCH   1  12
ATOM     12  C   UNL     1       6.663   5.697  18.026  0.00  0.00    +0.000 C 
ATOM     13  C   UNL     1       7.825   5.912  19.016  0.00  0.00    +0.000 C 
BRANCH  12  14
ATOM     14  C   UNL     1       7.149   4.767  16.887  0.00  0.00    +0.000 C 
ATOM     15  F   UNL     1       7.454   5.469  15.765  0.00  0.00    +0.000 F 
ATOM     16  F   UNL     1       8.265   4.072  17.215  0.00  0.00    +0.000 F 
ATOM     17  F   UNL     1       6.223   3.855  16.509  0.00  0.00    +0.000 F 
ENDBRANCH  12  14
BRANCH  12  19
ATOM     18  C   UNL     1       7.183   8.028  17.534  0.00  0.00    +0.000 C 
ATOM     19  O   UNL     1       6.243   6.964  17.465  0.00  0.00    +0.000 OA
ENDBRANCH  12  19
ENDBRANCH   1  12
TORSDOF 4
ENDMDL
MODEL 8
REMARK VINA RESULT:      -7.0      1.945      2.471
REMARK  Name = 
REMARK  6 active torsions:
REMARK  status: ('A' for Active; 'I' for Inactive)
REMARK    1  A    between atoms: C_1  and  O_2
REMARK    2  A    between atoms: O_2  and  C_3
REMARK    3  A    between atoms: C_3  and  C_4
REMARK    4  A    between atoms: C_3  and  C_5
REMARK    5  A    between atoms: C_3  and  C_15
REMARK    6  A    between atoms: N_7  and  C_8
REMARK                            x       y       z     vdW  Elec       q    Type
REMARK                         _______ _______ _______ _____ _____    ______ ____
ROOT
ATOM      1  C   UNL     1       5.097   4.522  18.003  0.00  0.00    +0.000 C 
ATOM      2  O   UNL     1       5.548   3.875  18.948  0.00  0.00    +0.000 OA
ATOM      3  N   UNL     1       3.751   4.829  17.854  0.00  0.00    +0.000 N 
ATOM      4  H   UNL     1       3.421   5.040  16.916  0.00  0.00    +0.000 HD
ENDROOT
BRANCH   3   5
ATOM      5  C   UNL     1       2.756   4.394  18.763  0.00  0.00    +0.000 A 
ATOM      6  C   UNL     1       2.340   5.195  19.833  0.00  0.00    +0.000 A 
ATOM      7  C   UNL     1       1.366   4.737  20.725  0.00  0.00    +0.000 A 
ATOM      8  C   UNL     1       0.810   3.467  20.566  0.00  0.00    +0.000 A 
ATOM      9  C   UNL     1       1.208   2.664  19.495  0.00  0.00    +0.000 A 
ATOM     10  C   UNL     1       2.158   3.135  18.587  0.00  0.00    +0.000 A 
ATOM     11 CL   UNL     1       2.648   2.093  17.294  0.00  0.00    +0.000 Cl
ENDBRANCH   3   5
BRANCH   1  12
ATOM     12  C   UNL     1       6.023   5.048  16.885  0.00  0.00    +0.000 C 
ATOM     13  C   UNL     1       5.246   6.058  16.017  0.00  0.00    +0.000 C 
BRANCH  12  14
ATOM     14  C   UNL     1       7.203   5.785  17.564  0.00  0.00    +0.000 C 
ATOM     15  F   UNL     1       7.781   6.684  16.725  0.00  0.00    +0.000 F 
ATOM     16  F   UNL     1       6.827   6.480  18.665  0.00  0.00    +0.000 F 
ATOM     17  F   UNL     1       8.200   4.956  17.953  0.00  0.00    +0.000 F 
ENDBRANCH  12  14
BRANCH  12  19
ATOM     18  C   UNL     1       6.241   4.043  14.673  0.00  0.00    +0.000 C 
ATOM     19  O   UNL     1       6.537   3.974  16.062  0.00  0.00    +0.000 OA
ENDBRANCH  12  19
ENDBRANCH   1  12
TORSDOF 4
ENDMDL
MODEL 9
REMARK VINA RESULT:      -7.0      2.887      5.477
REMARK  Name = 
REMARK  6 active torsions:
REMARK  status: ('A' for Active; 'I' for Inactive)
REMARK    1  A    between atoms: C_1  and  O_2
REMARK    2  A    between atoms: O_2  and  C_3
REMARK    3  A    between atoms: C_3  and  C_4
REMARK    4  A    between atoms: C_3  and  C_5
REMARK    5  A    between atoms: C_3  and  C_15
REMARK    6  A    between atoms: N_7  and  C_8
REMARK                            x       y       z     vdW  Elec       q    Type
REMARK                         _______ _______ _______ _____ _____    ______ ____
ROOT
ATOM      1  C   UNL     1       3.220   4.629  19.143  0.00  0.00    +0.000 C 
ATOM      2  O   UNL     1       2.968   5.828  19.021  0.00  0.00    +0.000 OA
ATOM      3  N   UNL     1       4.468   4.076  18.894  0.00  0.00    +0.000 N 
ATOM      4  H   UNL     1       4.505   3.084  18.677  0.00  0.00    +0.000 HD
ENDROOT
BRANCH   3   5
ATOM      5  C   UNL     1       5.571   4.837  18.436  0.00  0.00    +0.000 A 
ATOM      6  C   UNL     1       6.473   5.431  19.329  0.00  0.00    +0.000 A 
ATOM      7  C   UNL     1       7.545   6.190  18.852  0.00  0.00    +0.000 A 
ATOM      8  C   UNL     1       7.719   6.377  17.480  0.00  0.00    +0.000 A 
ATOM      9  C   UNL     1       6.833   5.780  16.580  0.00  0.00    +0.000 A 
ATOM     10  C   UNL     1       5.781   4.996  17.056  0.00  0.00    +0.000 A 
ATOM     11 CL   UNL     1       4.687   4.302  15.907  0.00  0.00    +0.000 Cl
ENDBRANCH   3   5
BRANCH   1  12
ATOM     12  C   UNL     1       2.131   3.629  19.593  0.00  0.00    +0.000 C 
ATOM     13  C   UNL     1       1.086   4.370  20.450  0.00  0.00    +0.000 C 
BRANCH  12  14
ATOM     14  C   UNL     1       1.435   3.092  18.318  0.00  0.00    +0.000 C 
ATOM     15  F   UNL     1       2.258   2.281  17.603  0.00  0.00    +0.000 F 
ATOM     16  F   UNL     1       0.326   2.364  18.591  0.00  0.00    +0.000 F 
ATOM     17  F   UNL     1       1.054   4.071  17.464  0.00  0.00    +0.000 F 
ENDBRANCH  12  14
BRANCH  12  19
ATOM     18  C   UNL     1       2.425   2.495  21.732  0.00  0.00    +0.000 C 
ATOM     19  O   UNL     1       2.693   2.521  20.336  0.00  0.00    +0.000 OA
ENDBRANCH  12  19
ENDBRANCH   1  12
TORSDOF 4
ENDMDL
