MODEL 1
REMARK VINA RESULT:      -7.0      0.000      0.000
REMARK  Name = 
REMARK  5 active torsions:
REMARK  status: ('A' for Active; 'I' for Inactive)
REMARK    1  A    between atoms: S_2  and  O_4
REMARK    2  A    between atoms: S_2  and  C_5
REMARK    3  A    between atoms: C_7  and  O_8
REMARK    4  A    between atoms: C_9  and  N_10
REMARK    5  A    between atoms: N_11  and  C_12
REMARK                            x       y       z     vdW  Elec       q    Type
REMARK                         _______ _______ _______ _____ _____    ______ ____
ROOT
ATOM      1  C   UNL     1      -0.410  10.541  21.173  0.00  0.00    +0.000 A 
ATOM      2  C   UNL     1      -0.396  11.553  22.134  0.00  0.00    +0.000 A 
ATOM      3  C   UNL     1      -1.122  12.711  21.900  0.00  0.00    +0.000 A 
ATOM      4  C   UNL     1      -1.914  12.869  20.752  0.00  0.00    +0.000 A 
ATOM      5  C   UNL     1      -1.715  11.964  19.688  0.00  0.00    +0.000 A 
ATOM      6  C   UNL     1      -2.188  12.266  18.393  0.00  0.00    +0.000 A 
ATOM      7  C   UNL     1      -2.089  11.366  17.344  0.00  0.00    +0.000 A 
ATOM      8  C   UNL     1      -1.463  10.150  17.558  0.00  0.00    +0.000 A 
ATOM      9  C   UNL     1      -0.925   9.849  18.810  0.00  0.00    +0.000 A 
ATOM     10  C   UNL     1      -1.010  10.746  19.902  0.00  0.00    +0.000 A 
ENDROOT
BRANCH   1  12
ATOM     11  O   UNL     1       1.425   8.753  20.595  0.00  0.00    +0.000 OA
ATOM     12  S   UNL     1       0.410   9.029  21.594  0.00  0.00    +0.000 S 
ATOM     13  O   UNL     1      -0.611   8.047  21.897  0.00  0.00    +0.000 OA
BRANCH  12  14
ATOM     14  O   UNL     1       1.220   9.315  22.953  0.00  0.00    +0.000 OA
ATOM     15  H   UNL     1       2.135   9.570  22.710  0.00  0.00    +0.000 HD
ENDBRANCH  12  14
ENDBRANCH   1  12
BRANCH   3  16
ATOM     16  O   UNL     1      -0.998  13.746  22.792  0.00  0.00    +0.000 OA
ATOM     17  H   UNL     1      -0.729  14.539  22.291  0.00  0.00    +0.000 HD
ENDBRANCH   3  16
BRANCH   4  18
ATOM     18  N   UNL     1      -2.737  14.011  20.650  0.00  0.00    +0.000 NA
ATOM     19  N   UNL     1      -3.844  14.098  21.234  0.00  0.00    +0.000 NA
BRANCH  19  20
ATOM     20  C   UNL     1      -4.618  13.018  21.920  0.00  0.00    +0.000 C 
ATOM     21  S   UNL     1      -4.812  13.301  23.678  0.00  0.00    +0.000 S 
ATOM     22  O   UNL     1      -3.623  12.778  24.331  0.00  0.00    +0.000 OA
ATOM     23  O   UNL     1      -5.229  14.663  23.930  0.00  0.00    +0.000 OA
ATOM     24  O   UNL     1      -6.027  12.309  24.120  0.00  0.00    +0.000 OA
ATOM     25  C   UNL     1      -7.379  12.702  23.912  0.00  0.00    +0.000 C 
ATOM     26  C   UNL     1      -7.916  11.841  22.781  0.00  0.00    +0.000 C 
ATOM     27  O   UNL     1      -6.859  11.559  21.869  0.00  0.00    +0.000 OA
ATOM     28  S   UNL     1      -6.179  12.789  21.045  0.00  0.00    +0.000 S 
ATOM     29  O   UNL     1      -7.025  13.957  21.179  0.00  0.00    +0.000 OA
ATOM     30  O   UNL     1      -5.891  12.259  19.724  0.00  0.00    +0.000 OA
ENDBRANCH  19  20
ENDBRANCH   4  18
TORSDOF 5
ENDMDL
MODEL 2
REMARK VINA RESULT:      -6.3      1.691      2.017
REMARK  Name = 
REMARK  5 active torsions:
REMARK  status: ('A' for Active; 'I' for Inactive)
REMARK    1  A    between atoms: S_2  and  O_4
REMARK    2  A    between atoms: S_2  and  C_5
REMARK    3  A    between atoms: C_7  and  O_8
REMARK    4  A    between atoms: C_9  and  N_10
REMARK    5  A    between atoms: N_11  and  C_12
REMARK                            x       y       z     vdW  Elec       q    Type
REMARK                         _______ _______ _______ _____ _____    ______ ____
ROOT
ATOM      1  C   UNL     1      -0.219  10.934  22.045  0.00  0.00    +0.000 A 
ATOM      2  C   UNL     1      -1.047  11.532  22.995  0.00  0.00    +0.000 A 
ATOM      3  C   UNL     1      -1.756  12.671  22.645  0.00  0.00    +0.000 A 
ATOM      4  C   UNL     1      -1.708  13.204  21.347  0.00  0.00    +0.000 A 
ATOM      5  C   UNL     1      -0.685  12.748  20.489  0.00  0.00    +0.000 A 
ATOM      6  C   UNL     1      -0.345  13.479  19.330  0.00  0.00    +0.000 A 
ATOM      7  C   UNL     1       0.593  13.019  18.418  0.00  0.00    +0.000 A 
ATOM      8  C   UNL     1       1.253  11.830  18.674  0.00  0.00    +0.000 A 
ATOM      9  C   UNL     1       0.988  11.119  19.846  0.00  0.00    +0.000 A 
ATOM     10  C   UNL     1       0.036  11.559  20.797  0.00  0.00    +0.000 A 
ENDROOT
BRANCH   1  12
ATOM     11  O   UNL     1       1.960   9.624  22.705  0.00  0.00    +0.000 OA
ATOM     12  S   UNL     1       0.541   9.400  22.502  0.00  0.00    +0.000 S 
ATOM     13  O   UNL     1       0.081   8.390  21.571  0.00  0.00    +0.000 OA
BRANCH  12  14
ATOM     14  O   UNL     1      -0.040   9.020  23.951  0.00  0.00    +0.000 OA
ATOM     15  H   UNL     1      -0.298   8.074  23.935  0.00  0.00    +0.000 HD
ENDBRANCH  12  14
ENDBRANCH   1  12
BRANCH   3  16
ATOM     16  O   UNL     1      -2.466  13.321  23.623  0.00  0.00    +0.000 OA
ATOM     17  H   UNL     1      -2.232  12.916  24.478  0.00  0.00    +0.000 HD
ENDBRANCH   3  16
BRANCH   4  18
ATOM     18  N   UNL     1      -2.567  14.277  21.024  0.00  0.00    +0.000 NA
ATOM     19  N   UNL     1      -3.816  14.159  21.006  0.00  0.00    +0.000 NA
BRANCH  19  20
ATOM     20  C   UNL     1      -4.630  12.907  21.073  0.00  0.00    +0.000 C 
ATOM     21  S   UNL     1      -5.911  12.967  22.323  0.00  0.00    +0.000 S 
ATOM     22  O   UNL     1      -5.303  12.564  23.581  0.00  0.00    +0.000 OA
ATOM     23  O   UNL     1      -6.638  14.215  22.246  0.00  0.00    +0.000 OA
ATOM     24  O   UNL     1      -6.930  11.760  21.924  0.00  0.00    +0.000 OA
ATOM     25  C   UNL     1      -7.913  11.963  20.914  0.00  0.00    +0.000 C 
ATOM     26  C   UNL     1      -7.470  11.156  19.704  0.00  0.00    +0.000 C 
ATOM     27  O   UNL     1      -6.047  11.138  19.653  0.00  0.00    +0.000 OA
ATOM     28  S   UNL     1      -5.247  12.538  19.418  0.00  0.00    +0.000 S 
ATOM     29  O   UNL     1      -6.196  13.543  18.983  0.00  0.00    +0.000 OA
ATOM     30  O   UNL     1      -4.118  12.202  18.571  0.00  0.00    +0.000 OA
ENDBRANCH  19  20
ENDBRANCH   4  18
TORSDOF 5
ENDMDL
MODEL 3
REMARK VINA RESULT:      -6.2      3.629      6.767
REMARK  Name = 
REMARK  5 active torsions:
REMARK  status: ('A' for Active; 'I' for Inactive)
REMARK    1  A    between atoms: S_2  and  O_4
REMARK    2  A    between atoms: S_2  and  C_5
REMARK    3  A    between atoms: C_7  and  O_8
REMARK    4  A    between atoms: C_9  and  N_10
REMARK    5  A    between atoms: N_11  and  C_12
REMARK                            x       y       z     vdW  Elec       q    Type
REMARK                         _______ _______ _______ _____ _____    ______ ____
ROOT
ATOM      1  C   UNL     1      -3.268  12.571  20.821  0.00  0.00    +0.000 A 
ATOM      2  C   UNL     1      -2.573  12.712  22.023  0.00  0.00    +0.000 A 
ATOM      3  C   UNL     1      -1.241  12.330  22.076  0.00  0.00    +0.000 A 
ATOM      4  C   UNL     1      -0.559  11.862  20.943  0.00  0.00    +0.000 A 
ATOM      5  C   UNL     1      -1.329  11.487  19.822  0.00  0.00    +0.000 A 
ATOM      6  C   UNL     1      -0.772  10.680  18.807  0.00  0.00    +0.000 A 
ATOM      7  C   UNL     1      -1.469  10.364  17.651  0.00  0.00    +0.000 A 
ATOM      8  C   UNL     1      -2.770  10.812  17.506  0.00  0.00    +0.000 A 
ATOM      9  C   UNL     1      -3.373  11.555  18.523  0.00  0.00    +0.000 A 
ATOM     10  C   UNL     1      -2.689  11.896  19.715  0.00  0.00    +0.000 A 
ENDROOT
BRANCH   1  12
ATOM     11  O   UNL     1      -5.131  14.039  21.948  0.00  0.00    +0.000 OA
ATOM     12  S   UNL     1      -4.918  13.215  20.773  0.00  0.00    +0.000 S 
ATOM     13  O   UNL     1      -5.809  12.113  20.475  0.00  0.00    +0.000 OA
BRANCH  12  14
ATOM     14  O   UNL     1      -4.973  14.230  19.528  0.00  0.00    +0.000 OA
ATOM     15  H   UNL     1      -5.735  14.832  19.663  0.00  0.00    +0.000 HD
ENDBRANCH  12  14
ENDBRANCH   1  12
BRANCH   3  16
ATOM     16  O   UNL     1      -0.607  12.355  23.293  0.00  0.00    +0.000 OA
ATOM     17  H   UNL     1      -0.918  13.145  23.773  0.00  0.00    +0.000 HD
ENDBRANCH   3  16
BRANCH   4  18
ATOM     18  N   UNL     1       0.830  11.630  21.037  0.00  0.00    +0.000 NA
ATOM     19  N   UNL     1       1.673  12.558  20.997  0.00  0.00    +0.000 NA
BRANCH  19  20
ATOM     20  C   UNL     1       1.458  13.990  20.623  0.00  0.00    +0.000 C 
ATOM     21  S   UNL     1       1.833  15.128  21.953  0.00  0.00    +0.000 S 
ATOM     22  O   UNL     1       0.642  15.230  22.780  0.00  0.00    +0.000 OA
ATOM     23  O   UNL     1       3.104  14.797  22.562  0.00  0.00    +0.000 OA
ATOM     24  O   UNL     1       1.984  16.577  21.222  0.00  0.00    +0.000 OA
ATOM     25  C   UNL     1       3.206  16.928  20.583  0.00  0.00    +0.000 C 
ATOM     26  C   UNL     1       2.942  16.895  19.087  0.00  0.00    +0.000 C 
ATOM     27  O   UNL     1       1.982  15.882  18.805  0.00  0.00    +0.000 OA
ATOM     28  S   UNL     1       2.367  14.326  19.101  0.00  0.00    +0.000 S 
ATOM     29  O   UNL     1       3.796  14.239  19.321  0.00  0.00    +0.000 OA
ATOM     30  O   UNL     1       1.758  13.565  18.025  0.00  0.00    +0.000 OA
ENDBRANCH  19  20
ENDBRANCH   4  18
TORSDOF 5
ENDMDL
MODEL 4
REMARK VINA RESULT:      -6.1      4.228      7.073
REMARK  Name = 
REMARK  5 active torsions:
REMARK  status: ('A' for Active; 'I' for Inactive)
REMARK    1  A    between atoms: S_2  and  O_4
REMARK    2  A    between atoms: S_2  and  C_5
REMARK    3  A    between atoms: C_7  and  O_8
REMARK    4  A    between atoms: C_9  and  N_10
REMARK    5  A    between atoms: N_11  and  C_12
REMARK                            x       y       z     vdW  Elec       q    Type
REMARK                         _______ _______ _______ _____ _____    ______ ____
ROOT
ATOM      1  C   UNL     1      -0.177  10.669  21.427  0.00  0.00    +0.000 A 
ATOM      2  C   UNL     1       0.418  10.743  20.167  0.00  0.00    +0.000 A 
ATOM      3  C   UNL     1       0.226  11.882  19.400  0.00  0.00    +0.000 A 
ATOM      4  C   UNL     1      -0.501  12.983  19.879  0.00  0.00    +0.000 A 
ATOM      5  C   UNL     1      -1.299  12.793  21.027  0.00  0.00    +0.000 A 
ATOM      6  C   UNL     1      -2.321  13.712  21.349  0.00  0.00    +0.000 A 
ATOM      7  C   UNL     1      -3.066  13.607  22.513  0.00  0.00    +0.000 A 
ATOM      8  C   UNL     1      -2.837  12.540  23.364  0.00  0.00    +0.000 A 
ATOM      9  C   UNL     1      -1.880  11.576  23.039  0.00  0.00    +0.000 A 
ATOM     10  C   UNL     1      -1.102  11.655  21.860  0.00  0.00    +0.000 A 
ENDROOT
BRANCH   1  12
ATOM     11  O   UNL     1      -0.762   8.223  22.184  0.00  0.00    +0.000 OA
ATOM     12  S   UNL     1       0.228   9.257  22.418  0.00  0.00    +0.000 S 
ATOM     13  O   UNL     1       0.497   9.729  23.761  0.00  0.00    +0.000 OA
BRANCH  12  14
ATOM     14  O   UNL     1       1.603   8.669  21.830  0.00  0.00    +0.000 OA
ATOM     15  H   UNL     1       2.241   8.596  22.571  0.00  0.00    +0.000 HD
ENDBRANCH  12  14
ENDBRANCH   1  12
BRANCH   3  16
ATOM     16  O   UNL     1       0.709  11.890  18.116  0.00  0.00    +0.000 OA
ATOM     17  H   UNL     1       0.670  10.976  17.778  0.00  0.00    +0.000 HD
ENDBRANCH   3  16
BRANCH   4  18
ATOM     18  N   UNL     1      -0.533  14.161  19.103  0.00  0.00    +0.000 NA
ATOM     19  N   UNL     1       0.473  14.894  18.948  0.00  0.00    +0.000 NA
BRANCH  19  20
ATOM     20  C   UNL     1       1.777  14.846  19.680  0.00  0.00    +0.000 C 
ATOM     21  S   UNL     1       3.192  14.734  18.589  0.00  0.00    +0.000 S 
ATOM     22  O   UNL     1       3.385  13.327  18.280  0.00  0.00    +0.000 OA
ATOM     23  O   UNL     1       3.082  15.696  17.514  0.00  0.00    +0.000 OA
ATOM     24  O   UNL     1       4.461  15.155  19.520  0.00  0.00    +0.000 OA
ATOM     25  C   UNL     1       4.752  16.530  19.748  0.00  0.00    +0.000 C 
ATOM     26  C   UNL     1       4.387  16.820  21.194  0.00  0.00    +0.000 C 
ATOM     27  O   UNL     1       3.275  16.012  21.565  0.00  0.00    +0.000 OA
ATOM     28  S   UNL     1       1.845  16.245  20.817  0.00  0.00    +0.000 S 
ATOM     29  O   UNL     1       1.903  17.499  20.093  0.00  0.00    +0.000 OA
ATOM     30  O   UNL     1       0.836  16.054  21.843  0.00  0.00    +0.000 OA
ENDBRANCH  19  20
ENDBRANCH   4  18
TORSDOF 5
ENDMDL
MODEL 5
REMARK VINA RESULT:      -5.9      2.441      6.991
REMARK  Name = 
REMARK  5 active torsions:
REMARK  status: ('A' for Active; 'I' for Inactive)
REMARK    1  A    between atoms: S_2  and  O_4
REMARK    2  A    between atoms: S_2  and  C_5
REMARK    3  A    between atoms: C_7  and  O_8
REMARK    4  A    between atoms: C_9  and  N_10
REMARK    5  A    between atoms: N_11  and  C_12
REMARK                            x       y       z     vdW  Elec       q    Type
REMARK                         _______ _______ _______ _____ _____    ______ ____
ROOT
ATOM      1  C   UNL     1      -5.068  12.569  20.822  0.00  0.00    +0.000 A 
ATOM      2  C   UNL     1      -4.116  12.949  19.875  0.00  0.00    +0.000 A 
ATOM      3  C   UNL     1      -2.828  13.240  20.298  0.00  0.00    +0.000 A 
ATOM      4  C   UNL     1      -2.441  13.108  21.640  0.00  0.00    +0.000 A 
ATOM      5  C   UNL     1      -3.461  12.978  22.607  0.00  0.00    +0.000 A 
ATOM      6  C   UNL     1      -3.188  13.207  23.972  0.00  0.00    +0.000 A 
ATOM      7  C   UNL     1      -4.141  13.004  24.959  0.00  0.00    +0.000 A 
ATOM      8  C   UNL     1      -5.415  12.611  24.591  0.00  0.00    +0.000 A 
ATOM      9  C   UNL     1      -5.736  12.442  23.243  0.00  0.00    +0.000 A 
ATOM     10  C   UNL     1      -4.787  12.639  22.212  0.00  0.00    +0.000 A 
ENDROOT
BRANCH   1  12
ATOM     11  O   UNL     1      -7.598  13.143  20.415  0.00  0.00    +0.000 OA
ATOM     12  S   UNL     1      -6.650  12.065  20.205  0.00  0.00    +0.000 S 
ATOM     13  O   UNL     1      -6.917  10.738  20.721  0.00  0.00    +0.000 OA
BRANCH  12  14
ATOM     14  O   UNL     1      -6.496  11.940  18.610  0.00  0.00    +0.000 OA
ATOM     15  H   UNL     1      -5.573  11.673  18.416  0.00  0.00    +0.000 HD
ENDBRANCH  12  14
ENDBRANCH   1  12
BRANCH   3  16
ATOM     16  O   UNL     1      -1.938  13.733  19.377  0.00  0.00    +0.000 OA
ATOM     17  H   UNL     1      -2.113  14.687  19.276  0.00  0.00    +0.000 HD
ENDBRANCH   3  16
BRANCH   4  18
ATOM     18  N   UNL     1      -1.081  13.281  21.973  0.00  0.00    +0.000 NA
ATOM     19  N   UNL     1      -0.196  12.455  21.643  0.00  0.00    +0.000 NA
BRANCH  19  20
ATOM     20  C   UNL     1      -0.373  11.080  21.082  0.00  0.00    +0.000 C 
ATOM     21  S   UNL     1       0.342  10.889  19.452  0.00  0.00    +0.000 S 
ATOM     22  O   UNL     1      -0.651  11.341  18.491  0.00  0.00    +0.000 OA
ATOM     23  O   UNL     1       1.679  11.441  19.415  0.00  0.00    +0.000 OA
ATOM     24  O   UNL     1       0.453   9.277  19.240  0.00  0.00    +0.000 OA
ATOM     25  C   UNL     1       1.547   8.558  19.800  0.00  0.00    +0.000 C 
ATOM     26  C   UNL     1       0.990   7.745  20.956  0.00  0.00    +0.000 C 
ATOM     27  O   UNL     1      -0.079   8.465  21.560  0.00  0.00    +0.000 OA
ATOM     28  S   UNL     1       0.239   9.887  22.289  0.00  0.00    +0.000 S 
ATOM     29  O   UNL     1       1.674  10.009  22.455  0.00  0.00    +0.000 OA
ATOM     30  O   UNL     1      -0.625   9.928  23.454  0.00  0.00    +0.000 OA
ENDBRANCH  19  20
ENDBRANCH   4  18
TORSDOF 5
ENDMDL
MODEL 6
REMARK VINA RESULT:      -5.8      2.416      6.947
REMARK  Name = 
REMARK  5 active torsions:
REMARK  status: ('A' for Active; 'I' for Inactive)
REMARK    1  A    between atoms: S_2  and  O_4
REMARK    2  A    between atoms: S_2  and  C_5
REMARK    3  A    between atoms: C_7  and  O_8
REMARK    4  A    between atoms: C_9  and  N_10
REMARK    5  A    between atoms: N_11  and  C_12
REMARK                            x       y       z     vdW  Elec       q    Type
REMARK                         _______ _______ _______ _____ _____    ______ ____
ROOT
ATOM      1  C   UNL     1      -5.534  13.255  22.367  0.00  0.00    +0.000 A 
ATOM      2  C   UNL     1      -5.330  12.749  21.083  0.00  0.00    +0.000 A 
ATOM      3  C   UNL     1      -4.200  13.138  20.380  0.00  0.00    +0.000 A 
ATOM      4  C   UNL     1      -3.229  13.979  20.945  0.00  0.00    +0.000 A 
ATOM      5  C   UNL     1      -3.571  14.677  22.122  0.00  0.00    +0.000 A 
ATOM      6  C   UNL     1      -2.815  15.794  22.538  0.00  0.00    +0.000 A 
ATOM      7  C   UNL     1      -3.068  16.451  23.733  0.00  0.00    +0.000 A 
ATOM      8  C   UNL     1      -4.124  16.030  24.521  0.00  0.00    +0.000 A 
ATOM      9  C   UNL     1      -4.933  14.972  24.104  0.00  0.00    +0.000 A 
ATOM     10  C   UNL     1      -4.702  14.279  22.891  0.00  0.00    +0.000 A 
ENDROOT
BRANCH   1  12
ATOM     11  O   UNL     1      -7.904  13.654  23.426  0.00  0.00    +0.000 OA
ATOM     12  S   UNL     1      -6.912  12.606  23.271  0.00  0.00    +0.000 S 
ATOM     13  O   UNL     1      -6.387  11.911  24.428  0.00  0.00    +0.000 OA
BRANCH  12  14
ATOM     14  O   UNL     1      -7.601  11.508  22.321  0.00  0.00    +0.000 OA
ATOM     15  H   UNL     1      -7.140  11.526  21.456  0.00  0.00    +0.000 HD
ENDBRANCH  12  14
ENDBRANCH   1  12
BRANCH   3  16
ATOM     16  O   UNL     1      -4.075  12.733  19.074  0.00  0.00    +0.000 OA
ATOM     17  H   UNL     1      -4.314  13.489  18.506  0.00  0.00    +0.000 HD
ENDBRANCH   3  16
BRANCH   4  18
ATOM     18  N   UNL     1      -2.037  14.215  20.226  0.00  0.00    +0.000 NA
ATOM     19  N   UNL     1      -1.222  13.302  19.953  0.00  0.00    +0.000 NA
BRANCH  19  20
ATOM     20  C   UNL     1      -1.184  11.904  20.484  0.00  0.00    +0.000 C 
ATOM     21  S   UNL     1      -0.848  10.681  19.220  0.00  0.00    +0.000 S 
ATOM     22  O   UNL     1      -2.119  10.344  18.599  0.00  0.00    +0.000 OA
ATOM     23  O   UNL     1       0.266  11.096  18.395  0.00  0.00    +0.000 OA
ATOM     24  O   UNL     1      -0.399   9.351  20.047  0.00  0.00    +0.000 OA
ATOM     25  C   UNL     1       0.938   9.223  20.519  0.00  0.00    +0.000 C 
ATOM     26  C   UNL     1       0.886   9.388  22.029  0.00  0.00    +0.000 C 
ATOM     27  O   UNL     1      -0.154  10.301  22.362  0.00  0.00    +0.000 OA
ATOM     28  S   UNL     1      -0.032  11.850  21.871  0.00  0.00    +0.000 S 
ATOM     29  O   UNL     1       1.326  12.087  21.426  0.00  0.00    +0.000 OA
ATOM     30  O   UNL     1      -0.581  12.645  22.955  0.00  0.00    +0.000 OA
ENDBRANCH  19  20
ENDBRANCH   4  18
TORSDOF 5
ENDMDL
MODEL 7
REMARK VINA RESULT:      -5.8      1.954      2.415
REMARK  Name = 
REMARK  5 active torsions:
REMARK  status: ('A' for Active; 'I' for Inactive)
REMARK    1  A    between atoms: S_2  and  O_4
REMARK    2  A    between atoms: S_2  and  C_5
REMARK    3  A    between atoms: C_7  and  O_8
REMARK    4  A    between atoms: C_9  and  N_10
REMARK    5  A    between atoms: N_11  and  C_12
REMARK                            x       y       z     vdW  Elec       q    Type
REMARK                         _______ _______ _______ _____ _____    ______ ____
ROOT
ATOM      1  C   UNL     1       0.406  10.446  20.551  0.00  0.00    +0.000 A 
ATOM      2  C   UNL     1       1.030  11.494  21.228  0.00  0.00    +0.000 A 
ATOM      3  C   UNL     1       0.674  12.798  20.920  0.00  0.00    +0.000 A 
ATOM      4  C   UNL     1      -0.334  13.091  19.988  0.00  0.00    +0.000 A 
ATOM      5  C   UNL     1      -0.763  12.049  19.138  0.00  0.00    +0.000 A 
ATOM      6  C   UNL     1      -1.483  12.338  17.959  0.00  0.00    +0.000 A 
ATOM      7  C   UNL     1      -1.997  11.339  17.146  0.00  0.00    +0.000 A 
ATOM      8  C   UNL     1      -1.756  10.016  17.473  0.00  0.00    +0.000 A 
ATOM      9  C   UNL     1      -0.989   9.699  18.596  0.00  0.00    +0.000 A 
ATOM     10  C   UNL     1      -0.452  10.694  19.447  0.00  0.00    +0.000 A 
ENDROOT
BRANCH   1  12
ATOM     11  O   UNL     1       1.587   8.149  20.074  0.00  0.00    +0.000 OA
ATOM     12  S   UNL     1       0.790   8.804  21.094  0.00  0.00    +0.000 S 
ATOM     13  O   UNL     1      -0.439   8.202  21.568  0.00  0.00    +0.000 OA
BRANCH  12  14
ATOM     14  O   UNL     1       1.768   8.963  22.360  0.00  0.00    +0.000 OA
ATOM     15  H   UNL     1       2.177   8.089  22.536  0.00  0.00    +0.000 HD
ENDBRANCH  12  14
ENDBRANCH   1  12
BRANCH   3  16
ATOM     16  O   UNL     1       1.383  13.820  21.501  0.00  0.00    +0.000 OA
ATOM     17  H   UNL     1       2.009  13.423  22.135  0.00  0.00    +0.000 HD
ENDBRANCH   3  16
BRANCH   4  18
ATOM     18  N   UNL     1      -0.742  14.433  19.831  0.00  0.00    +0.000 NA
ATOM     19  N   UNL     1      -1.466  15.020  20.671  0.00  0.00    +0.000 NA
BRANCH  19  20
ATOM     20  C   UNL     1      -2.217  14.429  21.822  0.00  0.00    +0.000 C 
ATOM     21  S   UNL     1      -1.830  15.207  23.387  0.00  0.00    +0.000 S 
ATOM     22  O   UNL     1      -0.641  14.554  23.909  0.00  0.00    +0.000 OA
ATOM     23  O   UNL     1      -1.859  16.649  23.259  0.00  0.00    +0.000 OA
ATOM     24  O   UNL     1      -3.045  14.761  24.377  0.00  0.00    +0.000 OA
ATOM     25  C   UNL     1      -4.285  15.459  24.342  0.00  0.00    +0.000 C 
ATOM     26  C   UNL     1      -5.295  14.524  23.698  0.00  0.00    +0.000 C 
ATOM     27  O   UNL     1      -4.632  13.720  22.728  0.00  0.00    +0.000 OA
ATOM     28  S   UNL     1      -3.976  14.439  21.421  0.00  0.00    +0.000 S 
ATOM     29  O   UNL     1      -4.481  15.795  21.339  0.00  0.00    +0.000 OA
ATOM     30  O   UNL     1      -4.201  13.521  20.319  0.00  0.00    +0.000 OA
ENDBRANCH  19  20
ENDBRANCH   4  18
TORSDOF 5
ENDMDL
MODEL 8
REMARK VINA RESULT:      -5.7      8.144     10.156
REMARK  Name = 
REMARK  5 active torsions:
REMARK  status: ('A' for Active; 'I' for Inactive)
REMARK    1  A    between atoms: S_2  and  O_4
REMARK    2  A    between atoms: S_2  and  C_5
REMARK    3  A    between atoms: C_7  and  O_8
REMARK    4  A    between atoms: C_9  and  N_10
REMARK    5  A    between atoms: N_11  and  C_12
REMARK                            x       y       z     vdW  Elec       q    Type
REMARK                         _______ _______ _______ _____ _____    ______ ____
ROOT
ATOM      1  C   UNL     1       9.200  12.719  19.419  0.00  0.00    +0.000 A 
ATOM      2  C   UNL     1       8.555  13.338  18.349  0.00  0.00    +0.000 A 
ATOM      3  C   UNL     1       7.699  14.400  18.604  0.00  0.00    +0.000 A 
ATOM      4  C   UNL     1       7.510  14.903  19.900  0.00  0.00    +0.000 A 
ATOM      5  C   UNL     1       7.959  14.116  20.981  0.00  0.00    +0.000 A 
ATOM      6  C   UNL     1       7.490  14.362  22.290  0.00  0.00    +0.000 A 
ATOM      7  C   UNL     1       7.973  13.668  23.388  0.00  0.00    +0.000 A 
ATOM      8  C   UNL     1       8.909  12.667  23.193  0.00  0.00    +0.000 A 
ATOM      9  C   UNL     1       9.341  12.353  21.904  0.00  0.00    +0.000 A 
ATOM     10  C   UNL     1       8.870  13.043  20.761  0.00  0.00    +0.000 A 
ENDROOT
BRANCH   1  12
ATOM     11  O   UNL     1       9.788  10.168  19.208  0.00  0.00    +0.000 OA
ATOM     12  S   UNL     1      10.393  11.473  19.018  0.00  0.00    +0.000 S 
ATOM     13  O   UNL     1      11.628  11.816  19.692  0.00  0.00    +0.000 OA
BRANCH  12  14
ATOM     14  O   UNL     1      10.659  11.590  17.438  0.00  0.00    +0.000 OA
ATOM     15  H   UNL     1      10.125  12.339  17.097  0.00  0.00    +0.000 HD
ENDBRANCH  12  14
ENDBRANCH   1  12
BRANCH   3  16
ATOM     16  O   UNL     1       6.976  14.917  17.559  0.00  0.00    +0.000 OA
ATOM     17  H   UNL     1       6.319  15.534  17.930  0.00  0.00    +0.000 HD
ENDBRANCH   3  16
BRANCH   4  18
ATOM     18  N   UNL     1       6.739  16.074  20.065  0.00  0.00    +0.000 NA
ATOM     19  N   UNL     1       5.495  16.045  20.226  0.00  0.00    +0.000 NA
BRANCH  19  20
ATOM     20  C   UNL     1       4.564  14.888  20.051  0.00  0.00    +0.000 C 
ATOM     21  S   UNL     1       3.684  14.461  21.550  0.00  0.00    +0.000 S 
ATOM     22  O   UNL     1       4.543  13.573  22.315  0.00  0.00    +0.000 OA
ATOM     23  O   UNL     1       3.140  15.648  22.175  0.00  0.00    +0.000 OA
ATOM     24  O   UNL     1       2.439  13.538  21.045  0.00  0.00    +0.000 OA
ATOM     25  C   UNL     1       1.261  14.150  20.533  0.00  0.00    +0.000 C 
ATOM     26  C   UNL     1       1.251  13.893  19.035  0.00  0.00    +0.000 C 
ATOM     27  O   UNL     1       2.592  13.871  18.557  0.00  0.00    +0.000 OA
ATOM     28  S   UNL     1       3.485  15.231  18.647  0.00  0.00    +0.000 S 
ATOM     29  O   UNL     1       2.601  16.344  18.932  0.00  0.00    +0.000 OA
ATOM     30  O   UNL     1       4.291  15.245  17.440  0.00  0.00    +0.000 OA
ENDBRANCH  19  20
ENDBRANCH   4  18
TORSDOF 5
ENDMDL
MODEL 9
REMARK VINA RESULT:      -5.7      1.389      1.681
REMARK  Name = 
REMARK  5 active torsions:
REMARK  status: ('A' for Active; 'I' for Inactive)
REMARK    1  A    between atoms: S_2  and  O_4
REMARK    2  A    between atoms: S_2  and  C_5
REMARK    3  A    between atoms: C_7  and  O_8
REMARK    4  A    between atoms: C_9  and  N_10
REMARK    5  A    between atoms: N_11  and  C_12
REMARK                            x       y       z     vdW  Elec       q    Type
REMARK                         _______ _______ _______ _____ _____    ______ ____
ROOT
ATOM      1  C   UNL     1      -0.242  10.830  21.774  0.00  0.00    +0.000 A 
ATOM      2  C   UNL     1      -0.839  11.271  22.955  0.00  0.00    +0.000 A 
ATOM      3  C   UNL     1      -1.539  12.468  22.947  0.00  0.00    +0.000 A 
ATOM      4  C   UNL     1      -1.712  13.216  21.773  0.00  0.00    +0.000 A 
ATOM      5  C   UNL     1      -0.899  12.897  20.665  0.00  0.00    +0.000 A 
ATOM      6  C   UNL     1      -0.747  13.810  19.600  0.00  0.00    +0.000 A 
ATOM      7  C   UNL     1      -0.028  13.497  18.457  0.00  0.00    +0.000 A 
ATOM      8  C   UNL     1       0.604  12.269  18.376  0.00  0.00    +0.000 A 
ATOM      9  C   UNL     1       0.530  11.370  19.442  0.00  0.00    +0.000 A 
ATOM     10  C   UNL     1      -0.197  11.658  20.621  0.00  0.00    +0.000 A 
ENDROOT
BRANCH   1  12
ATOM     11  O   UNL     1      -0.507   8.244  22.145  0.00  0.00    +0.000 OA
ATOM     12  S   UNL     1       0.508   9.225  21.809  0.00  0.00    +0.000 S 
ATOM     13  O   UNL     1       1.722   9.327  22.592  0.00  0.00    +0.000 OA
BRANCH  12  14
ATOM     14  O   UNL     1       0.936   8.891  20.297  0.00  0.00    +0.000 OA
ATOM     15  H   UNL     1       1.837   9.249  20.152  0.00  0.00    +0.000 HD
ENDBRANCH  12  14
ENDBRANCH   1  12
BRANCH   3  16
ATOM     16  O   UNL     1      -2.013  12.952  24.140  0.00  0.00    +0.000 OA
ATOM     17  H   UNL     1      -1.359  13.590  24.481  0.00  0.00    +0.000 HD
ENDBRANCH   3  16
BRANCH   4  18
ATOM     18  N   UNL     1      -2.557  14.346  21.809  0.00  0.00    +0.000 NA
ATOM     19  N   UNL     1      -3.778  14.267  22.088  0.00  0.00    +0.000 NA
BRANCH  19  20
ATOM     20  C   UNL     1      -4.626  13.040  22.200  0.00  0.00    +0.000 C 
ATOM     21  S   UNL     1      -5.622  13.007  23.687  0.00  0.00    +0.000 S 
ATOM     22  O   UNL     1      -4.794  12.455  24.747  0.00  0.00    +0.000 OA
ATOM     23  O   UNL     1      -6.285  14.278  23.883  0.00  0.00    +0.000 OA
ATOM     24  O   UNL     1      -6.762  11.880  23.391  0.00  0.00    +0.000 OA
ATOM     25  C   UNL     1      -7.917  12.218  22.631  0.00  0.00    +0.000 C 
ATOM     26  C   UNL     1      -7.770  11.531  21.284  0.00  0.00    +0.000 C 
ATOM     27  O   UNL     1      -6.390  11.474  20.938  0.00  0.00    +0.000 OA
ATOM     28  S   UNL     1      -5.583  12.866  20.680  0.00  0.00    +0.000 S 
ATOM     29  O   UNL     1      -6.547  13.940  20.550  0.00  0.00    +0.000 OA
ATOM     30  O   UNL     1      -4.667  12.587  19.590  0.00  0.00    +0.000 OA
ENDBRANCH  19  20
ENDBRANCH   4  18
TORSDOF 5
ENDMDL
