MODEL 1
REMARK VINA RESULT:      -8.6      0.000      0.000
REMARK  Name = 
REMARK  9 active torsions:
REMARK  status: ('A' for Active; 'I' for Inactive)
REMARK    1  A    between atoms: N_1  and  C_2
REMARK    2  A    between atoms: C_2  and  C_3
REMARK    3  A    between atoms: C_2  and  C_29
REMARK    4  A    between atoms: C_3  and  O_4
REMARK    5  A    between atoms: O_4  and  C_5
REMARK    6  A    between atoms: C_8  and  C_9
REMARK    7  A    between atoms: C_10  and  C_11
REMARK    8  A    between atoms: C_17  and  C_18
REMARK    9  A    between atoms: C_29  and  C_30
REMARK                            x       y       z     vdW  Elec       q    Type
REMARK                         _______ _______ _______ _____ _____    ______ ____
ROOT
ATOM      1  C   UNL     1       1.112   9.763  18.917  0.00  0.00    +0.000 A 
ATOM      2  C   UNL     1       0.229   9.615  17.860  0.00  0.00    +0.000 A 
ATOM      3  N   UNL     1      -0.988  10.197  17.801  0.00  0.00    +0.000 NA
ATOM      4  C   UNL     1      -1.336  10.981  18.852  0.00  0.00    +0.000 A 
ATOM      5  C   UNL     1      -0.515  11.260  19.957  0.00  0.00    +0.000 A 
ATOM      6  C   UNL     1       0.731  10.608  19.957  0.00  0.00    +0.000 A 
ENDROOT
BRANCH   5   7
ATOM      7  C   UNL     1      -0.878  12.157  21.087  0.00  0.00    +0.000 A 
ATOM      8  C   UNL     1      -0.083  13.259  21.450  0.00  0.00    +0.000 A 
ATOM      9  C   UNL     1      -0.459  14.134  22.469  0.00  0.00    +0.000 A 
ATOM     10  C   UNL     1      -1.615  13.885  23.218  0.00  0.00    +0.000 A 
ATOM     11  C   UNL     1      -2.029  14.710  24.263  0.00  0.00    +0.000 A 
ATOM     12  N   UNL     1      -3.119  14.483  25.029  0.00  0.00    +0.000 NA
ATOM     13  C   UNL     1      -3.839  13.380  24.742  0.00  0.00    +0.000 A 
ATOM     14  C   UNL     1      -3.530  12.499  23.717  0.00  0.00    +0.000 A 
ATOM     15  C   UNL     1      -2.401  12.757  22.932  0.00  0.00    +0.000 A 
ATOM     16  C   UNL     1      -2.035  11.921  21.861  0.00  0.00    +0.000 A 
ENDBRANCH   5   7
BRANCH   4  17
ATOM     17  C   UNL     1      -2.678  11.459  18.752  0.00  0.00    +0.000 C 
ATOM     18  C   UNL     1      -3.811  11.870  18.769  0.00  0.00    +0.000 C 
BRANCH  18  19
ATOM     19  C   UNL     1      -5.142  12.371  18.861  0.00  0.00    +0.000 A 
ATOM     20  C   UNL     1      -5.651  12.788  20.093  0.00  0.00    +0.000 A 
ATOM     21  C   UNL     1      -6.984  13.192  20.192  0.00  0.00    +0.000 A 
ATOM     22  C   UNL     1      -7.798  13.193  19.059  0.00  0.00    +0.000 A 
ATOM     23  C   UNL     1      -7.274  12.824  17.820  0.00  0.00    +0.000 A 
ATOM     24  C   UNL     1      -5.941  12.422  17.718  0.00  0.00    +0.000 A 
ENDBRANCH  18  19
ENDBRANCH   4  17
BRANCH   1  25
ATOM     25  O   UNL     1       2.280   9.065  18.845  0.00  0.00    +0.000 OA
BRANCH  25  26
ATOM     26  C   UNL     1       2.201   7.754  18.266  0.00  0.00    +0.000 C 
BRANCH  26  27
ATOM     27  C   UNL     1       2.715   6.710  19.274  0.00  0.00    +0.000 C 
BRANCH  27  28
ATOM     28  N   UNL     1       1.899   6.754  20.505  0.00  0.00    +0.000 NA
ATOM     29  H   UNL     1       1.162   6.053  20.454  0.00  0.00    +0.000 HD
ATOM     30  H   UNL     1       1.432   7.661  20.548  0.00  0.00    +0.000 HD
ENDBRANCH  27  28
BRANCH  27  31
ATOM     31  C   UNL     1       2.723   5.291  18.662  0.00  0.00    +0.000 C 
BRANCH  31  32
ATOM     32  C   UNL     1       4.111   4.770  18.434  0.00  0.00    +0.000 A 
ATOM     33  C   UNL     1       4.882   4.064  19.338  0.00  0.00    +0.000 A 
ATOM     34  N   UNL     1       6.099   3.812  18.763  0.00  0.00    +0.000 N 
ATOM     35  C   UNL     1       6.153   4.365  17.506  0.00  0.00    +0.000 A 
ATOM     36  C   UNL     1       7.202   4.389  16.577  0.00  0.00    +0.000 A 
ATOM     37  C   UNL     1       6.979   5.055  15.367  0.00  0.00    +0.000 A 
ATOM     38  C   UNL     1       5.754   5.656  15.093  0.00  0.00    +0.000 A 
ATOM     39  C   UNL     1       4.714   5.610  16.028  0.00  0.00    +0.000 A 
ATOM     40  C   UNL     1       4.916   4.961  17.264  0.00  0.00    +0.000 A 
ATOM     41  H   UNL     1       6.861   3.316  19.204  0.00  0.00    +0.000 HD
ENDBRANCH  31  32
ENDBRANCH  27  31
ENDBRANCH  26  27
ENDBRANCH  25  26
ENDBRANCH   1  25
TORSDOF 9
ENDMDL
MODEL 2
REMARK VINA RESULT:      -8.6      2.097     11.190
REMARK  Name = 
REMARK  9 active torsions:
REMARK  status: ('A' for Active; 'I' for Inactive)
REMARK    1  A    between atoms: N_1  and  C_2
REMARK    2  A    between atoms: C_2  and  C_3
REMARK    3  A    between atoms: C_2  and  C_29
REMARK    4  A    between atoms: C_3  and  O_4
REMARK    5  A    between atoms: O_4  and  C_5
REMARK    6  A    between atoms: C_8  and  C_9
REMARK    7  A    between atoms: C_10  and  C_11
REMARK    8  A    between atoms: C_17  and  C_18
REMARK    9  A    between atoms: C_29  and  C_30
REMARK                            x       y       z     vdW  Elec       q    Type
REMARK                         _______ _______ _______ _____ _____    ______ ____
ROOT
ATOM      1  C   UNL     1       0.872  10.290  19.292  0.00  0.00    +0.000 A 
ATOM      2  C   UNL     1       1.709  10.707  18.270  0.00  0.00    +0.000 A 
ATOM      3  N   UNL     1       2.595   9.907  17.640  0.00  0.00    +0.000 NA
ATOM      4  C   UNL     1       2.637   8.612  18.044  0.00  0.00    +0.000 A 
ATOM      5  C   UNL     1       1.805   8.047  19.026  0.00  0.00    +0.000 A 
ATOM      6  C   UNL     1       0.920   8.944  19.648  0.00  0.00    +0.000 A 
ENDROOT
BRANCH   5   7
ATOM      7  C   UNL     1       1.819   6.618  19.437  0.00  0.00    +0.000 A 
ATOM      8  C   UNL     1       1.793   6.230  20.789  0.00  0.00    +0.000 A 
ATOM      9  C   UNL     1       1.743   4.889  21.169  0.00  0.00    +0.000 A 
ATOM     10  C   UNL     1       1.795   3.881  20.200  0.00  0.00    +0.000 A 
ATOM     11  C   UNL     1       1.771   2.524  20.520  0.00  0.00    +0.000 A 
ATOM     12  N   UNL     1       1.854   1.524  19.615  0.00  0.00    +0.000 NA
ATOM     13  C   UNL     1       1.965   1.889  18.321  0.00  0.00    +0.000 A 
ATOM     14  C   UNL     1       1.983   3.206  17.888  0.00  0.00    +0.000 A 
ATOM     15  C   UNL     1       1.889   4.225  18.841  0.00  0.00    +0.000 A 
ATOM     16  C   UNL     1       1.879   5.584  18.477  0.00  0.00    +0.000 A 
ENDBRANCH   5   7
BRANCH   4  17
ATOM     17  C   UNL     1       3.677   7.875  17.401  0.00  0.00    +0.000 C 
ATOM     18  C   UNL     1       4.504   7.168  16.881  0.00  0.00    +0.000 C 
BRANCH  18  19
ATOM     19  C   UNL     1       5.434   6.275  16.276  0.00  0.00    +0.000 A 
ATOM     20  C   UNL     1       5.204   5.788  14.987  0.00  0.00    +0.000 A 
ATOM     21  C   UNL     1       6.072   4.843  14.437  0.00  0.00    +0.000 A 
ATOM     22  C   UNL     1       7.174   4.400  15.168  0.00  0.00    +0.000 A 
ATOM     23  C   UNL     1       7.430   4.925  16.435  0.00  0.00    +0.000 A 
ATOM     24  C   UNL     1       6.565   5.870  16.986  0.00  0.00    +0.000 A 
ENDBRANCH  18  19
ENDBRANCH   4  17
BRANCH   1  25
ATOM     25  O   UNL     1       0.074  11.237  19.859  0.00  0.00    +0.000 OA
BRANCH  25  26
ATOM     26  C   UNL     1       0.440  11.667  21.178  0.00  0.00    +0.000 C 
BRANCH  26  27
ATOM     27  C   UNL     1      -0.698  11.343  22.163  0.00  0.00    +0.000 C 
BRANCH  27  28
ATOM     28  N   UNL     1      -0.218  10.401  23.195  0.00  0.00    +0.000 NA
ATOM     29  H   UNL     1       0.800  10.386  23.199  0.00  0.00    +0.000 HD
ATOM     30  H   UNL     1      -0.519   9.460  22.935  0.00  0.00    +0.000 HD
ENDBRANCH  27  28
BRANCH  27  31
ATOM     31  C   UNL     1      -1.272  12.626  22.805  0.00  0.00    +0.000 C 
BRANCH  31  32
ATOM     32  C   UNL     1      -2.772  12.625  22.853  0.00  0.00    +0.000 A 
ATOM     33  C   UNL     1      -3.557  12.538  23.989  0.00  0.00    +0.000 A 
ATOM     34  N   UNL     1      -4.870  12.524  23.604  0.00  0.00    +0.000 N 
ATOM     35  C   UNL     1      -4.965  12.571  22.234  0.00  0.00    +0.000 A 
ATOM     36  C   UNL     1      -6.095  12.541  21.407  0.00  0.00    +0.000 A 
ATOM     37  C   UNL     1      -5.887  12.581  20.025  0.00  0.00    +0.000 A 
ATOM     38  C   UNL     1      -4.603  12.663  19.494  0.00  0.00    +0.000 A 
ATOM     39  C   UNL     1      -3.486  12.707  20.336  0.00  0.00    +0.000 A 
ATOM     40  C   UNL     1      -3.666  12.650  21.734  0.00  0.00    +0.000 A 
ATOM     41  H   UNL     1      -5.660  12.460  24.231  0.00  0.00    +0.000 HD
ENDBRANCH  31  32
ENDBRANCH  27  31
ENDBRANCH  26  27
ENDBRANCH  25  26
ENDBRANCH   1  25
TORSDOF 9
ENDMDL
MODEL 3
REMARK VINA RESULT:      -8.5      2.442      3.863
REMARK  Name = 
REMARK  9 active torsions:
REMARK  status: ('A' for Active; 'I' for Inactive)
REMARK    1  A    between atoms: N_1  and  C_2
REMARK    2  A    between atoms: C_2  and  C_3
REMARK    3  A    between atoms: C_2  and  C_29
REMARK    4  A    between atoms: C_3  and  O_4
REMARK    5  A    between atoms: O_4  and  C_5
REMARK    6  A    between atoms: C_8  and  C_9
REMARK    7  A    between atoms: C_10  and  C_11
REMARK    8  A    between atoms: C_17  and  C_18
REMARK    9  A    between atoms: C_29  and  C_30
REMARK                            x       y       z     vdW  Elec       q    Type
REMARK                         _______ _______ _______ _____ _____    ______ ____
ROOT
ATOM      1  C   UNL     1       1.646   8.893  19.012  0.00  0.00    +0.000 A 
ATOM      2  C   UNL     1       2.340   9.788  18.214  0.00  0.00    +0.000 A 
ATOM      3  N   UNL     1       2.112  11.119  18.191  0.00  0.00    +0.000 NA
ATOM      4  C   UNL     1       1.145  11.583  19.022  0.00  0.00    +0.000 A 
ATOM      5  C   UNL     1       0.408  10.794  19.922  0.00  0.00    +0.000 A 
ATOM      6  C   UNL     1       0.689   9.417  19.879  0.00  0.00    +0.000 A 
ENDROOT
BRANCH   5   7
ATOM      7  C   UNL     1      -0.619  11.308  20.867  0.00  0.00    +0.000 A 
ATOM      8  C   UNL     1      -0.527  11.099  22.254  0.00  0.00    +0.000 A 
ATOM      9  C   UNL     1      -1.459  11.636  23.143  0.00  0.00    +0.000 A 
ATOM     10  C   UNL     1      -2.567  12.340  22.659  0.00  0.00    +0.000 A 
ATOM     11  C   UNL     1      -3.543  12.880  23.495  0.00  0.00    +0.000 A 
ATOM     12  N   UNL     1      -4.643  13.536  23.063  0.00  0.00    +0.000 NA
ATOM     13  C   UNL     1      -4.782  13.666  21.728  0.00  0.00    +0.000 A 
ATOM     14  C   UNL     1      -3.867  13.183  20.804  0.00  0.00    +0.000 A 
ATOM     15  C   UNL     1      -2.732  12.513  21.274  0.00  0.00    +0.000 A 
ATOM     16  C   UNL     1      -1.748  12.014  20.400  0.00  0.00    +0.000 A 
ENDBRANCH   5   7
BRANCH   4  17
ATOM     17  C   UNL     1       0.900  12.978  18.846  0.00  0.00    +0.000 C 
ATOM     18  C   UNL     1       0.722  14.169  18.794  0.00  0.00    +0.000 C 
BRANCH  18  19
ATOM     19  C   UNL     1       0.543  15.583  18.800  0.00  0.00    +0.000 A 
ATOM     20  C   UNL     1      -0.737  16.129  18.912  0.00  0.00    +0.000 A 
ATOM     21  C   UNL     1      -0.912  17.511  18.825  0.00  0.00    +0.000 A 
ATOM     22  C   UNL     1       0.192  18.344  18.644  0.00  0.00    +0.000 A 
ATOM     23  C   UNL     1       1.476  17.801  18.584  0.00  0.00    +0.000 A 
ATOM     24  C   UNL     1       1.653  16.420  18.672  0.00  0.00    +0.000 A 
ENDBRANCH  18  19
ENDBRANCH   4  17
BRANCH   1  25
ATOM     25  O   UNL     1       1.963   7.575  18.876  0.00  0.00    +0.000 OA
BRANCH  25  26
ATOM     26  C   UNL     1       2.082   6.823  20.093  0.00  0.00    +0.000 C 
BRANCH  26  27
ATOM     27  C   UNL     1       2.229   5.326  19.764  0.00  0.00    +0.000 C 
BRANCH  27  28
ATOM     28  N   UNL     1       1.225   4.544  20.514  0.00  0.00    +0.000 NA
ATOM     29  H   UNL     1       1.449   3.552  20.456  0.00  0.00    +0.000 HD
ATOM     30  H   UNL     1       0.319   4.662  20.057  0.00  0.00    +0.000 HD
ENDBRANCH  27  28
BRANCH  27  31
ATOM     31  C   UNL     1       2.116   5.068  18.245  0.00  0.00    +0.000 C 
BRANCH  31  32
ATOM     32  C   UNL     1       3.382   4.519  17.657  0.00  0.00    +0.000 A 
ATOM     33  C   UNL     1       3.632   3.198  17.332  0.00  0.00    +0.000 A 
ATOM     34  N   UNL     1       4.915   3.104  16.866  0.00  0.00    +0.000 N 
ATOM     35  C   UNL     1       5.526   4.335  16.905  0.00  0.00    +0.000 A 
ATOM     36  C   UNL     1       6.834   4.704  16.563  0.00  0.00    +0.000 A 
ATOM     37  C   UNL     1       7.192   6.045  16.728  0.00  0.00    +0.000 A 
ATOM     38  C   UNL     1       6.275   6.981  17.198  0.00  0.00    +0.000 A 
ATOM     39  C   UNL     1       4.969   6.597  17.521  0.00  0.00    +0.000 A 
ATOM     40  C   UNL     1       4.585   5.247  17.382  0.00  0.00    +0.000 A 
ATOM     41  H   UNL     1       5.365   2.252  16.563  0.00  0.00    +0.000 HD
ENDBRANCH  31  32
ENDBRANCH  27  31
ENDBRANCH  26  27
ENDBRANCH  25  26
ENDBRANCH   1  25
TORSDOF 9
ENDMDL
MODEL 4
REMARK VINA RESULT:      -8.5      3.224      5.384
REMARK  Name = 
REMARK  9 active torsions:
REMARK  status: ('A' for Active; 'I' for Inactive)
REMARK    1  A    between atoms: N_1  and  C_2
REMARK    2  A    between atoms: C_2  and  C_3
REMARK    3  A    between atoms: C_2  and  C_29
REMARK    4  A    between atoms: C_3  and  O_4
REMARK    5  A    between atoms: O_4  and  C_5
REMARK    6  A    between atoms: C_8  and  C_9
REMARK    7  A    between atoms: C_10  and  C_11
REMARK    8  A    between atoms: C_17  and  C_18
REMARK    9  A    between atoms: C_29  and  C_30
REMARK                            x       y       z     vdW  Elec       q    Type
REMARK                         _______ _______ _______ _____ _____    ______ ____
ROOT
ATOM      1  C   UNL     1       1.992   8.845  18.189  0.00  0.00    +0.000 A 
ATOM      2  C   UNL     1       1.240   8.306  19.219  0.00  0.00    +0.000 A 
ATOM      3  N   UNL     1       0.551   9.040  20.120  0.00  0.00    +0.000 NA
ATOM      4  C   UNL     1       0.608  10.387  19.974  0.00  0.00    +0.000 A 
ATOM      5  C   UNL     1       1.284  11.059  18.942  0.00  0.00    +0.000 A 
ATOM      6  C   UNL     1       1.990  10.232  18.052  0.00  0.00    +0.000 A 
ENDROOT
BRANCH   5   7
ATOM      7  C   UNL     1       1.307  12.534  18.755  0.00  0.00    +0.000 A 
ATOM      8  C   UNL     1       0.128  13.297  18.694  0.00  0.00    +0.000 A 
ATOM      9  C   UNL     1       0.155  14.688  18.581  0.00  0.00    +0.000 A 
ATOM     10  C   UNL     1       1.375  15.358  18.445  0.00  0.00    +0.000 A 
ATOM     11  C   UNL     1       1.465  16.742  18.305  0.00  0.00    +0.000 A 
ATOM     12  N   UNL     1       2.623  17.420  18.137  0.00  0.00    +0.000 NA
ATOM     13  C   UNL     1       3.753  16.685  18.108  0.00  0.00    +0.000 A 
ATOM     14  C   UNL     1       3.783  15.307  18.252  0.00  0.00    +0.000 A 
ATOM     15  C   UNL     1       2.575  14.626  18.432  0.00  0.00    +0.000 A 
ATOM     16  C   UNL     1       2.526  13.231  18.608  0.00  0.00    +0.000 A 
ENDBRANCH   5   7
BRANCH   4  17
ATOM     17  C   UNL     1      -0.056  11.077  21.034  0.00  0.00    +0.000 C 
ATOM     18  C   UNL     1      -0.652  11.723  21.859  0.00  0.00    +0.000 C 
BRANCH  18  19
ATOM     19  C   UNL     1      -1.389  12.524  22.778  0.00  0.00    +0.000 A 
ATOM     20  C   UNL     1      -2.624  12.084  23.259  0.00  0.00    +0.000 A 
ATOM     21  C   UNL     1      -3.382  12.914  24.087  0.00  0.00    +0.000 A 
ATOM     22  C   UNL     1      -2.898  14.173  24.444  0.00  0.00    +0.000 A 
ATOM     23  C   UNL     1      -1.641  14.590  24.004  0.00  0.00    +0.000 A 
ATOM     24  C   UNL     1      -0.882  13.761  23.178  0.00  0.00    +0.000 A 
ENDBRANCH  18  19
ENDBRANCH   4  17
BRANCH   1  25
ATOM     25  O   UNL     1       2.670   7.967  17.398  0.00  0.00    +0.000 OA
BRANCH  25  26
ATOM     26  C   UNL     1       4.030   7.699  17.769  0.00  0.00    +0.000 C 
BRANCH  26  27
ATOM     27  C   UNL     1       4.539   6.457  17.013  0.00  0.00    +0.000 C 
BRANCH  27  28
ATOM     28  N   UNL     1       5.557   6.854  16.020  0.00  0.00    +0.000 NA
ATOM     29  H   UNL     1       6.466   6.933  16.473  0.00  0.00    +0.000 HD
ATOM     30  H   UNL     1       5.324   7.787  15.676  0.00  0.00    +0.000 HD
ENDBRANCH  27  28
BRANCH  27  31
ATOM     31  C   UNL     1       5.095   5.393  17.987  0.00  0.00    +0.000 C 
BRANCH  31  32
ATOM     32  C   UNL     1       4.191   4.203  18.116  0.00  0.00    +0.000 A 
ATOM     33  C   UNL     1       4.254   3.039  17.372  0.00  0.00    +0.000 A 
ATOM     34  N   UNL     1       3.230   2.221  17.764  0.00  0.00    +0.000 N 
ATOM     35  C   UNL     1       2.475   2.836  18.734  0.00  0.00    +0.000 A 
ATOM     36  C   UNL     1       1.321   2.393  19.394  0.00  0.00    +0.000 A 
ATOM     37  C   UNL     1       0.743   3.252  20.334  0.00  0.00    +0.000 A 
ATOM     38  C   UNL     1       1.306   4.494  20.612  0.00  0.00    +0.000 A 
ATOM     39  C   UNL     1       2.467   4.914  19.954  0.00  0.00    +0.000 A 
ATOM     40  C   UNL     1       3.061   4.075  18.988  0.00  0.00    +0.000 A 
ATOM     41  H   UNL     1       3.034   1.306  17.380  0.00  0.00    +0.000 HD
ENDBRANCH  31  32
ENDBRANCH  27  31
ENDBRANCH  26  27
ENDBRANCH  25  26
ENDBRANCH   1  25
TORSDOF 9
ENDMDL
MODEL 5
REMARK VINA RESULT:      -8.5      2.366     10.752
REMARK  Name = 
REMARK  9 active torsions:
REMARK  status: ('A' for Active; 'I' for Inactive)
REMARK    1  A    between atoms: N_1  and  C_2
REMARK    2  A    between atoms: C_2  and  C_3
REMARK    3  A    between atoms: C_2  and  C_29
REMARK    4  A    between atoms: C_3  and  O_4
REMARK    5  A    between atoms: O_4  and  C_5
REMARK    6  A    between atoms: C_8  and  C_9
REMARK    7  A    between atoms: C_10  and  C_11
REMARK    8  A    between atoms: C_17  and  C_18
REMARK    9  A    between atoms: C_29  and  C_30
REMARK                            x       y       z     vdW  Elec       q    Type
REMARK                         _______ _______ _______ _____ _____    ______ ____
ROOT
ATOM      1  C   UNL     1       1.021  10.286  19.283  0.00  0.00    +0.000 A 
ATOM      2  C   UNL     1       1.859  10.689  18.256  0.00  0.00    +0.000 A 
ATOM      3  N   UNL     1       2.720   9.872  17.614  0.00  0.00    +0.000 NA
ATOM      4  C   UNL     1       2.737   8.575  18.013  0.00  0.00    +0.000 A 
ATOM      5  C   UNL     1       1.901   8.024  18.999  0.00  0.00    +0.000 A 
ATOM      6  C   UNL     1       1.042   8.938  19.633  0.00  0.00    +0.000 A 
ENDROOT
BRANCH   5   7
ATOM      7  C   UNL     1       1.886   6.593  19.404  0.00  0.00    +0.000 A 
ATOM      8  C   UNL     1       1.812   6.200  20.752  0.00  0.00    +0.000 A 
ATOM      9  C   UNL     1       1.734   4.858  21.125  0.00  0.00    +0.000 A 
ATOM     10  C   UNL     1       1.808   3.854  20.154  0.00  0.00    +0.000 A 
ATOM     11  C   UNL     1       1.759   2.496  20.467  0.00  0.00    +0.000 A 
ATOM     12  N   UNL     1       1.862   1.499  19.560  0.00  0.00    +0.000 NA
ATOM     13  C   UNL     1       2.019   1.868  18.273  0.00  0.00    +0.000 A 
ATOM     14  C   UNL     1       2.066   3.186  17.846  0.00  0.00    +0.000 A 
ATOM     15  C   UNL     1       1.950   4.202  18.800  0.00  0.00    +0.000 A 
ATOM     16  C   UNL     1       1.967   5.563  18.442  0.00  0.00    +0.000 A 
ENDBRANCH   5   7
BRANCH   4  17
ATOM     17  C   UNL     1       3.754   7.817  17.357  0.00  0.00    +0.000 C 
ATOM     18  C   UNL     1       4.557   7.095  16.822  0.00  0.00    +0.000 C 
BRANCH  18  19
ATOM     19  C   UNL     1       5.457   6.185  16.195  0.00  0.00    +0.000 A 
ATOM     20  C   UNL     1       5.171   5.677  14.926  0.00  0.00    +0.000 A 
ATOM     21  C   UNL     1       6.011   4.717  14.358  0.00  0.00    +0.000 A 
ATOM     22  C   UNL     1       7.140   4.280  15.051  0.00  0.00    +0.000 A 
ATOM     23  C   UNL     1       7.451   4.826  16.296  0.00  0.00    +0.000 A 
ATOM     24  C   UNL     1       6.615   5.787  16.865  0.00  0.00    +0.000 A 
ENDBRANCH  18  19
ENDBRANCH   4  17
BRANCH   1  25
ATOM     25  O   UNL     1       0.249  11.249  19.861  0.00  0.00    +0.000 OA
BRANCH  25  26
ATOM     26  C   UNL     1       0.151  11.208  21.292  0.00  0.00    +0.000 C 
BRANCH  26  27
ATOM     27  C   UNL     1      -1.225  11.740  21.733  0.00  0.00    +0.000 C 
BRANCH  27  28
ATOM     28  N   UNL     1      -1.170  12.173  23.144  0.00  0.00    +0.000 NA
ATOM     29  H   UNL     1      -2.115  12.278  23.508  0.00  0.00    +0.000 HD
ATOM     30  H   UNL     1      -0.742  13.100  23.178  0.00  0.00    +0.000 HD
ENDBRANCH  27  28
BRANCH  27  31
ATOM     31  C   UNL     1      -1.706  12.888  20.816  0.00  0.00    +0.000 C 
BRANCH  31  32
ATOM     32  C   UNL     1      -2.972  12.550  20.086  0.00  0.00    +0.000 A 
ATOM     33  C   UNL     1      -4.259  12.667  20.577  0.00  0.00    +0.000 A 
ATOM     34  N   UNL     1      -5.128  12.216  19.620  0.00  0.00    +0.000 N 
ATOM     35  C   UNL     1      -4.435  11.777  18.518  0.00  0.00    +0.000 A 
ATOM     36  C   UNL     1      -4.903  11.206  17.327  0.00  0.00    +0.000 A 
ATOM     37  C   UNL     1      -3.953  10.828  16.373  0.00  0.00    +0.000 A 
ATOM     38  C   UNL     1      -2.593  11.027  16.596  0.00  0.00    +0.000 A 
ATOM     39  C   UNL     1      -2.145  11.612  17.786  0.00  0.00    +0.000 A 
ATOM     40  C   UNL     1      -3.080  11.987  18.773  0.00  0.00    +0.000 A 
ATOM     41  H   UNL     1      -6.134  12.182  19.715  0.00  0.00    +0.000 HD
ENDBRANCH  31  32
ENDBRANCH  27  31
ENDBRANCH  26  27
ENDBRANCH  25  26
ENDBRANCH   1  25
TORSDOF 9
ENDMDL
MODEL 6
REMARK VINA RESULT:      -8.4      3.111      4.910
REMARK  Name = 
REMARK  9 active torsions:
REMARK  status: ('A' for Active; 'I' for Inactive)
REMARK    1  A    between atoms: N_1  and  C_2
REMARK    2  A    between atoms: C_2  and  C_3
REMARK    3  A    between atoms: C_2  and  C_29
REMARK    4  A    between atoms: C_3  and  O_4
REMARK    5  A    between atoms: O_4  and  C_5
REMARK    6  A    between atoms: C_8  and  C_9
REMARK    7  A    between atoms: C_10  and  C_11
REMARK    8  A    between atoms: C_17  and  C_18
REMARK    9  A    between atoms: C_29  and  C_30
REMARK                            x       y       z     vdW  Elec       q    Type
REMARK                         _______ _______ _______ _____ _____    ______ ____
ROOT
ATOM      1  C   UNL     1       2.183   9.121  17.893  0.00  0.00    +0.000 A 
ATOM      2  C   UNL     1       1.335   8.574  18.842  0.00  0.00    +0.000 A 
ATOM      3  N   UNL     1       0.645   9.297  19.750  0.00  0.00    +0.000 NA
ATOM      4  C   UNL     1       0.803  10.644  19.699  0.00  0.00    +0.000 A 
ATOM      5  C   UNL     1       1.584  11.329  18.753  0.00  0.00    +0.000 A 
ATOM      6  C   UNL     1       2.284  10.510  17.850  0.00  0.00    +0.000 A 
ENDROOT
BRANCH   5   7
ATOM      7  C   UNL     1       1.720  12.807  18.666  0.00  0.00    +0.000 A 
ATOM      8  C   UNL     1       2.967  13.432  18.485  0.00  0.00    +0.000 A 
ATOM      9  C   UNL     1       3.083  14.815  18.341  0.00  0.00    +0.000 A 
ATOM     10  C   UNL     1       1.952  15.631  18.455  0.00  0.00    +0.000 A 
ATOM     11  C   UNL     1       2.009  17.020  18.343  0.00  0.00    +0.000 A 
ATOM     12  N   UNL     1       0.944  17.841  18.481  0.00  0.00    +0.000 NA
ATOM     13  C   UNL     1      -0.242  17.254  18.741  0.00  0.00    +0.000 A 
ATOM     14  C   UNL     1      -0.417  15.884  18.857  0.00  0.00    +0.000 A 
ATOM     15  C   UNL     1       0.697  15.051  18.704  0.00  0.00    +0.000 A 
ATOM     16  C   UNL     1       0.594  13.650  18.786  0.00  0.00    +0.000 A 
ENDBRANCH   5   7
BRANCH   4  17
ATOM     17  C   UNL     1       0.126  11.311  20.764  0.00  0.00    +0.000 C 
ATOM     18  C   UNL     1      -0.507  11.916  21.593  0.00  0.00    +0.000 C 
BRANCH  18  19
ATOM     19  C   UNL     1      -1.303  12.649  22.520  0.00  0.00    +0.000 A 
ATOM     20  C   UNL     1      -0.845  13.865  23.032  0.00  0.00    +0.000 A 
ATOM     21  C   UNL     1      -1.589  14.532  24.007  0.00  0.00    +0.000 A 
ATOM     22  C   UNL     1      -2.793  13.991  24.456  0.00  0.00    +0.000 A 
ATOM     23  C   UNL     1      -3.275  12.802  23.907  0.00  0.00    +0.000 A 
ATOM     24  C   UNL     1      -2.534  12.135  22.931  0.00  0.00    +0.000 A 
ENDBRANCH  18  19
ENDBRANCH   4  17
BRANCH   1  25
ATOM     25  O   UNL     1       2.846   8.248  17.084  0.00  0.00    +0.000 OA
BRANCH  25  26
ATOM     26  C   UNL     1       3.837   7.425  17.716  0.00  0.00    +0.000 C 
BRANCH  26  27
ATOM     27  C   UNL     1       4.875   6.971  16.674  0.00  0.00    +0.000 C 
BRANCH  27  28
ATOM     28  N   UNL     1       6.238   7.285  17.150  0.00  0.00    +0.000 NA
ATOM     29  H   UNL     1       6.322   7.040  18.135  0.00  0.00    +0.000 HD
ATOM     30  H   UNL     1       6.373   8.296  17.092  0.00  0.00    +0.000 HD
ENDBRANCH  27  28
BRANCH  27  31
ATOM     31  C   UNL     1       4.731   5.467  16.351  0.00  0.00    +0.000 C 
BRANCH  31  32
ATOM     32  C   UNL     1       4.631   4.620  17.586  0.00  0.00    +0.000 A 
ATOM     33  C   UNL     1       5.677   4.231  18.402  0.00  0.00    +0.000 A 
ATOM     34  N   UNL     1       5.176   3.432  19.393  0.00  0.00    +0.000 N 
ATOM     35  C   UNL     1       3.822   3.263  19.229  0.00  0.00    +0.000 A 
ATOM     36  C   UNL     1       2.911   2.504  19.975  0.00  0.00    +0.000 A 
ATOM     37  C   UNL     1       1.576   2.500  19.557  0.00  0.00    +0.000 A 
ATOM     38  C   UNL     1       1.169   3.237  18.448  0.00  0.00    +0.000 A 
ATOM     39  C   UNL     1       2.091   4.000  17.723  0.00  0.00    +0.000 A 
ATOM     40  C   UNL     1       3.447   4.008  18.112  0.00  0.00    +0.000 A 
ATOM     41  H   UNL     1       5.722   3.001  20.127  0.00  0.00    +0.000 HD
ENDBRANCH  31  32
ENDBRANCH  27  31
ENDBRANCH  26  27
ENDBRANCH  25  26
ENDBRANCH   1  25
TORSDOF 9
ENDMDL
MODEL 7
REMARK VINA RESULT:      -8.3      3.151      4.892
REMARK  Name = 
REMARK  9 active torsions:
REMARK  status: ('A' for Active; 'I' for Inactive)
REMARK    1  A    between atoms: N_1  and  C_2
REMARK    2  A    between atoms: C_2  and  C_3
REMARK    3  A    between atoms: C_2  and  C_29
REMARK    4  A    between atoms: C_3  and  O_4
REMARK    5  A    between atoms: O_4  and  C_5
REMARK    6  A    between atoms: C_8  and  C_9
REMARK    7  A    between atoms: C_10  and  C_11
REMARK    8  A    between atoms: C_17  and  C_18
REMARK    9  A    between atoms: C_29  and  C_30
REMARK                            x       y       z     vdW  Elec       q    Type
REMARK                         _______ _______ _______ _____ _____    ______ ____
ROOT
ATOM      1  C   UNL     1       0.637   9.085  21.391  0.00  0.00    +0.000 A 
ATOM      2  C   UNL     1      -0.248   9.132  22.456  0.00  0.00    +0.000 A 
ATOM      3  N   UNL     1      -0.809  10.266  22.927  0.00  0.00    +0.000 NA
ATOM      4  C   UNL     1      -0.479  11.416  22.289  0.00  0.00    +0.000 A 
ATOM      5  C   UNL     1       0.357  11.502  21.163  0.00  0.00    +0.000 A 
ATOM      6  C   UNL     1       0.917  10.285  20.739  0.00  0.00    +0.000 A 
ENDROOT
BRANCH   5   7
ATOM      7  C   UNL     1       0.683  12.757  20.434  0.00  0.00    +0.000 A 
ATOM      8  C   UNL     1      -0.180  13.304  19.468  0.00  0.00    +0.000 A 
ATOM      9  C   UNL     1       0.099  14.514  18.831  0.00  0.00    +0.000 A 
ATOM     10  C   UNL     1       1.301  15.182  19.088  0.00  0.00    +0.000 A 
ATOM     11  C   UNL     1       1.645  16.382  18.466  0.00  0.00    +0.000 A 
ATOM     12  N   UNL     1       2.811  17.037  18.663  0.00  0.00    +0.000 NA
ATOM     13  C   UNL     1       3.681  16.474  19.525  0.00  0.00    +0.000 A 
ATOM     14  C   UNL     1       3.437  15.293  20.210  0.00  0.00    +0.000 A 
ATOM     15  C   UNL     1       2.222  14.635  19.997  0.00  0.00    +0.000 A 
ATOM     16  C   UNL     1       1.893  13.444  20.671  0.00  0.00    +0.000 A 
ENDBRANCH   5   7
BRANCH   4  17
ATOM     17  C   UNL     1      -1.031  12.569  22.925  0.00  0.00    +0.000 C 
ATOM     18  C   UNL     1      -1.469  13.595  23.381  0.00  0.00    +0.000 C 
BRANCH  18  19
ATOM     19  C   UNL     1      -1.975  14.841  23.854  0.00  0.00    +0.000 A 
ATOM     20  C   UNL     1      -2.736  15.655  23.012  0.00  0.00    +0.000 A 
ATOM     21  C   UNL     1      -3.151  16.913  23.452  0.00  0.00    +0.000 A 
ATOM     22  C   UNL     1      -2.817  17.348  24.734  0.00  0.00    +0.000 A 
ATOM     23  C   UNL     1      -2.100  16.513  25.592  0.00  0.00    +0.000 A 
ATOM     24  C   UNL     1      -1.687  15.254  25.155  0.00  0.00    +0.000 A 
ENDBRANCH  18  19
ENDBRANCH   4  17
BRANCH   1  25
ATOM     25  O   UNL     1       1.155   7.866  21.074  0.00  0.00    +0.000 OA
BRANCH  25  26
ATOM     26  C   UNL     1       1.911   7.795  19.857  0.00  0.00    +0.000 C 
BRANCH  26  27
ATOM     27  C   UNL     1       2.560   6.404  19.730  0.00  0.00    +0.000 C 
BRANCH  27  28
ATOM     28  N   UNL     1       2.299   5.613  20.949  0.00  0.00    +0.000 NA
ATOM     29  H   UNL     1       1.602   4.896  20.752  0.00  0.00    +0.000 HD
ATOM     30  H   UNL     1       1.887   6.231  21.651  0.00  0.00    +0.000 HD
ENDBRANCH  27  28
BRANCH  27  31
ATOM     31  C   UNL     1       2.062   5.663  18.468  0.00  0.00    +0.000 C 
BRANCH  31  32
ATOM     32  C   UNL     1       3.094   4.732  17.902  0.00  0.00    +0.000 A 
ATOM     33  C   UNL     1       3.174   3.368  18.113  0.00  0.00    +0.000 A 
ATOM     34  N   UNL     1       4.280   2.895  17.460  0.00  0.00    +0.000 N 
ATOM     35  C   UNL     1       4.947   3.928  16.846  0.00  0.00    +0.000 A 
ATOM     36  C   UNL     1       6.136   3.918  16.105  0.00  0.00    +0.000 A 
ATOM     37  C   UNL     1       6.600   5.141  15.610  0.00  0.00    +0.000 A 
ATOM     38  C   UNL     1       5.895   6.320  15.835  0.00  0.00    +0.000 A 
ATOM     39  C   UNL     1       4.702   6.308  16.566  0.00  0.00    +0.000 A 
ATOM     40  C   UNL     1       4.220   5.092  17.092  0.00  0.00    +0.000 A 
ATOM     41  H   UNL     1       4.584   1.931  17.451  0.00  0.00    +0.000 HD
ENDBRANCH  31  32
ENDBRANCH  27  31
ENDBRANCH  26  27
ENDBRANCH  25  26
ENDBRANCH   1  25
TORSDOF 9
ENDMDL
MODEL 8
REMARK VINA RESULT:      -8.3      1.956      4.853
REMARK  Name = 
REMARK  9 active torsions:
REMARK  status: ('A' for Active; 'I' for Inactive)
REMARK    1  A    between atoms: N_1  and  C_2
REMARK    2  A    between atoms: C_2  and  C_3
REMARK    3  A    between atoms: C_2  and  C_29
REMARK    4  A    between atoms: C_3  and  O_4
REMARK    5  A    between atoms: O_4  and  C_5
REMARK    6  A    between atoms: C_8  and  C_9
REMARK    7  A    between atoms: C_10  and  C_11
REMARK    8  A    between atoms: C_17  and  C_18
REMARK    9  A    between atoms: C_29  and  C_30
REMARK                            x       y       z     vdW  Elec       q    Type
REMARK                         _______ _______ _______ _____ _____    ______ ____
ROOT
ATOM      1  C   UNL     1       1.799   8.472  17.996  0.00  0.00    +0.000 A 
ATOM      2  C   UNL     1       2.213   8.650  19.306  0.00  0.00    +0.000 A 
ATOM      3  N   UNL     1       1.534   9.368  20.226  0.00  0.00    +0.000 NA
ATOM      4  C   UNL     1       0.368   9.930  19.817  0.00  0.00    +0.000 A 
ATOM      5  C   UNL     1      -0.193   9.780  18.537  0.00  0.00    +0.000 A 
ATOM      6  C   UNL     1       0.577   9.033  17.630  0.00  0.00    +0.000 A 
ENDROOT
BRANCH   5   7
ATOM      7  C   UNL     1      -1.493  10.357  18.102  0.00  0.00    +0.000 A 
ATOM      8  C   UNL     1      -1.964  10.224  16.784  0.00  0.00    +0.000 A 
ATOM      9  C   UNL     1      -3.212  10.711  16.395  0.00  0.00    +0.000 A 
ATOM     10  C   UNL     1      -4.003  11.423  17.303  0.00  0.00    +0.000 A 
ATOM     11  C   UNL     1      -5.248  11.954  16.967  0.00  0.00    +0.000 A 
ATOM     12  N   UNL     1      -6.023  12.675  17.807  0.00  0.00    +0.000 NA
ATOM     13  C   UNL     1      -5.539  12.880  19.049  0.00  0.00    +0.000 A 
ATOM     14  C   UNL     1      -4.322  12.387  19.496  0.00  0.00    +0.000 A 
ATOM     15  C   UNL     1      -3.539  11.637  18.612  0.00  0.00    +0.000 A 
ATOM     16  C   UNL     1      -2.304  11.085  18.999  0.00  0.00    +0.000 A 
ENDBRANCH   5   7
BRANCH   4  17
ATOM     17  C   UNL     1      -0.218  10.758  20.821  0.00  0.00    +0.000 C 
ATOM     18  C   UNL     1      -0.778  11.489  21.599  0.00  0.00    +0.000 C 
BRANCH  18  19
ATOM     19  C   UNL     1      -1.493  12.365  22.465  0.00  0.00    +0.000 A 
ATOM     20  C   UNL     1      -0.900  13.547  22.915  0.00  0.00    +0.000 A 
ATOM     21  C   UNL     1      -1.572  14.354  23.835  0.00  0.00    +0.000 A 
ATOM     22  C   UNL     1      -2.838  13.988  24.291  0.00  0.00    +0.000 A 
ATOM     23  C   UNL     1      -3.450  12.833  23.802  0.00  0.00    +0.000 A 
ATOM     24  C   UNL     1      -2.782  12.026  22.881  0.00  0.00    +0.000 A 
ENDBRANCH  18  19
ENDBRANCH   4  17
BRANCH   1  25
ATOM     25  O   UNL     1       2.628   7.763  17.180  0.00  0.00    +0.000 OA
BRANCH  25  26
ATOM     26  C   UNL     1       3.896   7.387  17.736  0.00  0.00    +0.000 C 
BRANCH  26  27
ATOM     27  C   UNL     1       4.841   6.932  16.609  0.00  0.00    +0.000 C 
BRANCH  27  28
ATOM     28  N   UNL     1       6.239   7.248  16.966  0.00  0.00    +0.000 NA
ATOM     29  H   UNL     1       6.788   7.383  16.119  0.00  0.00    +0.000 HD
ATOM     30  H   UNL     1       6.639   6.438  17.444  0.00  0.00    +0.000 HD
ENDBRANCH  27  28
BRANCH  27  31
ATOM     31  C   UNL     1       4.671   5.427  16.302  0.00  0.00    +0.000 C 
BRANCH  31  32
ATOM     32  C   UNL     1       4.589   4.591  17.545  0.00  0.00    +0.000 A 
ATOM     33  C   UNL     1       5.644   4.229  18.362  0.00  0.00    +0.000 A 
ATOM     34  N   UNL     1       5.160   3.431  19.363  0.00  0.00    +0.000 N 
ATOM     35  C   UNL     1       3.808   3.237  19.204  0.00  0.00    +0.000 A 
ATOM     36  C   UNL     1       2.912   2.471  19.961  0.00  0.00    +0.000 A 
ATOM     37  C   UNL     1       1.577   2.440  19.548  0.00  0.00    +0.000 A 
ATOM     38  C   UNL     1       1.154   3.158  18.433  0.00  0.00    +0.000 A 
ATOM     39  C   UNL     1       2.060   3.929  17.697  0.00  0.00    +0.000 A 
ATOM     40  C   UNL     1       3.417   3.965  18.081  0.00  0.00    +0.000 A 
ATOM     41  H   UNL     1       5.715   3.017  20.099  0.00  0.00    +0.000 HD
ENDBRANCH  31  32
ENDBRANCH  27  31
ENDBRANCH  26  27
ENDBRANCH  25  26
ENDBRANCH   1  25
TORSDOF 9
ENDMDL
MODEL 9
REMARK VINA RESULT:      -8.3      2.637      4.654
REMARK  Name = 
REMARK  9 active torsions:
REMARK  status: ('A' for Active; 'I' for Inactive)
REMARK    1  A    between atoms: N_1  and  C_2
REMARK    2  A    between atoms: C_2  and  C_3
REMARK    3  A    between atoms: C_2  and  C_29
REMARK    4  A    between atoms: C_3  and  O_4
REMARK    5  A    between atoms: O_4  and  C_5
REMARK    6  A    between atoms: C_8  and  C_9
REMARK    7  A    between atoms: C_10  and  C_11
REMARK    8  A    between atoms: C_17  and  C_18
REMARK    9  A    between atoms: C_29  and  C_30
REMARK                            x       y       z     vdW  Elec       q    Type
REMARK                         _______ _______ _______ _____ _____    ______ ____
ROOT
ATOM      1  C   UNL     1       1.729   8.928  18.497  0.00  0.00    +0.000 A 
ATOM      2  C   UNL     1       2.393   9.920  17.794  0.00  0.00    +0.000 A 
ATOM      3  N   UNL     1       2.177  11.242  17.960  0.00  0.00    +0.000 NA
ATOM      4  C   UNL     1       1.254  11.593  18.892  0.00  0.00    +0.000 A 
ATOM      5  C   UNL     1       0.554  10.693  19.712  0.00  0.00    +0.000 A 
ATOM      6  C   UNL     1       0.819   9.334  19.471  0.00  0.00    +0.000 A 
ENDROOT
BRANCH   5   7
ATOM      7  C   UNL     1      -0.423  11.079  20.765  0.00  0.00    +0.000 A 
ATOM      8  C   UNL     1      -0.291  10.649  22.098  0.00  0.00    +0.000 A 
ATOM      9  C   UNL     1      -1.174  11.064  23.095  0.00  0.00    +0.000 A 
ATOM     10  C   UNL     1      -2.273  11.867  22.772  0.00  0.00    +0.000 A 
ATOM     11  C   UNL     1      -3.201  12.294  23.721  0.00  0.00    +0.000 A 
ATOM     12  N   UNL     1      -4.292  13.041  23.440  0.00  0.00    +0.000 NA
ATOM     13  C   UNL     1      -4.471  13.386  22.149  0.00  0.00    +0.000 A 
ATOM     14  C   UNL     1      -3.605  13.031  21.126  0.00  0.00    +0.000 A 
ATOM     15  C   UNL     1      -2.479  12.263  21.440  0.00  0.00    +0.000 A 
ATOM     16  C   UNL     1      -1.543  11.882  20.461  0.00  0.00    +0.000 A 
ENDBRANCH   5   7
BRANCH   4  17
ATOM     17  C   UNL     1       1.015  13.001  18.916  0.00  0.00    +0.000 C 
ATOM     18  C   UNL     1       0.909  14.202  18.904  0.00  0.00    +0.000 C 
BRANCH  18  19
ATOM     19  C   UNL     1       0.849  15.624  18.855  0.00  0.00    +0.000 A 
ATOM     20  C   UNL     1       1.965  16.387  19.205  0.00  0.00    +0.000 A 
ATOM     21  C   UNL     1       1.871  17.779  19.242  0.00  0.00    +0.000 A 
ATOM     22  C   UNL     1       0.668  18.405  18.915  0.00  0.00    +0.000 A 
ATOM     23  C   UNL     1      -0.431  17.644  18.517  0.00  0.00    +0.000 A 
ATOM     24  C   UNL     1      -0.339  16.253  18.477  0.00  0.00    +0.000 A 
ENDBRANCH  18  19
ENDBRANCH   4  17
BRANCH   1  25
ATOM     25  O   UNL     1       2.026   7.639  18.170  0.00  0.00    +0.000 OA
BRANCH  25  26
ATOM     26  C   UNL     1       3.341   7.184  18.520  0.00  0.00    +0.000 C 
BRANCH  26  27
ATOM     27  C   UNL     1       4.037   6.605  17.274  0.00  0.00    +0.000 C 
BRANCH  27  28
ATOM     28  N   UNL     1       5.500   6.766  17.394  0.00  0.00    +0.000 NA
ATOM     29  H   UNL     1       5.949   5.851  17.383  0.00  0.00    +0.000 HD
ATOM     30  H   UNL     1       5.705   7.177  18.306  0.00  0.00    +0.000 HD
ENDBRANCH  27  28
BRANCH  27  31
ATOM     31  C   UNL     1       3.656   5.124  17.052  0.00  0.00    +0.000 C 
BRANCH  31  32
ATOM     32  C   UNL     1       3.900   4.278  18.267  0.00  0.00    +0.000 A 
ATOM     33  C   UNL     1       5.091   3.669  18.618  0.00  0.00    +0.000 A 
ATOM     34  N   UNL     1       4.886   2.955  19.767  0.00  0.00    +0.000 N 
ATOM     35  C   UNL     1       3.575   3.058  20.165  0.00  0.00    +0.000 A 
ATOM     36  C   UNL     1       2.913   2.471  21.251  0.00  0.00    +0.000 A 
ATOM     37  C   UNL     1       1.548   2.739  21.399  0.00  0.00    +0.000 A 
ATOM     38  C   UNL     1       0.880   3.572  20.507  0.00  0.00    +0.000 A 
ATOM     39  C   UNL     1       1.560   4.161  19.436  0.00  0.00    +0.000 A 
ATOM     40  C   UNL     1       2.933   3.894  19.252  0.00  0.00    +0.000 A 
ATOM     41  H   UNL     1       5.588   2.405  20.245  0.00  0.00    +0.000 HD
ENDBRANCH  31  32
ENDBRANCH  27  31
ENDBRANCH  26  27
ENDBRANCH  25  26
ENDBRANCH   1  25
TORSDOF 9
ENDMDL
