MODEL 1
REMARK VINA RESULT:      -8.7      0.000      0.000
REMARK  Name = 
REMARK  5 active torsions:
REMARK  status: ('A' for Active; 'I' for Inactive)
REMARK    1  A    between atoms: C_4  and  C_5
REMARK    2  A    between atoms: C_5  and  C_6
REMARK    3  A    between atoms: C_6  and  C_7
REMARK    4  A    between atoms: C_7  and  C_8
REMARK    5  A    between atoms: C_8  and  N_9
REMARK                            x       y       z     vdW  Elec       q    Type
REMARK                         _______ _______ _______ _____ _____    ______ ____
ROOT
ATOM      1  N   UNL     1       4.438   3.735  18.712  0.00  0.00    +0.000 NA
ATOM      2  C   UNL     1       5.348   4.679  19.417  0.00  0.00    +0.000 C 
ATOM      3  C   UNL     1       6.162   5.217  18.448  0.00  0.00    +0.000 C 
ATOM      4  C   UNL     1       7.047   5.815  17.544  0.00  0.00    +0.000 C 
ATOM      5  C   UNL     1       6.718   5.127  16.283  0.00  0.00    +0.000 A 
ATOM      6  N   UNL     1       7.471   5.512  15.289  0.00  0.00    +0.000 N 
ATOM      7  C   UNL     1       7.092   4.897  14.221  0.00  0.00    +0.000 A 
ATOM      8  C   UNL     1       7.759   5.173  13.041  0.00  0.00    +0.000 A 
ATOM      9  C   UNL     1       7.355   4.582  11.888  0.00  0.00    +0.000 A 
ATOM     10  C   UNL     1       6.265   3.700  11.939  0.00  0.00    +0.000 A 
ATOM     11  C   UNL     1       5.579   3.391  13.191  0.00  0.00    +0.000 A 
ATOM     12  C   UNL     1       6.000   4.018  14.441  0.00  0.00    +0.000 A 
ATOM     13  C   UNL     1       5.719   4.117  15.937  0.00  0.00    +0.000 A 
ATOM     14  C   UNL     1       4.609   3.388  17.112  0.00  0.00    +0.000 C 
ATOM     15  H   UNL     1       8.243   6.215  15.354  0.00  0.00    +0.000 HD
ENDROOT
BRANCH   1  16
ATOM     16  C   UNL     1       3.892   2.919  19.893  0.00  0.00    +0.000 C 
BRANCH  16  17
ATOM     17  C   UNL     1       2.305   3.120  20.227  0.00  0.00    +0.000 C 
BRANCH  17  18
ATOM     18  C   UNL     1       1.608   4.387  19.685  0.00  0.00    +0.000 C 
BRANCH  18  19
ATOM     19  C   UNL     1       2.066   5.598  20.505  0.00  0.00    +0.000 C 
BRANCH  19  23
ATOM     20  C   UNL     1       1.815   9.323  18.349  0.00  0.00    +0.000 A 
ATOM     21  C   UNL     1       2.410   8.206  17.757  0.00  0.00    +0.000 A 
ATOM     22  C   UNL     1       2.518   7.009  18.466  0.00  0.00    +0.000 A 
ATOM     23  C   UNL     1       2.037   6.919  19.783  0.00  0.00    +0.000 A 
ATOM     24  C   UNL     1       1.456   8.054  20.382  0.00  0.00    +0.000 A 
ATOM     25  C   UNL     1       1.341   9.248  19.662  0.00  0.00    +0.000 A 
ENDBRANCH  19  23
ENDBRANCH  18  19
ENDBRANCH  17  18
ENDBRANCH  16  17
ENDBRANCH   1  16
TORSDOF 5
ENDMDL
MODEL 2
REMARK VINA RESULT:      -8.6      0.908      1.692
REMARK  Name = 
REMARK  5 active torsions:
REMARK  status: ('A' for Active; 'I' for Inactive)
REMARK    1  A    between atoms: C_4  and  C_5
REMARK    2  A    between atoms: C_5  and  C_6
REMARK    3  A    between atoms: C_6  and  C_7
REMARK    4  A    between atoms: C_7  and  C_8
REMARK    5  A    between atoms: C_8  and  N_9
REMARK                            x       y       z     vdW  Elec       q    Type
REMARK                         _______ _______ _______ _____ _____    ______ ____
ROOT
ATOM      1  N   UNL     1       4.823   3.783  18.748  0.00  0.00    +0.000 NA
ATOM      2  C   UNL     1       5.673   4.838  19.367  0.00  0.00    +0.000 C 
ATOM      3  C   UNL     1       6.394   5.398  18.339  0.00  0.00    +0.000 C 
ATOM      4  C   UNL     1       7.182   6.027  17.370  0.00  0.00    +0.000 C 
ATOM      5  C   UNL     1       6.865   5.252  16.157  0.00  0.00    +0.000 A 
ATOM      6  N   UNL     1       7.539   5.652  15.114  0.00  0.00    +0.000 N 
ATOM      7  C   UNL     1       7.173   4.954  14.093  0.00  0.00    +0.000 A 
ATOM      8  C   UNL     1       7.763   5.230  12.873  0.00  0.00    +0.000 A 
ATOM      9  C   UNL     1       7.367   4.550  11.767  0.00  0.00    +0.000 A 
ATOM     10  C   UNL     1       6.365   3.578  11.908  0.00  0.00    +0.000 A 
ATOM     11  C   UNL     1       5.762   3.271  13.202  0.00  0.00    +0.000 A 
ATOM     12  C   UNL     1       6.176   3.994  14.402  0.00  0.00    +0.000 A 
ATOM     13  C   UNL     1       5.949   4.141  15.903  0.00  0.00    +0.000 A 
ATOM     14  C   UNL     1       4.959   3.375  17.159  0.00  0.00    +0.000 C 
ATOM     15  H   UNL     1       8.245   6.423  15.111  0.00  0.00    +0.000 HD
ENDROOT
BRANCH   1  16
ATOM     16  C   UNL     1       4.403   2.982  19.988  0.00  0.00    +0.000 C 
BRANCH  16  17
ATOM     17  C   UNL     1       3.066   2.056  19.822  0.00  0.00    +0.000 C 
BRANCH  17  18
ATOM     18  C   UNL     1       1.808   2.454  20.623  0.00  0.00    +0.000 C 
BRANCH  18  19
ATOM     19  C   UNL     1       0.900   3.308  19.732  0.00  0.00    +0.000 C 
BRANCH  19  23
ATOM     20  C   UNL     1       2.628   7.129  18.730  0.00  0.00    +0.000 A 
ATOM     21  C   UNL     1       2.315   6.825  20.056  0.00  0.00    +0.000 A 
ATOM     22  C   UNL     1       1.728   5.599  20.376  0.00  0.00    +0.000 A 
ATOM     23  C   UNL     1       1.439   4.666  19.368  0.00  0.00    +0.000 A 
ATOM     24  C   UNL     1       1.739   4.986  18.029  0.00  0.00    +0.000 A 
ATOM     25  C   UNL     1       2.338   6.212  17.716  0.00  0.00    +0.000 A 
ENDBRANCH  19  23
ENDBRANCH  18  19
ENDBRANCH  17  18
ENDBRANCH  16  17
ENDBRANCH   1  16
TORSDOF 5
ENDMDL
MODEL 3
REMARK VINA RESULT:      -8.6      0.835      1.317
REMARK  Name = 
REMARK  5 active torsions:
REMARK  status: ('A' for Active; 'I' for Inactive)
REMARK    1  A    between atoms: C_4  and  C_5
REMARK    2  A    between atoms: C_5  and  C_6
REMARK    3  A    between atoms: C_6  and  C_7
REMARK    4  A    between atoms: C_7  and  C_8
REMARK    5  A    between atoms: C_8  and  N_9
REMARK                            x       y       z     vdW  Elec       q    Type
REMARK                         _______ _______ _______ _____ _____    ______ ____
ROOT
ATOM      1  N   UNL     1       4.720   3.642  18.709  0.00  0.00    +0.000 NA
ATOM      2  C   UNL     1       5.539   4.689  19.378  0.00  0.00    +0.000 C 
ATOM      3  C   UNL     1       6.278   5.288  18.385  0.00  0.00    +0.000 C 
ATOM      4  C   UNL     1       7.081   5.955  17.454  0.00  0.00    +0.000 C 
ATOM      5  C   UNL     1       6.805   5.210  16.212  0.00  0.00    +0.000 A 
ATOM      6  N   UNL     1       7.499   5.649  15.198  0.00  0.00    +0.000 N 
ATOM      7  C   UNL     1       7.168   4.976  14.148  0.00  0.00    +0.000 A 
ATOM      8  C   UNL     1       7.784   5.294  12.952  0.00  0.00    +0.000 A 
ATOM      9  C   UNL     1       7.425   4.641  11.817  0.00  0.00    +0.000 A 
ATOM     10  C   UNL     1       6.433   3.653  11.906  0.00  0.00    +0.000 A 
ATOM     11  C   UNL     1       5.803   3.301  13.175  0.00  0.00    +0.000 A 
ATOM     12  C   UNL     1       6.176   3.994  14.406  0.00  0.00    +0.000 A 
ATOM     13  C   UNL     1       5.910   4.096  15.904  0.00  0.00    +0.000 A 
ATOM     14  C   UNL     1       4.900   3.280  17.112  0.00  0.00    +0.000 C 
ATOM     15  H   UNL     1       8.194   6.429  15.235  0.00  0.00    +0.000 HD
ENDROOT
BRANCH   1  16
ATOM     16  C   UNL     1       4.280   2.800  19.914  0.00  0.00    +0.000 C 
BRANCH  16  17
ATOM     17  C   UNL     1       2.815   2.085  19.791  0.00  0.00    +0.000 C 
BRANCH  17  18
ATOM     18  C   UNL     1       1.700   2.554  20.750  0.00  0.00    +0.000 C 
BRANCH  18  19
ATOM     19  C   UNL     1       0.809   3.566  20.020  0.00  0.00    +0.000 C 
BRANCH  19  23
ATOM     20  C   UNL     1       2.598   7.250  18.672  0.00  0.00    +0.000 A 
ATOM     21  C   UNL     1       2.343   6.218  17.765  0.00  0.00    +0.000 A 
ATOM     22  C   UNL     1       1.792   5.015  18.208  0.00  0.00    +0.000 A 
ATOM     23  C   UNL     1       1.496   4.827  19.568  0.00  0.00    +0.000 A 
ATOM     24  C   UNL     1       1.772   5.864  20.481  0.00  0.00    +0.000 A 
ATOM     25  C   UNL     1       2.315   7.072  20.029  0.00  0.00    +0.000 A 
ENDBRANCH  19  23
ENDBRANCH  18  19
ENDBRANCH  17  18
ENDBRANCH  16  17
ENDBRANCH   1  16
TORSDOF 5
ENDMDL
MODEL 4
REMARK VINA RESULT:      -8.4      0.593      1.178
REMARK  Name = 
REMARK  5 active torsions:
REMARK  status: ('A' for Active; 'I' for Inactive)
REMARK    1  A    between atoms: C_4  and  C_5
REMARK    2  A    between atoms: C_5  and  C_6
REMARK    3  A    between atoms: C_6  and  C_7
REMARK    4  A    between atoms: C_7  and  C_8
REMARK    5  A    between atoms: C_8  and  N_9
REMARK                            x       y       z     vdW  Elec       q    Type
REMARK                         _______ _______ _______ _____ _____    ______ ____
ROOT
ATOM      1  N   UNL     1       4.032   4.169  18.592  0.00  0.00    +0.000 NA
ATOM      2  C   UNL     1       4.945   5.100  19.311  0.00  0.00    +0.000 C 
ATOM      3  C   UNL     1       5.852   5.541  18.377  0.00  0.00    +0.000 C 
ATOM      4  C   UNL     1       6.828   6.042  17.509  0.00  0.00    +0.000 C 
ATOM      5  C   UNL     1       6.547   5.306  16.263  0.00  0.00    +0.000 A 
ATOM      6  N   UNL     1       7.386   5.596  15.307  0.00  0.00    +0.000 N 
ATOM      7  C   UNL     1       7.046   4.945  14.247  0.00  0.00    +0.000 A 
ATOM      8  C   UNL     1       7.806   5.121  13.105  0.00  0.00    +0.000 A 
ATOM      9  C   UNL     1       7.448   4.491  11.957  0.00  0.00    +0.000 A 
ATOM     10  C   UNL     1       6.309   3.673  11.975  0.00  0.00    +0.000 A 
ATOM     11  C   UNL     1       5.523   3.468  13.189  0.00  0.00    +0.000 A 
ATOM     12  C   UNL     1       5.894   4.138  14.434  0.00  0.00    +0.000 A 
ATOM     13  C   UNL     1       5.518   4.333  15.899  0.00  0.00    +0.000 A 
ATOM     14  C   UNL     1       4.291   3.727  17.027  0.00  0.00    +0.000 C 
ATOM     15  H   UNL     1       8.190   6.259  15.390  0.00  0.00    +0.000 HD
ENDROOT
BRANCH   1  16
ATOM     16  C   UNL     1       3.362   3.449  19.771  0.00  0.00    +0.000 C 
BRANCH  16  17
ATOM     17  C   UNL     1       2.692   4.411  20.909  0.00  0.00    +0.000 C 
BRANCH  17  18
ATOM     18  C   UNL     1       1.462   5.254  20.509  0.00  0.00    +0.000 C 
BRANCH  18  19
ATOM     19  C   UNL     1       1.685   6.703  20.957  0.00  0.00    +0.000 C 
BRANCH  19  23
ATOM     20  C   UNL     1       1.895   9.725  17.889  0.00  0.00    +0.000 A 
ATOM     21  C   UNL     1       1.184   9.967  19.067  0.00  0.00    +0.000 A 
ATOM     22  C   UNL     1       1.091   8.977  20.047  0.00  0.00    +0.000 A 
ATOM     23  C   UNL     1       1.704   7.728  19.854  0.00  0.00    +0.000 A 
ATOM     24  C   UNL     1       2.404   7.483  18.656  0.00  0.00    +0.000 A 
ATOM     25  C   UNL     1       2.502   8.483  17.682  0.00  0.00    +0.000 A 
ENDBRANCH  19  23
ENDBRANCH  18  19
ENDBRANCH  17  18
ENDBRANCH  16  17
ENDBRANCH   1  16
TORSDOF 5
ENDMDL
MODEL 5
REMARK VINA RESULT:      -8.1      4.402      7.693
REMARK  Name = 
REMARK  5 active torsions:
REMARK  status: ('A' for Active; 'I' for Inactive)
REMARK    1  A    between atoms: C_4  and  C_5
REMARK    2  A    between atoms: C_5  and  C_6
REMARK    3  A    between atoms: C_6  and  C_7
REMARK    4  A    between atoms: C_7  and  C_8
REMARK    5  A    between atoms: C_8  and  N_9
REMARK                            x       y       z     vdW  Elec       q    Type
REMARK                         _______ _______ _______ _____ _____    ______ ____
ROOT
ATOM      1  N   UNL     1       6.438   6.631  16.787  0.00  0.00    +0.000 NA
ATOM      2  C   UNL     1       6.759   5.620  15.742  0.00  0.00    +0.000 C 
ATOM      3  C   UNL     1       5.826   4.620  15.879  0.00  0.00    +0.000 C 
ATOM      4  C   UNL     1       4.932   3.546  15.942  0.00  0.00    +0.000 C 
ATOM      5  C   UNL     1       4.122   3.881  17.127  0.00  0.00    +0.000 A 
ATOM      6  N   UNL     1       3.230   2.969  17.400  0.00  0.00    +0.000 N 
ATOM      7  C   UNL     1       2.540   3.358  18.418  0.00  0.00    +0.000 A 
ATOM      8  C   UNL     1       1.524   2.534  18.867  0.00  0.00    +0.000 A 
ATOM      9  C   UNL     1       0.745   2.933  19.905  0.00  0.00    +0.000 A 
ATOM     10  C   UNL     1       1.006   4.181  20.490  0.00  0.00    +0.000 A 
ATOM     11  C   UNL     1       2.096   5.038  20.030  0.00  0.00    +0.000 A 
ATOM     12  C   UNL     1       2.944   4.624  18.915  0.00  0.00    +0.000 A 
ATOM     13  C   UNL     1       4.123   5.027  18.035  0.00  0.00    +0.000 A 
ATOM     14  C   UNL     1       5.268   6.375  17.918  0.00  0.00    +0.000 C 
ATOM     15  H   UNL     1       3.093   2.080  16.867  0.00  0.00    +0.000 HD
ENDROOT
BRANCH   1  16
ATOM     16  C   UNL     1       7.737   7.448  16.812  0.00  0.00    +0.000 C 
BRANCH  16  17
ATOM     17  C   UNL     1       8.029   8.284  18.186  0.00  0.00    +0.000 C 
BRANCH  17  18
ATOM     18  C   UNL     1       8.497   9.750  18.054  0.00  0.00    +0.000 C 
BRANCH  18  19
ATOM     19  C   UNL     1       9.372  10.104  19.261  0.00  0.00    +0.000 C 
BRANCH  19  23
ATOM     20  C   UNL     1      12.019  13.445  18.616  0.00  0.00    +0.000 A 
ATOM     21  C   UNL     1      11.533  12.713  17.531  0.00  0.00    +0.000 A 
ATOM     22  C   UNL     1      10.700  11.613  17.742  0.00  0.00    +0.000 A 
ATOM     23  C   UNL     1      10.350  11.228  19.046  0.00  0.00    +0.000 A 
ATOM     24  C   UNL     1      10.859  11.958  20.139  0.00  0.00    +0.000 A 
ATOM     25  C   UNL     1      11.685  13.067  19.920  0.00  0.00    +0.000 A 
ENDBRANCH  19  23
ENDBRANCH  18  19
ENDBRANCH  17  18
ENDBRANCH  16  17
ENDBRANCH   1  16
TORSDOF 5
ENDMDL
MODEL 6
REMARK VINA RESULT:      -8.0      0.970      1.548
REMARK  Name = 
REMARK  5 active torsions:
REMARK  status: ('A' for Active; 'I' for Inactive)
REMARK    1  A    between atoms: C_4  and  C_5
REMARK    2  A    between atoms: C_5  and  C_6
REMARK    3  A    between atoms: C_6  and  C_7
REMARK    4  A    between atoms: C_7  and  C_8
REMARK    5  A    between atoms: C_8  and  N_9
REMARK                            x       y       z     vdW  Elec       q    Type
REMARK                         _______ _______ _______ _____ _____    ______ ____
ROOT
ATOM      1  N   UNL     1       4.174   4.644  18.584  0.00  0.00    +0.000 NA
ATOM      2  C   UNL     1       5.237   5.464  19.228  0.00  0.00    +0.000 C 
ATOM      3  C   UNL     1       6.152   5.743  18.240  0.00  0.00    +0.000 C 
ATOM      4  C   UNL     1       7.147   6.074  17.314  0.00  0.00    +0.000 C 
ATOM      5  C   UNL     1       6.711   5.341  16.111  0.00  0.00    +0.000 A 
ATOM      6  N   UNL     1       7.538   5.479  15.111  0.00  0.00    +0.000 N 
ATOM      7  C   UNL     1       7.064   4.845  14.093  0.00  0.00    +0.000 A 
ATOM      8  C   UNL     1       7.788   4.875  12.915  0.00  0.00    +0.000 A 
ATOM      9  C   UNL     1       7.296   4.261  11.809  0.00  0.00    +0.000 A 
ATOM     10  C   UNL     1       6.058   3.609  11.906  0.00  0.00    +0.000 A 
ATOM     11  C   UNL     1       5.308   3.557  13.158  0.00  0.00    +0.000 A 
ATOM     12  C   UNL     1       5.822   4.212  14.358  0.00  0.00    +0.000 A 
ATOM     13  C   UNL     1       5.544   4.507  15.829  0.00  0.00    +0.000 A 
ATOM     14  C   UNL     1       4.299   4.117  17.029  0.00  0.00    +0.000 C 
ATOM     15  H   UNL     1       8.428   6.028  15.135  0.00  0.00    +0.000 HD
ENDROOT
BRANCH   1  16
ATOM     16  C   UNL     1       3.467   4.064  19.817  0.00  0.00    +0.000 C 
BRANCH  16  17
ATOM     17  C   UNL     1       1.902   4.494  20.012  0.00  0.00    +0.000 C 
BRANCH  17  18
ATOM     18  C   UNL     1       1.601   5.783  20.807  0.00  0.00    +0.000 C 
BRANCH  18  19
ATOM     19  C   UNL     1       2.036   6.994  19.975  0.00  0.00    +0.000 C 
BRANCH  19  23
ATOM     20  C   UNL     1       0.152  10.701  21.116  0.00  0.00    +0.000 A 
ATOM     21  C   UNL     1       0.496  10.468  19.782  0.00  0.00    +0.000 A 
ATOM     22  C   UNL     1       1.133   9.280  19.419  0.00  0.00    +0.000 A 
ATOM     23  C   UNL     1       1.441   8.314  20.390  0.00  0.00    +0.000 A 
ATOM     24  C   UNL     1       1.109   8.562  21.736  0.00  0.00    +0.000 A 
ATOM     25  C   UNL     1       0.461   9.750  22.093  0.00  0.00    +0.000 A 
ENDBRANCH  19  23
ENDBRANCH  18  19
ENDBRANCH  17  18
ENDBRANCH  16  17
ENDBRANCH   1  16
TORSDOF 5
ENDMDL
MODEL 7
REMARK VINA RESULT:      -7.9      4.632      7.793
REMARK  Name = 
REMARK  5 active torsions:
REMARK  status: ('A' for Active; 'I' for Inactive)
REMARK    1  A    between atoms: C_4  and  C_5
REMARK    2  A    between atoms: C_5  and  C_6
REMARK    3  A    between atoms: C_6  and  C_7
REMARK    4  A    between atoms: C_7  and  C_8
REMARK    5  A    between atoms: C_8  and  N_9
REMARK                            x       y       z     vdW  Elec       q    Type
REMARK                         _______ _______ _______ _____ _____    ______ ____
ROOT
ATOM      1  N   UNL     1       6.685   6.582  17.824  0.00  0.00    +0.000 NA
ATOM      2  C   UNL     1       7.103   5.807  16.624  0.00  0.00    +0.000 C 
ATOM      3  C   UNL     1       6.145   4.838  16.443  0.00  0.00    +0.000 C 
ATOM      4  C   UNL     1       5.233   3.810  16.178  0.00  0.00    +0.000 C 
ATOM      5  C   UNL     1       4.302   3.916  17.317  0.00  0.00    +0.000 A 
ATOM      6  N   UNL     1       3.371   3.003  17.292  0.00  0.00    +0.000 N 
ATOM      7  C   UNL     1       2.580   3.192  18.293  0.00  0.00    +0.000 A 
ATOM      8  C   UNL     1       1.508   2.331  18.444  0.00  0.00    +0.000 A 
ATOM      9  C   UNL     1       0.626   2.530  19.457  0.00  0.00    +0.000 A 
ATOM     10  C   UNL     1       0.841   3.612  20.322  0.00  0.00    +0.000 A 
ATOM     11  C   UNL     1       1.988   4.504  20.175  0.00  0.00    +0.000 A 
ATOM     12  C   UNL     1       2.947   4.305  19.091  0.00  0.00    +0.000 A 
ATOM     13  C   UNL     1       4.221   4.841  18.446  0.00  0.00    +0.000 A 
ATOM     14  C   UNL     1       5.394   6.137  18.744  0.00  0.00    +0.000 C 
ATOM     15  H   UNL     1       3.280   2.254  16.568  0.00  0.00    +0.000 HD
ENDROOT
BRANCH   1  16
ATOM     16  C   UNL     1       7.986   7.324  18.160  0.00  0.00    +0.000 C 
BRANCH  16  17
ATOM     17  C   UNL     1       8.010   8.920  17.808  0.00  0.00    +0.000 C 
BRANCH  17  18
ATOM     18  C   UNL     1       8.918   9.834  18.660  0.00  0.00    +0.000 C 
BRANCH  18  19
ATOM     19  C   UNL     1       8.677  11.292  18.255  0.00  0.00    +0.000 C 
BRANCH  19  23
ATOM     20  C   UNL     1      12.205  13.732  17.821  0.00  0.00    +0.000 A 
ATOM     21  C   UNL     1      10.941  14.272  17.570  0.00  0.00    +0.000 A 
ATOM     22  C   UNL     1       9.802  13.473  17.682  0.00  0.00    +0.000 A 
ATOM     23  C   UNL     1       9.916  12.120  18.039  0.00  0.00    +0.000 A 
ATOM     24  C   UNL     1      11.194  11.576  18.272  0.00  0.00    +0.000 A 
ATOM     25  C   UNL     1      12.332  12.384  18.169  0.00  0.00    +0.000 A 
ENDBRANCH  19  23
ENDBRANCH  18  19
ENDBRANCH  17  18
ENDBRANCH  16  17
ENDBRANCH   1  16
TORSDOF 5
ENDMDL
MODEL 8
REMARK VINA RESULT:      -7.8      4.599      7.740
REMARK  Name = 
REMARK  5 active torsions:
REMARK  status: ('A' for Active; 'I' for Inactive)
REMARK    1  A    between atoms: C_4  and  C_5
REMARK    2  A    between atoms: C_5  and  C_6
REMARK    3  A    between atoms: C_6  and  C_7
REMARK    4  A    between atoms: C_7  and  C_8
REMARK    5  A    between atoms: C_8  and  N_9
REMARK                            x       y       z     vdW  Elec       q    Type
REMARK                         _______ _______ _______ _____ _____    ______ ____
ROOT
ATOM      1  N   UNL     1       6.741   6.470  18.013  0.00  0.00    +0.000 NA
ATOM      2  C   UNL     1       6.983   5.892  16.663  0.00  0.00    +0.000 C 
ATOM      3  C   UNL     1       5.956   5.005  16.439  0.00  0.00    +0.000 C 
ATOM      4  C   UNL     1       4.964   4.073  16.117  0.00  0.00    +0.000 C 
ATOM      5  C   UNL     1       4.168   4.023  17.357  0.00  0.00    +0.000 A 
ATOM      6  N   UNL     1       3.189   3.163  17.291  0.00  0.00    +0.000 N 
ATOM      7  C   UNL     1       2.521   3.212  18.394  0.00  0.00    +0.000 A 
ATOM      8  C   UNL     1       1.424   2.380  18.526  0.00  0.00    +0.000 A 
ATOM      9  C   UNL     1       0.668   2.441  19.652  0.00  0.00    +0.000 A 
ATOM     10  C   UNL     1       1.036   3.353  20.651  0.00  0.00    +0.000 A 
ATOM     11  C   UNL     1       2.211   4.212  20.520  0.00  0.00    +0.000 A 
ATOM     12  C   UNL     1       3.035   4.160  19.315  0.00  0.00    +0.000 A 
ATOM     13  C   UNL     1       4.262   4.746  18.624  0.00  0.00    +0.000 A 
ATOM     14  C   UNL     1       5.532   5.928  18.991  0.00  0.00    +0.000 C 
ATOM     15  H   UNL     1       2.977   2.551  16.470  0.00  0.00    +0.000 HD
ENDROOT
BRANCH   1  16
ATOM     16  C   UNL     1       8.111   7.094  18.314  0.00  0.00    +0.000 C 
BRANCH  16  17
ATOM     17  C   UNL     1       8.334   8.622  17.779  0.00  0.00    +0.000 C 
BRANCH  17  18
ATOM     18  C   UNL     1       8.652   9.713  18.824  0.00  0.00    +0.000 C 
BRANCH  18  19
ATOM     19  C   UNL     1       8.964  11.025  18.094  0.00  0.00    +0.000 C 
BRANCH  19  23
ATOM     20  C   UNL     1      12.099  13.503  19.711  0.00  0.00    +0.000 A 
ATOM     21  C   UNL     1      12.333  12.150  19.456  0.00  0.00    +0.000 A 
ATOM     22  C   UNL     1      11.309  11.342  18.960  0.00  0.00    +0.000 A 
ATOM     23  C   UNL     1      10.033  11.879  18.722  0.00  0.00    +0.000 A 
ATOM     24  C   UNL     1       9.798  13.240  18.999  0.00  0.00    +0.000 A 
ATOM     25  C   UNL     1      10.832  14.048  19.486  0.00  0.00    +0.000 A 
ENDBRANCH  19  23
ENDBRANCH  18  19
ENDBRANCH  17  18
ENDBRANCH  16  17
ENDBRANCH   1  16
TORSDOF 5
ENDMDL
MODEL 9
REMARK VINA RESULT:      -7.8      4.647      7.520
REMARK  Name = 
REMARK  5 active torsions:
REMARK  status: ('A' for Active; 'I' for Inactive)
REMARK    1  A    between atoms: C_4  and  C_5
REMARK    2  A    between atoms: C_5  and  C_6
REMARK    3  A    between atoms: C_6  and  C_7
REMARK    4  A    between atoms: C_7  and  C_8
REMARK    5  A    between atoms: C_8  and  N_9
REMARK                            x       y       z     vdW  Elec       q    Type
REMARK                         _______ _______ _______ _____ _____    ______ ____
ROOT
ATOM      1  N   UNL     1       6.654   6.578  17.643  0.00  0.00    +0.000 NA
ATOM      2  C   UNL     1       6.947   5.847  16.379  0.00  0.00    +0.000 C 
ATOM      3  C   UNL     1       5.939   4.923  16.231  0.00  0.00    +0.000 C 
ATOM      4  C   UNL     1       4.969   3.944  15.991  0.00  0.00    +0.000 C 
ATOM      5  C   UNL     1       4.133   4.029  17.203  0.00  0.00    +0.000 A 
ATOM      6  N   UNL     1       3.167   3.152  17.209  0.00  0.00    +0.000 N 
ATOM      7  C   UNL     1       2.463   3.321  18.277  0.00  0.00    +0.000 A 
ATOM      8  C   UNL     1       1.373   2.493  18.473  0.00  0.00    +0.000 A 
ATOM      9  C   UNL     1       0.579   2.675  19.560  0.00  0.00    +0.000 A 
ATOM     10  C   UNL     1       0.904   3.705  20.455  0.00  0.00    +0.000 A 
ATOM     11  C   UNL     1       2.071   4.560  20.258  0.00  0.00    +0.000 A 
ATOM     12  C   UNL     1       2.935   4.380  19.094  0.00  0.00    +0.000 A 
ATOM     13  C   UNL     1       4.177   4.899  18.377  0.00  0.00    +0.000 A 
ATOM     14  C   UNL     1       5.420   6.136  18.641  0.00  0.00    +0.000 C 
ATOM     15  H   UNL     1       2.990   2.443  16.461  0.00  0.00    +0.000 HD
ENDROOT
BRANCH   1  16
ATOM     16  C   UNL     1       8.006   7.254  17.910  0.00  0.00    +0.000 C 
BRANCH  16  17
ATOM     17  C   UNL     1       8.007   8.888  17.870  0.00  0.00    +0.000 C 
BRANCH  17  18
ATOM     18  C   UNL     1       8.977   9.632  18.814  0.00  0.00    +0.000 C 
BRANCH  18  19
ATOM     19  C   UNL     1       9.223  11.042  18.265  0.00  0.00    +0.000 C 
BRANCH  19  23
ATOM     20  C   UNL     1      10.212  13.996  21.246  0.00  0.00    +0.000 A 
ATOM     21  C   UNL     1       9.734  12.741  21.631  0.00  0.00    +0.000 A 
ATOM     22  C   UNL     1       9.385  11.796  20.664  0.00  0.00    +0.000 A 
ATOM     23  C   UNL     1       9.504  12.100  19.298  0.00  0.00    +0.000 A 
ATOM     24  C   UNL     1       9.969  13.374  18.916  0.00  0.00    +0.000 A 
ATOM     25  C   UNL     1      10.327  14.314  19.889  0.00  0.00    +0.000 A 
ENDBRANCH  19  23
ENDBRANCH  18  19
ENDBRANCH  17  18
ENDBRANCH  16  17
ENDBRANCH   1  16
TORSDOF 5
ENDMDL
