MODEL 1
REMARK VINA RESULT:      -7.6      0.000      0.000
REMARK  Name = 
REMARK  6 active torsions:
REMARK  status: ('A' for Active; 'I' for Inactive)
REMARK    1  A    between atoms: C_1  and  C_2
REMARK    2  A    between atoms: C_2  and  C_4
REMARK    3  A    between atoms: N_7  and  N_8
REMARK    4  A    between atoms: C_9  and  C_10
REMARK    5  A    between atoms: C_9  and  C_11
REMARK    6  A    between atoms: C_18  and  C_19
REMARK                            x       y       z     vdW  Elec       q    Type
REMARK                         _______ _______ _______ _____ _____    ______ ____
ROOT
ATOM      1  C   UNL     1       6.424   4.008  13.558  0.00  0.00    +0.000 A 
ATOM      2  S   UNL     1       5.751   3.697  15.100  0.00  0.00    +0.000 S 
ATOM      3  C   UNL     1       6.738   4.914  15.802  0.00  0.00    +0.000 A 
ATOM      4  N   UNL     1       6.700   5.229  17.122  0.00  0.00    +0.000 N 
ATOM      5  N   UNL     1       7.535   5.522  14.953  0.00  0.00    +0.000 NA
ATOM      6  C   UNL     1       7.368   5.020  13.668  0.00  0.00    +0.000 A 
ATOM      7  C   UNL     1       8.200   5.612  12.585  0.00  0.00    +0.000 C 
ATOM      8  H   UNL     1       7.315   5.993  17.378  0.00  0.00    +0.000 HD
ENDROOT
BRANCH   1  10
ATOM      9  C   UNL     1       4.588   3.456  11.873  0.00  0.00    +0.000 C 
ATOM     10  C   UNL     1       6.005   3.272  12.375  0.00  0.00    +0.000 C 
ATOM     11  O   UNL     1       6.760   2.510  11.767  0.00  0.00    +0.000 OA
ENDBRANCH   1  10
BRANCH   4  12
ATOM     12  N   UNL     1       5.853   4.657  18.012  0.00  0.00    +0.000 NA
ATOM     13  C   UNL     1       4.733   5.237  18.340  0.00  0.00    +0.000 C 
ATOM     14  C   UNL     1       4.234   6.568  17.815  0.00  0.00    +0.000 C 
BRANCH  13  15
ATOM     15  C   UNL     1       3.841   4.545  19.327  0.00  0.00    +0.000 A 
ATOM     16  C   UNL     1       2.779   5.227  19.916  0.00  0.00    +0.000 A 
ATOM     17  C   UNL     1       1.982   4.550  20.833  0.00  0.00    +0.000 A 
ATOM     18  C   UNL     1       2.267   3.222  21.133  0.00  0.00    +0.000 A 
ATOM     19  C   UNL     1       3.341   2.622  20.495  0.00  0.00    +0.000 A 
ATOM     20  N   UNL     1       4.135   3.248  19.601  0.00  0.00    +0.000 NA
ENDBRANCH  13  15
ENDBRANCH   4  12
TORSDOF 3
ENDMDL
MODEL 2
REMARK VINA RESULT:      -7.5      0.995      1.115
REMARK  Name = 
REMARK  6 active torsions:
REMARK  status: ('A' for Active; 'I' for Inactive)
REMARK    1  A    between atoms: C_1  and  C_2
REMARK    2  A    between atoms: C_2  and  C_4
REMARK    3  A    between atoms: N_7  and  N_8
REMARK    4  A    between atoms: C_9  and  C_10
REMARK    5  A    between atoms: C_9  and  C_11
REMARK    6  A    between atoms: C_18  and  C_19
REMARK                            x       y       z     vdW  Elec       q    Type
REMARK                         _______ _______ _______ _____ _____    ______ ____
ROOT
ATOM      1  C   UNL     1       6.364   4.046  13.559  0.00  0.00    +0.000 A 
ATOM      2  S   UNL     1       5.462   3.762  14.985  0.00  0.00    +0.000 S 
ATOM      3  C   UNL     1       6.387   4.935  15.832  0.00  0.00    +0.000 A 
ATOM      4  N   UNL     1       6.171   5.250  17.134  0.00  0.00    +0.000 N 
ATOM      5  N   UNL     1       7.324   5.509  15.111  0.00  0.00    +0.000 NA
ATOM      6  C   UNL     1       7.324   5.016  13.812  0.00  0.00    +0.000 A 
ATOM      7  C   UNL     1       8.329   5.574  12.865  0.00  0.00    +0.000 C 
ATOM      8  H   UNL     1       6.774   5.987  17.482  0.00  0.00    +0.000 HD
ENDROOT
BRANCH   1  10
ATOM      9  C   UNL     1       4.680   3.345  11.775  0.00  0.00    +0.000 C 
ATOM     10  C   UNL     1       6.091   3.329  12.323  0.00  0.00    +0.000 C 
ATOM     11  O   UNL     1       6.965   2.715  11.706  0.00  0.00    +0.000 OA
ENDBRANCH   1  10
BRANCH   4  12
ATOM     12  N   UNL     1       5.180   4.714  17.888  0.00  0.00    +0.000 NA
ATOM     13  C   UNL     1       4.083   5.377  18.123  0.00  0.00    +0.000 C 
ATOM     14  C   UNL     1       3.765   6.773  17.630  0.00  0.00    +0.000 C 
BRANCH  13  15
ATOM     15  C   UNL     1       3.027   4.721  18.961  0.00  0.00    +0.000 A 
ATOM     16  C   UNL     1       2.049   3.926  18.367  0.00  0.00    +0.000 A 
ATOM     17  C   UNL     1       1.083   3.343  19.181  0.00  0.00    +0.000 A 
ATOM     18  C   UNL     1       1.121   3.569  20.552  0.00  0.00    +0.000 A 
ATOM     19  C   UNL     1       2.133   4.371  21.057  0.00  0.00    +0.000 A 
ATOM     20  N   UNL     1       3.086   4.951  20.298  0.00  0.00    +0.000 NA
ENDBRANCH  13  15
ENDBRANCH   4  12
TORSDOF 3
ENDMDL
MODEL 3
REMARK VINA RESULT:      -7.4      0.961      1.002
REMARK  Name = 
REMARK  6 active torsions:
REMARK  status: ('A' for Active; 'I' for Inactive)
REMARK    1  A    between atoms: C_1  and  C_2
REMARK    2  A    between atoms: C_2  and  C_4
REMARK    3  A    between atoms: N_7  and  N_8
REMARK    4  A    between atoms: C_9  and  C_10
REMARK    5  A    between atoms: C_9  and  C_11
REMARK    6  A    between atoms: C_18  and  C_19
REMARK                            x       y       z     vdW  Elec       q    Type
REMARK                         _______ _______ _______ _____ _____    ______ ____
ROOT
ATOM      1  C   UNL     1       6.312   4.017  13.559  0.00  0.00    +0.000 A 
ATOM      2  S   UNL     1       5.404   3.711  14.977  0.00  0.00    +0.000 S 
ATOM      3  C   UNL     1       6.330   4.868  15.846  0.00  0.00    +0.000 A 
ATOM      4  N   UNL     1       6.111   5.160  17.154  0.00  0.00    +0.000 N 
ATOM      5  N   UNL     1       7.270   5.451  15.139  0.00  0.00    +0.000 NA
ATOM      6  C   UNL     1       7.273   4.980  13.831  0.00  0.00    +0.000 A 
ATOM      7  C   UNL     1       8.282   5.551  12.897  0.00  0.00    +0.000 C 
ATOM      8  H   UNL     1       6.715   5.890  17.516  0.00  0.00    +0.000 HD
ENDROOT
BRANCH   1  10
ATOM      9  C   UNL     1       4.642   3.393  11.732  0.00  0.00    +0.000 C 
ATOM     10  C   UNL     1       6.040   3.322  12.310  0.00  0.00    +0.000 C 
ATOM     11  O   UNL     1       6.905   2.684  11.705  0.00  0.00    +0.000 OA
ENDBRANCH   1  10
BRANCH   4  12
ATOM     12  N   UNL     1       5.116   4.615  17.895  0.00  0.00    +0.000 NA
ATOM     13  C   UNL     1       4.023   5.279  18.144  0.00  0.00    +0.000 C 
ATOM     14  C   UNL     1       3.714   6.687  17.680  0.00  0.00    +0.000 C 
BRANCH  13  15
ATOM     15  C   UNL     1       2.962   4.611  18.967  0.00  0.00    +0.000 A 
ATOM     16  C   UNL     1       2.875   4.855  20.335  0.00  0.00    +0.000 A 
ATOM     17  C   UNL     1       1.880   4.207  21.063  0.00  0.00    +0.000 A 
ATOM     18  C   UNL     1       1.011   3.343  20.406  0.00  0.00    +0.000 A 
ATOM     19  C   UNL     1       1.169   3.164  19.041  0.00  0.00    +0.000 A 
ATOM     20  N   UNL     1       2.121   3.775  18.305  0.00  0.00    +0.000 NA
ENDBRANCH  13  15
ENDBRANCH   4  12
TORSDOF 3
ENDMDL
MODEL 4
REMARK VINA RESULT:      -6.9      2.648      7.156
REMARK  Name = 
REMARK  6 active torsions:
REMARK  status: ('A' for Active; 'I' for Inactive)
REMARK    1  A    between atoms: C_1  and  C_2
REMARK    2  A    between atoms: C_2  and  C_4
REMARK    3  A    between atoms: N_7  and  N_8
REMARK    4  A    between atoms: C_9  and  C_10
REMARK    5  A    between atoms: C_9  and  C_11
REMARK    6  A    between atoms: C_18  and  C_19
REMARK                            x       y       z     vdW  Elec       q    Type
REMARK                         _______ _______ _______ _____ _____    ______ ____
ROOT
ATOM      1  C   UNL     1       2.193   4.127  18.956  0.00  0.00    +0.000 A 
ATOM      2  S   UNL     1       3.024   4.240  17.464  0.00  0.00    +0.000 S 
ATOM      3  C   UNL     1       3.760   5.711  17.959  0.00  0.00    +0.000 A 
ATOM      4  N   UNL     1       4.630   6.402  17.180  0.00  0.00    +0.000 N 
ATOM      5  N   UNL     1       3.412   6.113  19.160  0.00  0.00    +0.000 NA
ATOM      6  C   UNL     1       2.521   5.221  19.744  0.00  0.00    +0.000 A 
ATOM      7  C   UNL     1       2.035   5.535  21.116  0.00  0.00    +0.000 C 
ATOM      8  H   UNL     1       5.007   7.231  17.625  0.00  0.00    +0.000 HD
ENDROOT
BRANCH   1  10
ATOM      9  C   UNL     1       1.266   2.482  20.673  0.00  0.00    +0.000 C 
ATOM     10  C   UNL     1       1.303   3.016  19.257  0.00  0.00    +0.000 C 
ATOM     11  O   UNL     1       0.578   2.499  18.404  0.00  0.00    +0.000 OA
ENDBRANCH   1  10
BRANCH   4  12
ATOM     12  N   UNL     1       5.048   5.986  15.959  0.00  0.00    +0.000 NA
ATOM     13  C   UNL     1       6.151   5.305  15.824  0.00  0.00    +0.000 C 
ATOM     14  C   UNL     1       7.090   4.902  16.943  0.00  0.00    +0.000 C 
BRANCH  13  15
ATOM     15  C   UNL     1       6.550   4.873  14.445  0.00  0.00    +0.000 A 
ATOM     16  C   UNL     1       5.833   3.880  13.782  0.00  0.00    +0.000 A 
ATOM     17  C   UNL     1       6.243   3.503  12.507  0.00  0.00    +0.000 A 
ATOM     18  C   UNL     1       7.349   4.124  11.937  0.00  0.00    +0.000 A 
ATOM     19  C   UNL     1       8.000   5.106  12.667  0.00  0.00    +0.000 A 
ATOM     20  N   UNL     1       7.630   5.496  13.906  0.00  0.00    +0.000 NA
ENDBRANCH  13  15
ENDBRANCH   4  12
TORSDOF 3
ENDMDL
MODEL 5
REMARK VINA RESULT:      -6.9      3.081      7.379
REMARK  Name = 
REMARK  6 active torsions:
REMARK  status: ('A' for Active; 'I' for Inactive)
REMARK    1  A    between atoms: C_1  and  C_2
REMARK    2  A    between atoms: C_2  and  C_4
REMARK    3  A    between atoms: N_7  and  N_8
REMARK    4  A    between atoms: C_9  and  C_10
REMARK    5  A    between atoms: C_9  and  C_11
REMARK    6  A    between atoms: C_18  and  C_19
REMARK                            x       y       z     vdW  Elec       q    Type
REMARK                         _______ _______ _______ _____ _____    ______ ____
ROOT
ATOM      1  C   UNL     1       2.785   6.359  18.996  0.00  0.00    +0.000 A 
ATOM      2  S   UNL     1       3.618   6.007  17.543  0.00  0.00    +0.000 S 
ATOM      3  C   UNL     1       4.012   4.439  18.121  0.00  0.00    +0.000 A 
ATOM      4  N   UNL     1       4.724   3.539  17.396  0.00  0.00    +0.000 N 
ATOM      5  N   UNL     1       3.564   4.178  19.329  0.00  0.00    +0.000 NA
ATOM      6  C   UNL     1       2.860   5.261  19.842  0.00  0.00    +0.000 A 
ATOM      7  C   UNL     1       2.281   5.120  21.206  0.00  0.00    +0.000 C 
ATOM      8  H   UNL     1       4.844   2.645  17.858  0.00  0.00    +0.000 HD
ENDROOT
BRANCH   1  10
ATOM      9  C   UNL     1       1.898   8.545  18.024  0.00  0.00    +0.000 C 
ATOM     10  C   UNL     1       2.131   7.640  19.215  0.00  0.00    +0.000 C 
ATOM     11  O   UNL     1       1.759   8.012  20.330  0.00  0.00    +0.000 OA
ENDBRANCH   1  10
BRANCH   4  12
ATOM     12  N   UNL     1       5.154   3.758  16.129  0.00  0.00    +0.000 NA
ATOM     13  C   UNL     1       6.360   4.190  15.896  0.00  0.00    +0.000 C 
ATOM     14  C   UNL     1       7.409   4.507  16.943  0.00  0.00    +0.000 C 
BRANCH  13  15
ATOM     15  C   UNL     1       6.770   4.406  14.470  0.00  0.00    +0.000 A 
ATOM     16  C   UNL     1       6.198   3.649  13.450  0.00  0.00    +0.000 A 
ATOM     17  C   UNL     1       6.614   3.876  12.142  0.00  0.00    +0.000 A 
ATOM     18  C   UNL     1       7.582   4.843  11.893  0.00  0.00    +0.000 A 
ATOM     19  C   UNL     1       8.093   5.552  12.969  0.00  0.00    +0.000 A 
ATOM     20  N   UNL     1       7.713   5.358  14.250  0.00  0.00    +0.000 NA
ENDBRANCH  13  15
ENDBRANCH   4  12
TORSDOF 3
ENDMDL
MODEL 6
REMARK VINA RESULT:      -6.8      5.003      6.386
REMARK  Name = 
REMARK  6 active torsions:
REMARK  status: ('A' for Active; 'I' for Inactive)
REMARK    1  A    between atoms: C_1  and  C_2
REMARK    2  A    between atoms: C_2  and  C_4
REMARK    3  A    between atoms: N_7  and  N_8
REMARK    4  A    between atoms: C_9  and  C_10
REMARK    5  A    between atoms: C_9  and  C_11
REMARK    6  A    between atoms: C_18  and  C_19
REMARK                            x       y       z     vdW  Elec       q    Type
REMARK                         _______ _______ _______ _____ _____    ______ ____
ROOT
ATOM      1  C   UNL     1       3.817   4.092  18.734  0.00  0.00    +0.000 A 
ATOM      2  S   UNL     1       2.999   5.243  19.701  0.00  0.00    +0.000 S 
ATOM      3  C   UNL     1       3.090   6.404  18.438  0.00  0.00    +0.000 A 
ATOM      4  N   UNL     1       2.575   7.655  18.544  0.00  0.00    +0.000 N 
ATOM      5  N   UNL     1       3.699   5.978  17.354  0.00  0.00    +0.000 NA
ATOM      6  C   UNL     1       4.118   4.662  17.505  0.00  0.00    +0.000 A 
ATOM      7  C   UNL     1       4.823   4.030  16.355  0.00  0.00    +0.000 C 
ATOM      8  H   UNL     1       2.675   8.210  17.702  0.00  0.00    +0.000 HD
ENDROOT
BRANCH   1  10
ATOM      9  C   UNL     1       3.359   1.585  18.604  0.00  0.00    +0.000 C 
ATOM     10  C   UNL     1       4.107   2.751  19.217  0.00  0.00    +0.000 C 
ATOM     11  O   UNL     1       4.939   2.530  20.100  0.00  0.00    +0.000 OA
ENDBRANCH   1  10
BRANCH   4  12
ATOM     12  N   UNL     1       1.897   8.105  19.628  0.00  0.00    +0.000 NA
ATOM     13  C   UNL     1       1.277   9.251  19.602  0.00  0.00    +0.000 C 
ATOM     14  C   UNL     1       1.227  10.209  18.430  0.00  0.00    +0.000 C 
BRANCH  13  15
ATOM     15  C   UNL     1       0.541   9.684  20.835  0.00  0.00    +0.000 A 
ATOM     16  C   UNL     1       0.709   8.995  22.034  0.00  0.00    +0.000 A 
ATOM     17  C   UNL     1       0.001   9.426  23.152  0.00  0.00    +0.000 A 
ATOM     18  C   UNL     1      -0.847  10.522  23.040  0.00  0.00    +0.000 A 
ATOM     19  C   UNL     1      -0.949  11.150  21.808  0.00  0.00    +0.000 A 
ATOM     20  N   UNL     1      -0.277  10.759  20.704  0.00  0.00    +0.000 NA
ENDBRANCH  13  15
ENDBRANCH   4  12
TORSDOF 3
ENDMDL
MODEL 7
REMARK VINA RESULT:      -6.6      6.249      8.118
REMARK  Name = 
REMARK  6 active torsions:
REMARK  status: ('A' for Active; 'I' for Inactive)
REMARK    1  A    between atoms: C_1  and  C_2
REMARK    2  A    between atoms: C_2  and  C_4
REMARK    3  A    between atoms: N_7  and  N_8
REMARK    4  A    between atoms: C_9  and  C_10
REMARK    5  A    between atoms: C_9  and  C_11
REMARK    6  A    between atoms: C_18  and  C_19
REMARK                            x       y       z     vdW  Elec       q    Type
REMARK                         _______ _______ _______ _____ _____    ______ ____
ROOT
ATOM      1  C   UNL     1       9.156  12.264  18.632  0.00  0.00    +0.000 A 
ATOM      2  S   UNL     1       8.514  10.925  17.780  0.00  0.00    +0.000 S 
ATOM      3  C   UNL     1       8.995   9.863  19.040  0.00  0.00    +0.000 A 
ATOM      4  N   UNL     1       8.762   8.526  19.011  0.00  0.00    +0.000 N 
ATOM      5  N   UNL     1       9.607  10.453  20.042  0.00  0.00    +0.000 NA
ATOM      6  C   UNL     1       9.706  11.822  19.827  0.00  0.00    +0.000 A 
ATOM      7  C   UNL     1      10.373  12.637  20.880  0.00  0.00    +0.000 C 
ATOM      8  H   UNL     1       9.072   8.039  19.844  0.00  0.00    +0.000 HD
ENDROOT
BRANCH   1  10
ATOM      9  C   UNL     1       7.730  14.276  17.978  0.00  0.00    +0.000 C 
ATOM     10  C   UNL     1       9.087  13.616  18.101  0.00  0.00    +0.000 C 
ATOM     11  O   UNL     1      10.090  14.243  17.753  0.00  0.00    +0.000 OA
ENDBRANCH   1  10
BRANCH   4  12
ATOM     12  N   UNL     1       8.087   7.897  18.018  0.00  0.00    +0.000 NA
ATOM     13  C   UNL     1       7.667   6.672  18.164  0.00  0.00    +0.000 C 
ATOM     14  C   UNL     1       7.863   5.805  19.391  0.00  0.00    +0.000 C 
BRANCH  13  15
ATOM     15  C   UNL     1       6.923   6.040  17.026  0.00  0.00    +0.000 A 
ATOM     16  C   UNL     1       7.261   4.763  16.585  0.00  0.00    +0.000 A 
ATOM     17  C   UNL     1       6.550   4.218  15.521  0.00  0.00    +0.000 A 
ATOM     18  C   UNL     1       5.531   4.958  14.933  0.00  0.00    +0.000 A 
ATOM     19  C   UNL     1       5.259   6.220  15.440  0.00  0.00    +0.000 A 
ATOM     20  N   UNL     1       5.928   6.779  16.470  0.00  0.00    +0.000 NA
ENDBRANCH  13  15
ENDBRANCH   4  12
TORSDOF 3
ENDMDL
MODEL 8
REMARK VINA RESULT:      -6.5      5.007      6.411
REMARK  Name = 
REMARK  6 active torsions:
REMARK  status: ('A' for Active; 'I' for Inactive)
REMARK    1  A    between atoms: C_1  and  C_2
REMARK    2  A    between atoms: C_2  and  C_4
REMARK    3  A    between atoms: N_7  and  N_8
REMARK    4  A    between atoms: C_9  and  C_10
REMARK    5  A    between atoms: C_9  and  C_11
REMARK    6  A    between atoms: C_18  and  C_19
REMARK                            x       y       z     vdW  Elec       q    Type
REMARK                         _______ _______ _______ _____ _____    ______ ____
ROOT
ATOM      1  C   UNL     1       3.698   4.197  18.796  0.00  0.00    +0.000 A 
ATOM      2  S   UNL     1       2.911   5.379  19.753  0.00  0.00    +0.000 S 
ATOM      3  C   UNL     1       3.065   6.535  18.493  0.00  0.00    +0.000 A 
ATOM      4  N   UNL     1       2.598   7.805  18.593  0.00  0.00    +0.000 N 
ATOM      5  N   UNL     1       3.672   6.087  17.417  0.00  0.00    +0.000 NA
ATOM      6  C   UNL     1       4.038   4.755  17.572  0.00  0.00    +0.000 A 
ATOM      7  C   UNL     1       4.734   4.097  16.432  0.00  0.00    +0.000 C 
ATOM      8  H   UNL     1       2.732   8.357  17.753  0.00  0.00    +0.000 HD
ENDROOT
BRANCH   1  10
ATOM      9  C   UNL     1       2.924   1.769  18.925  0.00  0.00    +0.000 C 
ATOM     10  C   UNL     1       3.928   2.845  19.282  0.00  0.00    +0.000 C 
ATOM     11  O   UNL     1       4.909   2.545  19.967  0.00  0.00    +0.000 OA
ENDBRANCH   1  10
BRANCH   4  12
ATOM     12  N   UNL     1       1.922   8.281  19.667  0.00  0.00    +0.000 NA
ATOM     13  C   UNL     1       1.062   9.252  19.542  0.00  0.00    +0.000 C 
ATOM     14  C   UNL     1       0.710   9.967  18.254  0.00  0.00    +0.000 C 
BRANCH  13  15
ATOM     15  C   UNL     1       0.347   9.725  20.772  0.00  0.00    +0.000 A 
ATOM     16  C   UNL     1      -0.079  11.047  20.875  0.00  0.00    +0.000 A 
ATOM     17  C   UNL     1      -0.731  11.446  22.038  0.00  0.00    +0.000 A 
ATOM     18  C   UNL     1      -0.937  10.519  23.054  0.00  0.00    +0.000 A 
ATOM     19  C   UNL     1      -0.484   9.224  22.864  0.00  0.00    +0.000 A 
ATOM     20  N   UNL     1       0.152   8.803  21.750  0.00  0.00    +0.000 NA
ENDBRANCH  13  15
ENDBRANCH   4  12
TORSDOF 3
ENDMDL
MODEL 9
REMARK VINA RESULT:      -6.5      0.997      1.421
REMARK  Name = 
REMARK  6 active torsions:
REMARK  status: ('A' for Active; 'I' for Inactive)
REMARK    1  A    between atoms: C_1  and  C_2
REMARK    2  A    between atoms: C_2  and  C_4
REMARK    3  A    between atoms: N_7  and  N_8
REMARK    4  A    between atoms: C_9  and  C_10
REMARK    5  A    between atoms: C_9  and  C_11
REMARK    6  A    between atoms: C_18  and  C_19
REMARK                            x       y       z     vdW  Elec       q    Type
REMARK                         _______ _______ _______ _____ _____    ______ ____
ROOT
ATOM      1  C   UNL     1       6.189   3.991  13.343  0.00  0.00    +0.000 A 
ATOM      2  S   UNL     1       5.187   3.884  14.726  0.00  0.00    +0.000 S 
ATOM      3  C   UNL     1       6.095   5.113  15.509  0.00  0.00    +0.000 A 
ATOM      4  N   UNL     1       5.806   5.568  16.754  0.00  0.00    +0.000 N 
ATOM      5  N   UNL     1       7.096   5.582  14.799  0.00  0.00    +0.000 NA
ATOM      6  C   UNL     1       7.164   4.955  13.560  0.00  0.00    +0.000 A 
ATOM      7  C   UNL     1       8.246   5.383  12.632  0.00  0.00    +0.000 C 
ATOM      8  H   UNL     1       6.410   6.320  17.065  0.00  0.00    +0.000 HD
ENDROOT
BRANCH   1  10
ATOM      9  C   UNL     1       4.596   3.141  11.540  0.00  0.00    +0.000 C 
ATOM     10  C   UNL     1       5.972   3.157  12.171  0.00  0.00    +0.000 C 
ATOM     11  O   UNL     1       6.866   2.469  11.673  0.00  0.00    +0.000 OA
ENDBRANCH   1  10
BRANCH   4  12
ATOM     12  N   UNL     1       4.750   5.142  17.490  0.00  0.00    +0.000 NA
ATOM     13  C   UNL     1       4.858   4.958  18.775  0.00  0.00    +0.000 C 
ATOM     14  C   UNL     1       6.110   5.170  19.601  0.00  0.00    +0.000 C 
BRANCH  13  15
ATOM     15  C   UNL     1       3.648   4.491  19.526  0.00  0.00    +0.000 A 
ATOM     16  C   UNL     1       3.461   3.136  19.789  0.00  0.00    +0.000 A 
ATOM     17  C   UNL     1       2.319   2.745  20.481  0.00  0.00    +0.000 A 
ATOM     18  C   UNL     1       1.406   3.711  20.888  0.00  0.00    +0.000 A 
ATOM     19  C   UNL     1       1.675   5.037  20.588  0.00  0.00    +0.000 A 
ATOM     20  N   UNL     1       2.772   5.452  19.918  0.00  0.00    +0.000 NA
ENDBRANCH  13  15
ENDBRANCH   4  12
TORSDOF 3
ENDMDL
