MODEL 1
REMARK VINA RESULT:      -9.5      0.000      0.000
REMARK  Name = 
REMARK  5 active torsions:
REMARK  status: ('A' for Active; 'I' for Inactive)
REMARK    1  A    between atoms: C_1  and  C_2
REMARK    2  A    between atoms: C_2  and  C_3
REMARK    3  A    between atoms: C_3  and  O_4
REMARK    4  A    between atoms: C_26  and  C_27
REMARK    5  A    between atoms: N_31  and  C_32
REMARK                            x       y       z     vdW  Elec       q    Type
REMARK                         _______ _______ _______ _____ _____    ______ ____
ROOT
ATOM      1  C   UNL     1       0.087  11.856  18.890  0.00  0.00    +0.000 C 
ATOM      2  C   UNL     1       0.307  12.594  20.244  0.00  0.00    +0.000 C 
ATOM      3  O   UNL     1       0.637  13.773  20.333  0.00  0.00    +0.000 OA
ATOM      4  O   UNL     1      -0.140  11.904  21.323  0.00  0.00    +0.000 OA
ATOM      5  C   UNL     1       0.430  10.611  21.501  0.00  0.00    +0.000 C 
ATOM      6  C   UNL     1       0.793   9.899  20.242  0.00  0.00    +0.000 A 
ATOM      7  C   UNL     1       0.755  10.417  18.996  0.00  0.00    +0.000 A 
ATOM      8  C   UNL     1       1.668   9.678  17.963  0.00  0.00    +0.000 A 
ATOM      9  C   UNL     1       2.279   8.479  18.251  0.00  0.00    +0.000 A 
ATOM     10  N   UNL     1       2.008   7.942  19.504  0.00  0.00    +0.000 N 
ATOM     11  C   UNL     1       1.313   8.540  20.510  0.00  0.00    +0.000 A 
ATOM     12  O   UNL     1       1.106   7.990  21.590  0.00  0.00    +0.000 OA
ATOM     13  C   UNL     1       2.457   6.600  19.700  0.00  0.00    +0.000 C 
ATOM     14  C   UNL     1       3.153   6.252  18.431  0.00  0.00    +0.000 A 
ATOM     15  C   UNL     1       3.206   7.383  17.615  0.00  0.00    +0.000 A 
ATOM     16  N   UNL     1       4.049   7.422  16.567  0.00  0.00    +0.000 NA
ATOM     17  C   UNL     1       4.786   6.270  16.275  0.00  0.00    +0.000 A 
ATOM     18  C   UNL     1       5.793   6.247  15.281  0.00  0.00    +0.000 A 
ATOM     19  C   UNL     1       6.544   5.107  14.913  0.00  0.00    +0.000 A 
ATOM     20  C   UNL     1       6.264   3.888  15.510  0.00  0.00    +0.000 A 
ATOM     21  C   UNL     1       5.296   3.864  16.506  0.00  0.00    +0.000 A 
ATOM     22  C   UNL     1       4.609   5.036  16.966  0.00  0.00    +0.000 A 
ATOM     23  C   UNL     1       3.761   5.027  18.101  0.00  0.00    +0.000 A 
ENDROOT
BRANCH  23  24
ATOM     24  C   UNL     1       3.572   3.781  18.923  0.00  0.00    +0.000 A 
ATOM     25  C   UNL     1       4.496   3.071  19.694  0.00  0.00    +0.000 A 
ATOM     26  C   UNL     1       3.888   1.851  20.029  0.00  0.00    +0.000 A 
ATOM     27  N   UNL     1       2.629   1.802  19.613  0.00  0.00    +0.000 NA
ATOM     28  N   UNL     1       2.449   2.968  18.960  0.00  0.00    +0.000 N 
ATOM     29  C   UNL     1       1.135   3.181  18.404  0.00  0.00    +0.000 C 
ENDBRANCH  23  24
BRANCH   1  31
ATOM     30  C   UNL     1      -2.482  11.084  18.218  0.00  0.00    +0.000 C 
ATOM     31  C   UNL     1      -1.462  12.173  18.611  0.00  0.00    +0.000 C 
ENDBRANCH   1  31
BRANCH   1  32
ATOM     32  O   UNL     1       0.782  12.567  17.851  0.00  0.00    +0.000 OA
ATOM     33  H   UNL     1       1.138  13.379  18.267  0.00  0.00    +0.000 HD
ENDBRANCH   1  32
TORSDOF 3
ENDMDL
MODEL 2
REMARK VINA RESULT:      -9.4      0.665      1.221
REMARK  Name = 
REMARK  5 active torsions:
REMARK  status: ('A' for Active; 'I' for Inactive)
REMARK    1  A    between atoms: C_1  and  C_2
REMARK    2  A    between atoms: C_2  and  C_3
REMARK    3  A    between atoms: C_3  and  O_4
REMARK    4  A    between atoms: C_26  and  C_27
REMARK    5  A    between atoms: N_31  and  C_32
REMARK                            x       y       z     vdW  Elec       q    Type
REMARK                         _______ _______ _______ _____ _____    ______ ____
ROOT
ATOM      1  C   UNL     1       0.940  12.308  19.177  0.00  0.00    +0.000 C 
ATOM      2  C   UNL     1       1.039  12.792  20.655  0.00  0.00    +0.000 C 
ATOM      3  O   UNL     1       1.577  13.842  20.994  0.00  0.00    +0.000 OA
ATOM      4  O   UNL     1       0.263  12.087  21.515  0.00  0.00    +0.000 OA
ATOM      5  C   UNL     1       0.515  10.686  21.559  0.00  0.00    +0.000 C 
ATOM      6  C   UNL     1       0.963  10.081  20.271  0.00  0.00    +0.000 A 
ATOM      7  C   UNL     1       1.271  10.753  19.142  0.00  0.00    +0.000 A 
ATOM      8  C   UNL     1       2.199   9.967  18.157  0.00  0.00    +0.000 A 
ATOM      9  C   UNL     1       2.488   8.633  18.331  0.00  0.00    +0.000 A 
ATOM     10  N   UNL     1       1.878   8.013  19.415  0.00  0.00    +0.000 N 
ATOM     11  C   UNL     1       1.137   8.617  20.384  0.00  0.00    +0.000 A 
ATOM     12  O   UNL     1       0.619   7.991  21.308  0.00  0.00    +0.000 OA
ATOM     13  C   UNL     1       2.001   6.589  19.449  0.00  0.00    +0.000 C 
ATOM     14  C   UNL     1       2.845   6.261  18.266  0.00  0.00    +0.000 A 
ATOM     15  C   UNL     1       3.281   7.448  17.674  0.00  0.00    +0.000 A 
ATOM     16  N   UNL     1       4.300   7.430  16.797  0.00  0.00    +0.000 NA
ATOM     17  C   UNL     1       4.831   6.188  16.434  0.00  0.00    +0.000 A 
ATOM     18  C   UNL     1       5.987   6.066  15.625  0.00  0.00    +0.000 A 
ATOM     19  C   UNL     1       6.549   4.843  15.192  0.00  0.00    +0.000 A 
ATOM     20  C   UNL     1       5.919   3.653  15.521  0.00  0.00    +0.000 A 
ATOM     21  C   UNL     1       4.792   3.721  16.331  0.00  0.00    +0.000 A 
ATOM     22  C   UNL     1       4.280   4.948  16.868  0.00  0.00    +0.000 A 
ATOM     23  C   UNL     1       3.245   4.985  17.835  0.00  0.00    +0.000 A 
ENDROOT
BRANCH  23  24
ATOM     24  C   UNL     1       2.654   3.718  18.392  0.00  0.00    +0.000 A 
ATOM     25  C   UNL     1       1.385   3.164  18.203  0.00  0.00    +0.000 A 
ATOM     26  C   UNL     1       1.249   2.135  19.147  0.00  0.00    +0.000 A 
ATOM     27  N   UNL     1       2.371   1.945  19.828  0.00  0.00    +0.000 NA
ATOM     28  N   UNL     1       3.209   2.893  19.359  0.00  0.00    +0.000 N 
ATOM     29  C   UNL     1       4.531   2.905  19.936  0.00  0.00    +0.000 C 
ENDBRANCH  23  24
BRANCH   1  31
ATOM     30  C   UNL     1      -1.663  12.201  18.252  0.00  0.00    +0.000 C 
ATOM     31  C   UNL     1      -0.430  13.005  18.713  0.00  0.00    +0.000 C 
ENDBRANCH   1  31
BRANCH   1  32
ATOM     32  O   UNL     1       1.952  12.971  18.399  0.00  0.00    +0.000 OA
ATOM     33  H   UNL     1       1.479  13.447  17.684  0.00  0.00    +0.000 HD
ENDBRANCH   1  32
TORSDOF 3
ENDMDL
MODEL 3
REMARK VINA RESULT:      -8.8      1.036      1.138
REMARK  Name = 
REMARK  5 active torsions:
REMARK  status: ('A' for Active; 'I' for Inactive)
REMARK    1  A    between atoms: C_1  and  C_2
REMARK    2  A    between atoms: C_2  and  C_3
REMARK    3  A    between atoms: C_3  and  O_4
REMARK    4  A    between atoms: C_26  and  C_27
REMARK    5  A    between atoms: N_31  and  C_32
REMARK                            x       y       z     vdW  Elec       q    Type
REMARK                         _______ _______ _______ _____ _____    ______ ____
ROOT
ATOM      1  C   UNL     1       0.254  12.522  18.915  0.00  0.00    +0.000 C 
ATOM      2  C   UNL     1       0.512  13.354  20.207  0.00  0.00    +0.000 C 
ATOM      3  O   UNL     1       1.007  14.478  20.207  0.00  0.00    +0.000 OA
ATOM      4  O   UNL     1      -0.086  12.847  21.313  0.00  0.00    +0.000 OA
ATOM      5  C   UNL     1       0.277  11.511  21.647  0.00  0.00    +0.000 C 
ATOM      6  C   UNL     1       0.595  10.631  20.485  0.00  0.00    +0.000 A 
ATOM      7  C   UNL     1       0.697  11.021  19.197  0.00  0.00    +0.000 A 
ATOM      8  C   UNL     1       1.543  10.059  18.298  0.00  0.00    +0.000 A 
ATOM      9  C   UNL     1       1.955   8.821  18.735  0.00  0.00    +0.000 A 
ATOM     10  N   UNL     1       1.544   8.457  20.013  0.00  0.00    +0.000 N 
ATOM     11  C   UNL     1       0.895   9.246  20.911  0.00  0.00    +0.000 A 
ATOM     12  O   UNL     1       0.555   8.843  22.022  0.00  0.00    +0.000 OA
ATOM     13  C   UNL     1       1.780   7.091  20.360  0.00  0.00    +0.000 C 
ATOM     14  C   UNL     1       2.481   6.522  19.176  0.00  0.00    +0.000 A 
ATOM     15  C   UNL     1       2.742   7.546  18.265  0.00  0.00    +0.000 A 
ATOM     16  N   UNL     1       3.633   7.360  17.275  0.00  0.00    +0.000 NA
ATOM     17  C   UNL     1       4.206   6.091  17.139  0.00  0.00    +0.000 A 
ATOM     18  C   UNL     1       5.248   5.826  16.219  0.00  0.00    +0.000 A 
ATOM     19  C   UNL     1       5.841   4.559  16.007  0.00  0.00    +0.000 A 
ATOM     20  C   UNL     1       5.354   3.459  16.695  0.00  0.00    +0.000 A 
ATOM     21  C   UNL     1       4.343   3.673  17.624  0.00  0.00    +0.000 A 
ATOM     22  C   UNL     1       3.815   4.971  17.928  0.00  0.00    +0.000 A 
ATOM     23  C   UNL     1       2.917   5.197  19.002  0.00  0.00    +0.000 A 
ENDROOT
BRANCH  23  24
ATOM     24  C   UNL     1       2.506   4.079  19.921  0.00  0.00    +0.000 A 
ATOM     25  C   UNL     1       2.983   3.746  21.192  0.00  0.00    +0.000 A 
ATOM     26  C   UNL     1       2.467   2.476  21.495  0.00  0.00    +0.000 A 
ATOM     27  N   UNL     1       1.630   2.052  20.558  0.00  0.00    +0.000 NA
ATOM     28  N   UNL     1       1.654   3.026  19.625  0.00  0.00    +0.000 N 
ATOM     29  C   UNL     1       0.806   2.818  18.477  0.00  0.00    +0.000 C 
ENDBRANCH  23  24
BRANCH   1  31
ATOM     30  C   UNL     1      -2.484  12.177  18.738  0.00  0.00    +0.000 C 
ATOM     31  C   UNL     1      -1.215  13.025  18.508  0.00  0.00    +0.000 C 
ENDBRANCH   1  31
BRANCH   1  32
ATOM     32  O   UNL     1       1.099  13.018  17.862  0.00  0.00    +0.000 OA
ATOM     33  H   UNL     1       0.700  13.864  17.568  0.00  0.00    +0.000 HD
ENDBRANCH   1  32
TORSDOF 3
ENDMDL
MODEL 4
REMARK VINA RESULT:      -8.8      1.800      4.170
REMARK  Name = 
REMARK  5 active torsions:
REMARK  status: ('A' for Active; 'I' for Inactive)
REMARK    1  A    between atoms: C_1  and  C_2
REMARK    2  A    between atoms: C_2  and  C_3
REMARK    3  A    between atoms: C_3  and  O_4
REMARK    4  A    between atoms: C_26  and  C_27
REMARK    5  A    between atoms: N_31  and  C_32
REMARK                            x       y       z     vdW  Elec       q    Type
REMARK                         _______ _______ _______ _____ _____    ______ ____
ROOT
ATOM      1  C   UNL     1      -0.642  11.536  21.231  0.00  0.00    +0.000 C 
ATOM      2  C   UNL     1      -1.614  12.132  20.169  0.00  0.00    +0.000 C 
ATOM      3  O   UNL     1      -2.816  12.297  20.361  0.00  0.00    +0.000 OA
ATOM      4  O   UNL     1      -0.986  12.691  19.105  0.00  0.00    +0.000 OA
ATOM      5  C   UNL     1      -0.122  11.823  18.379  0.00  0.00    +0.000 C 
ATOM      6  C   UNL     1       0.557  10.775  19.196  0.00  0.00    +0.000 A 
ATOM      7  C   UNL     1       0.321  10.505  20.497  0.00  0.00    +0.000 A 
ATOM      8  C   UNL     1       0.745   9.066  20.943  0.00  0.00    +0.000 A 
ATOM      9  C   UNL     1       1.491   8.239  20.135  0.00  0.00    +0.000 A 
ATOM     10  N   UNL     1       1.877   8.769  18.909  0.00  0.00    +0.000 N 
ATOM     11  C   UNL     1       1.486   9.961  18.382  0.00  0.00    +0.000 A 
ATOM     12  O   UNL     1       1.885  10.365  17.291  0.00  0.00    +0.000 OA
ATOM     13  C   UNL     1       2.835   7.993  18.187  0.00  0.00    +0.000 C 
ATOM     14  C   UNL     1       3.047   6.785  19.031  0.00  0.00    +0.000 A 
ATOM     15  C   UNL     1       2.158   6.818  20.106  0.00  0.00    +0.000 A 
ATOM     16  N   UNL     1       1.928   5.706  20.828  0.00  0.00    +0.000 NA
ATOM     17  C   UNL     1       2.673   4.562  20.524  0.00  0.00    +0.000 A 
ATOM     18  C   UNL     1       2.416   3.309  21.131  0.00  0.00    +0.000 A 
ATOM     19  C   UNL     1       3.157   2.127  20.895  0.00  0.00    +0.000 A 
ATOM     20  C   UNL     1       4.258   2.172  20.056  0.00  0.00    +0.000 A 
ATOM     21  C   UNL     1       4.539   3.376  19.422  0.00  0.00    +0.000 A 
ATOM     22  C   UNL     1       3.727   4.550  19.566  0.00  0.00    +0.000 A 
ATOM     23  C   UNL     1       3.918   5.711  18.775  0.00  0.00    +0.000 A 
ENDROOT
BRANCH  23  24
ATOM     24  C   UNL     1       4.967   5.756  17.698  0.00  0.00    +0.000 A 
ATOM     25  C   UNL     1       4.828   5.660  16.310  0.00  0.00    +0.000 A 
ATOM     26  C   UNL     1       6.118   5.485  15.787  0.00  0.00    +0.000 A 
ATOM     27  N   UNL     1       7.045   5.572  16.732  0.00  0.00    +0.000 NA
ATOM     28  N   UNL     1       6.343   5.744  17.871  0.00  0.00    +0.000 N 
ATOM     29  C   UNL     1       7.124   5.879  19.076  0.00  0.00    +0.000 C 
ENDBRANCH  23  24
BRANCH   1  31
ATOM     30  C   UNL     1      -1.078  13.521  23.106  0.00  0.00    +0.000 C 
ATOM     31  C   UNL     1      -0.198  12.859  22.024  0.00  0.00    +0.000 C 
ENDBRANCH   1  31
BRANCH   1  32
ATOM     32  O   UNL     1      -1.403  10.788  22.195  0.00  0.00    +0.000 OA
ATOM     33  H   UNL     1      -2.342  11.019  22.041  0.00  0.00    +0.000 HD
ENDBRANCH   1  32
TORSDOF 3
ENDMDL
MODEL 5
REMARK VINA RESULT:      -8.3      1.915      4.122
REMARK  Name = 
REMARK  5 active torsions:
REMARK  status: ('A' for Active; 'I' for Inactive)
REMARK    1  A    between atoms: C_1  and  C_2
REMARK    2  A    between atoms: C_2  and  C_3
REMARK    3  A    between atoms: C_3  and  O_4
REMARK    4  A    between atoms: C_26  and  C_27
REMARK    5  A    between atoms: N_31  and  C_32
REMARK                            x       y       z     vdW  Elec       q    Type
REMARK                         _______ _______ _______ _____ _____    ______ ____
ROOT
ATOM      1  C   UNL     1      -0.710  11.810  21.298  0.00  0.00    +0.000 C 
ATOM      2  C   UNL     1      -1.678  12.390  20.223  0.00  0.00    +0.000 C 
ATOM      3  O   UNL     1      -2.868  12.613  20.427  0.00  0.00    +0.000 OA
ATOM      4  O   UNL     1      -1.049  12.868  19.121  0.00  0.00    +0.000 OA
ATOM      5  C   UNL     1      -0.234  11.929  18.426  0.00  0.00    +0.000 C 
ATOM      6  C   UNL     1       0.418  10.898  19.285  0.00  0.00    +0.000 A 
ATOM      7  C   UNL     1       0.197  10.705  20.602  0.00  0.00    +0.000 A 
ATOM      8  C   UNL     1       0.572   9.275  21.115  0.00  0.00    +0.000 A 
ATOM      9  C   UNL     1       1.268   8.377  20.338  0.00  0.00    +0.000 A 
ATOM     10  N   UNL     1       1.652   8.828  19.080  0.00  0.00    +0.000 N 
ATOM     11  C   UNL     1       1.298  10.006  18.498  0.00  0.00    +0.000 A 
ATOM     12  O   UNL     1       1.692  10.337  17.381  0.00  0.00    +0.000 OA
ATOM     13  C   UNL     1       2.564   7.978  18.383  0.00  0.00    +0.000 C 
ATOM     14  C   UNL     1       2.744   6.806  19.284  0.00  0.00    +0.000 A 
ATOM     15  C   UNL     1       1.878   6.931  20.372  0.00  0.00    +0.000 A 
ATOM     16  N   UNL     1       1.618   5.868  21.154  0.00  0.00    +0.000 NA
ATOM     17  C   UNL     1       2.311   4.680  20.898  0.00  0.00    +0.000 A 
ATOM     18  C   UNL     1       2.016   3.471  21.573  0.00  0.00    +0.000 A 
ATOM     19  C   UNL     1       2.705   2.250  21.387  0.00  0.00    +0.000 A 
ATOM     20  C   UNL     1       3.791   2.207  20.527  0.00  0.00    +0.000 A 
ATOM     21  C   UNL     1       4.106   3.365  19.827  0.00  0.00    +0.000 A 
ATOM     22  C   UNL     1       3.345   4.576  19.923  0.00  0.00    +0.000 A 
ATOM     23  C   UNL     1       3.567   5.687  19.070  0.00  0.00    +0.000 A 
ENDROOT
BRANCH  23  24
ATOM     24  C   UNL     1       4.596   5.633  17.974  0.00  0.00    +0.000 A 
ATOM     25  C   UNL     1       5.746   6.405  17.788  0.00  0.00    +0.000 A 
ATOM     26  C   UNL     1       6.201   6.143  16.487  0.00  0.00    +0.000 A 
ATOM     27  N   UNL     1       5.484   5.195  15.899  0.00  0.00    +0.000 NA
ATOM     28  N   UNL     1       4.530   4.891  16.804  0.00  0.00    +0.000 N 
ATOM     29  C   UNL     1       3.600   3.859  16.415  0.00  0.00    +0.000 C 
ENDBRANCH  23  24
BRANCH   1  31
ATOM     30  C   UNL     1      -0.995  13.862  23.129  0.00  0.00    +0.000 C 
ATOM     31  C   UNL     1      -0.199  13.154  22.014  0.00  0.00    +0.000 C 
ENDBRANCH   1  31
BRANCH   1  32
ATOM     32  O   UNL     1      -1.481  11.144  22.312  0.00  0.00    +0.000 OA
ATOM     33  H   UNL     1      -1.131  11.458  23.172  0.00  0.00    +0.000 HD
ENDBRANCH   1  32
TORSDOF 3
ENDMDL
MODEL 6
REMARK VINA RESULT:      -8.1      1.222      1.729
REMARK  Name = 
REMARK  5 active torsions:
REMARK  status: ('A' for Active; 'I' for Inactive)
REMARK    1  A    between atoms: C_1  and  C_2
REMARK    2  A    between atoms: C_2  and  C_3
REMARK    3  A    between atoms: C_3  and  O_4
REMARK    4  A    between atoms: C_26  and  C_27
REMARK    5  A    between atoms: N_31  and  C_32
REMARK                            x       y       z     vdW  Elec       q    Type
REMARK                         _______ _______ _______ _____ _____    ______ ____
ROOT
ATOM      1  C   UNL     1      -0.413  12.531  20.214  0.00  0.00    +0.000 C 
ATOM      2  C   UNL     1      -0.198  13.084  21.655  0.00  0.00    +0.000 C 
ATOM      3  O   UNL     1       0.234  14.208  21.896  0.00  0.00    +0.000 OA
ATOM      4  O   UNL     1      -0.762  12.321  22.624  0.00  0.00    +0.000 OA
ATOM      5  C   UNL     1      -0.322  10.968  22.671  0.00  0.00    +0.000 C 
ATOM      6  C   UNL     1       0.040  10.372  21.351  0.00  0.00    +0.000 A 
ATOM      7  C   UNL     1       0.115  11.031  20.176  0.00  0.00    +0.000 A 
ATOM      8  C   UNL     1       1.011  10.330  19.101  0.00  0.00    +0.000 A 
ATOM      9  C   UNL     1       1.494   9.053  19.270  0.00  0.00    +0.000 A 
ATOM     10  N   UNL     1       1.109   8.404  20.438  0.00  0.00    +0.000 N 
ATOM     11  C   UNL     1       0.420   8.948  21.478  0.00  0.00    +0.000 A 
ATOM     12  O   UNL     1       0.107   8.300  22.476  0.00  0.00    +0.000 OA
ATOM     13  C   UNL     1       1.423   7.012  20.491  0.00  0.00    +0.000 C 
ATOM     14  C   UNL     1       2.151   6.746  19.220  0.00  0.00    +0.000 A 
ATOM     15  C   UNL     1       2.350   7.953  18.547  0.00  0.00    +0.000 A 
ATOM     16  N   UNL     1       3.247   8.030  17.547  0.00  0.00    +0.000 NA
ATOM     17  C   UNL     1       3.889   6.853  17.151  0.00  0.00    +0.000 A 
ATOM     18  C   UNL     1       4.942   6.847  16.204  0.00  0.00    +0.000 A 
ATOM     19  C   UNL     1       5.604   5.689  15.735  0.00  0.00    +0.000 A 
ATOM     20  C   UNL     1       5.183   4.443  16.170  0.00  0.00    +0.000 A 
ATOM     21  C   UNL     1       4.165   4.399  17.116  0.00  0.00    +0.000 A 
ATOM     22  C   UNL     1       3.565   5.571  17.682  0.00  0.00    +0.000 A 
ATOM     23  C   UNL     1       2.661   5.514  18.773  0.00  0.00    +0.000 A 
ENDROOT
BRANCH  23  24
ATOM     24  C   UNL     1       2.317   4.206  19.431  0.00  0.00    +0.000 A 
ATOM     25  C   UNL     1       1.070   3.610  19.639  0.00  0.00    +0.000 A 
ATOM     26  C   UNL     1       1.276   2.544  20.528  0.00  0.00    +0.000 A 
ATOM     27  N   UNL     1       2.563   2.375  20.798  0.00  0.00    +0.000 NA
ATOM     28  N   UNL     1       3.178   3.371  20.128  0.00  0.00    +0.000 N 
ATOM     29  C   UNL     1       4.614   3.414  20.245  0.00  0.00    +0.000 C 
ENDBRANCH  23  24
BRANCH   1  31
ATOM     30  C   UNL     1      -2.942  12.158  19.161  0.00  0.00    +0.000 C 
ATOM     31  C   UNL     1      -1.910  13.025  19.911  0.00  0.00    +0.000 C 
ENDBRANCH   1  31
BRANCH   1  32
ATOM     32  O   UNL     1       0.399  13.285  19.297  0.00  0.00    +0.000 OA
ATOM     33  H   UNL     1       0.002  14.180  19.254  0.00  0.00    +0.000 HD
ENDBRANCH   1  32
TORSDOF 3
ENDMDL
MODEL 7
REMARK VINA RESULT:      -7.3      3.070      8.872
REMARK  Name = 
REMARK  5 active torsions:
REMARK  status: ('A' for Active; 'I' for Inactive)
REMARK    1  A    between atoms: C_1  and  C_2
REMARK    2  A    between atoms: C_2  and  C_3
REMARK    3  A    between atoms: C_3  and  O_4
REMARK    4  A    between atoms: C_26  and  C_27
REMARK    5  A    between atoms: N_31  and  C_32
REMARK                            x       y       z     vdW  Elec       q    Type
REMARK                         _______ _______ _______ _____ _____    ______ ____
ROOT
ATOM      1  C   UNL     1       2.740   3.345  19.834  0.00  0.00    +0.000 C 
ATOM      2  C   UNL     1       4.281   3.145  19.715  0.00  0.00    +0.000 C 
ATOM      3  O   UNL     1       4.932   2.404  20.448  0.00  0.00    +0.000 OA
ATOM      4  O   UNL     1       4.814   3.658  18.579  0.00  0.00    +0.000 OA
ATOM      5  C   UNL     1       4.599   5.051  18.376  0.00  0.00    +0.000 C 
ATOM      6  C   UNL     1       3.312   5.579  18.916  0.00  0.00    +0.000 A 
ATOM      7  C   UNL     1       2.430   4.897  19.676  0.00  0.00    +0.000 A 
ATOM      8  C   UNL     1       1.481   5.802  20.530  0.00  0.00    +0.000 A 
ATOM      9  C   UNL     1       1.411   7.164  20.350  0.00  0.00    +0.000 A 
ATOM     10  N   UNL     1       2.207   7.688  19.338  0.00  0.00    +0.000 N 
ATOM     11  C   UNL     1       3.134   7.014  18.605  0.00  0.00    +0.000 A 
ATOM     12  O   UNL     1       3.792   7.550  17.715  0.00  0.00    +0.000 OA
ATOM     13  C   UNL     1       1.952   9.056  19.012  0.00  0.00    +0.000 C 
ATOM     14  C   UNL     1       0.898   9.478  19.975  0.00  0.00    +0.000 A 
ATOM     15  C   UNL     1       0.666   8.441  20.880  0.00  0.00    +0.000 A 
ATOM     16  N   UNL     1       0.003   8.680  22.026  0.00  0.00    +0.000 NA
ATOM     17  C   UNL     1      -0.519   9.962  22.226  0.00  0.00    +0.000 A 
ATOM     18  C   UNL     1      -1.114  10.354  23.449  0.00  0.00    +0.000 A 
ATOM     19  C   UNL     1      -1.693  11.619  23.701  0.00  0.00    +0.000 A 
ATOM     20  C   UNL     1      -1.749  12.555  22.680  0.00  0.00    +0.000 A 
ATOM     21  C   UNL     1      -1.160  12.223  21.466  0.00  0.00    +0.000 A 
ATOM     22  C   UNL     1      -0.471  10.986  21.238  0.00  0.00    +0.000 A 
ATOM     23  C   UNL     1       0.279  10.737  20.060  0.00  0.00    +0.000 A 
ENDROOT
BRANCH  23  24
ATOM     24  C   UNL     1       0.433  11.791  18.997  0.00  0.00    +0.000 A 
ATOM     25  C   UNL     1       1.516  12.629  18.719  0.00  0.00    +0.000 A 
ATOM     26  C   UNL     1       1.052  13.601  17.819  0.00  0.00    +0.000 A 
ATOM     27  N   UNL     1      -0.197  13.363  17.443  0.00  0.00    +0.000 NA
ATOM     28  N   UNL     1      -0.554  12.270  18.149  0.00  0.00    +0.000 N 
ATOM     29  C   UNL     1      -1.892  11.782  17.918  0.00  0.00    +0.000 C 
ENDBRANCH  23  24
BRANCH   1  31
ATOM     30  C   UNL     1       0.704   1.966  18.570  0.00  0.00    +0.000 C 
ATOM     31  C   UNL     1       2.200   2.161  18.894  0.00  0.00    +0.000 C 
ENDBRANCH   1  31
BRANCH   1  32
ATOM     32  O   UNL     1       2.319   2.964  21.156  0.00  0.00    +0.000 OA
ATOM     33  H   UNL     1       3.117   3.014  21.721  0.00  0.00    +0.000 HD
ENDBRANCH   1  32
TORSDOF 3
ENDMDL
MODEL 8
REMARK VINA RESULT:      -7.0      3.124      8.663
REMARK  Name = 
REMARK  5 active torsions:
REMARK  status: ('A' for Active; 'I' for Inactive)
REMARK    1  A    between atoms: C_1  and  C_2
REMARK    2  A    between atoms: C_2  and  C_3
REMARK    3  A    between atoms: C_3  and  O_4
REMARK    4  A    between atoms: C_26  and  C_27
REMARK    5  A    between atoms: N_31  and  C_32
REMARK                            x       y       z     vdW  Elec       q    Type
REMARK                         _______ _______ _______ _____ _____    ______ ____
ROOT
ATOM      1  C   UNL     1       4.920   4.029  18.392  0.00  0.00    +0.000 C 
ATOM      2  C   UNL     1       6.316   4.383  17.797  0.00  0.00    +0.000 C 
ATOM      3  O   UNL     1       7.378   3.976  18.261  0.00  0.00    +0.000 OA
ATOM      4  O   UNL     1       6.258   4.969  16.576  0.00  0.00    +0.000 OA
ATOM      5  C   UNL     1       5.505   6.176  16.512  0.00  0.00    +0.000 C 
ATOM      6  C   UNL     1       4.342   6.248  17.444  0.00  0.00    +0.000 A 
ATOM      7  C   UNL     1       4.039   5.352  18.407  0.00  0.00    +0.000 A 
ATOM      8  C   UNL     1       3.133   5.918  19.551  0.00  0.00    +0.000 A 
ATOM      9  C   UNL     1       2.526   7.150  19.463  0.00  0.00    +0.000 A 
ATOM     10  N   UNL     1       2.734   7.849  18.280  0.00  0.00    +0.000 N 
ATOM     11  C   UNL     1       3.574   7.500  17.268  0.00  0.00    +0.000 A 
ATOM     12  O   UNL     1       3.692   8.171  16.244  0.00  0.00    +0.000 OA
ATOM     13  C   UNL     1       1.918   9.010  18.110  0.00  0.00    +0.000 C 
ATOM     14  C   UNL     1       1.127   9.097  19.368  0.00  0.00    +0.000 A 
ATOM     15  C   UNL     1       1.569   8.112  20.253  0.00  0.00    +0.000 A 
ATOM     16  N   UNL     1       1.244   8.179  21.557  0.00  0.00    +0.000 NA
ATOM     17  C   UNL     1       0.382   9.202  21.965  0.00  0.00    +0.000 A 
ATOM     18  C   UNL     1       0.085   9.442  23.328  0.00  0.00    +0.000 A 
ATOM     19  C   UNL     1      -0.806  10.433  23.802  0.00  0.00    +0.000 A 
ATOM     20  C   UNL     1      -1.501  11.212  22.892  0.00  0.00    +0.000 A 
ATOM     21  C   UNL     1      -1.228  11.026  21.541  0.00  0.00    +0.000 A 
ATOM     22  C   UNL     1      -0.243  10.103  21.057  0.00  0.00    +0.000 A 
ATOM     23  C   UNL     1       0.153  10.055  19.696  0.00  0.00    +0.000 A 
ENDROOT
BRANCH  23  24
ATOM     24  C   UNL     1      -0.413  11.016  18.686  0.00  0.00    +0.000 A 
ATOM     25  C   UNL     1      -0.029  12.326  18.385  0.00  0.00    +0.000 A 
ATOM     26  C   UNL     1      -1.038  12.865  17.573  0.00  0.00    +0.000 A 
ATOM     27  N   UNL     1      -1.956  11.959  17.267  0.00  0.00    +0.000 NA
ATOM     28  N   UNL     1      -1.565  10.852  17.932  0.00  0.00    +0.000 N 
ATOM     29  C   UNL     1      -2.401   9.689  17.762  0.00  0.00    +0.000 C 
ENDBRANCH  23  24
BRANCH   1  31
ATOM     30  C   UNL     1       3.388   1.765  17.976  0.00  0.00    +0.000 C 
ATOM     31  C   UNL     1       4.586   2.666  17.612  0.00  0.00    +0.000 C 
ENDBRANCH   1  31
BRANCH   1  32
ATOM     32  O   UNL     1       5.085   3.617  19.761  0.00  0.00    +0.000 OA
ATOM     33  H   UNL     1       4.871   2.662  19.786  0.00  0.00    +0.000 HD
ENDBRANCH   1  32
TORSDOF 3
ENDMDL
MODEL 9
REMARK VINA RESULT:      -6.7      3.110      8.734
REMARK  Name = 
REMARK  5 active torsions:
REMARK  status: ('A' for Active; 'I' for Inactive)
REMARK    1  A    between atoms: C_1  and  C_2
REMARK    2  A    between atoms: C_2  and  C_3
REMARK    3  A    between atoms: C_3  and  O_4
REMARK    4  A    between atoms: C_26  and  C_27
REMARK    5  A    between atoms: N_31  and  C_32
REMARK                            x       y       z     vdW  Elec       q    Type
REMARK                         _______ _______ _______ _____ _____    ______ ____
ROOT
ATOM      1  C   UNL     1       4.879   4.121  18.435  0.00  0.00    +0.000 C 
ATOM      2  C   UNL     1       6.235   4.508  17.771  0.00  0.00    +0.000 C 
ATOM      3  O   UNL     1       7.330   4.152  18.200  0.00  0.00    +0.000 OA
ATOM      4  O   UNL     1       6.104   5.056  16.538  0.00  0.00    +0.000 OA
ATOM      5  C   UNL     1       5.305   6.233  16.474  0.00  0.00    +0.000 C 
ATOM      6  C   UNL     1       4.181   6.291  17.453  0.00  0.00    +0.000 A 
ATOM      7  C   UNL     1       3.951   5.413  18.451  0.00  0.00    +0.000 A 
ATOM      8  C   UNL     1       3.074   5.979  19.618  0.00  0.00    +0.000 A 
ATOM      9  C   UNL     1       2.419   7.185  19.522  0.00  0.00    +0.000 A 
ATOM     10  N   UNL     1       2.552   7.858  18.312  0.00  0.00    +0.000 N 
ATOM     11  C   UNL     1       3.361   7.509  17.275  0.00  0.00    +0.000 A 
ATOM     12  O   UNL     1       3.412   8.154  16.230  0.00  0.00    +0.000 OA
ATOM     13  C   UNL     1       1.688   8.984  18.146  0.00  0.00    +0.000 C 
ATOM     14  C   UNL     1       0.947   9.078  19.434  0.00  0.00    +0.000 A 
ATOM     15  C   UNL     1       1.461   8.135  20.326  0.00  0.00    +0.000 A 
ATOM     16  N   UNL     1       1.189   8.229  21.640  0.00  0.00    +0.000 NA
ATOM     17  C   UNL     1       0.308   9.232  22.057  0.00  0.00    +0.000 A 
ATOM     18  C   UNL     1       0.060   9.500  23.425  0.00  0.00    +0.000 A 
ATOM     19  C   UNL     1      -0.846  10.472  23.909  0.00  0.00    +0.000 A 
ATOM     20  C   UNL     1      -1.607  11.199  23.008  0.00  0.00    +0.000 A 
ATOM     21  C   UNL     1      -1.384  10.985  21.653  0.00  0.00    +0.000 A 
ATOM     22  C   UNL     1      -0.387  10.084  21.152  0.00  0.00    +0.000 A 
ATOM     23  C   UNL     1      -0.047  10.011  19.777  0.00  0.00    +0.000 A 
ENDROOT
BRANCH  23  24
ATOM     24  C   UNL     1      -0.689  10.922  18.767  0.00  0.00    +0.000 A 
ATOM     25  C   UNL     1      -1.694  10.655  17.834  0.00  0.00    +0.000 A 
ATOM     26  C   UNL     1      -1.737  11.753  16.961  0.00  0.00    +0.000 A 
ATOM     27  N   UNL     1      -0.912  12.717  17.348  0.00  0.00    +0.000 NA
ATOM     28  N   UNL     1      -0.296  12.211  18.436  0.00  0.00    +0.000 N 
ATOM     29  C   UNL     1       0.667  13.075  19.074  0.00  0.00    +0.000 C 
ENDBRANCH  23  24
BRANCH   1  31
ATOM     30  C   UNL     1       3.401   1.805  18.132  0.00  0.00    +0.000 C 
ATOM     31  C   UNL     1       4.562   2.726  17.706  0.00  0.00    +0.000 C 
ENDBRANCH   1  31
BRANCH   1  32
ATOM     32  O   UNL     1       5.116   3.756  19.805  0.00  0.00    +0.000 OA
ATOM     33  H   UNL     1       5.753   3.012  19.784  0.00  0.00    +0.000 HD
ENDBRANCH   1  32
TORSDOF 3
ENDMDL
