MODEL 1
REMARK VINA RESULT:      -9.7      0.000      0.000
REMARK  Name = 
REMARK  5 active torsions:
REMARK  status: ('A' for Active; 'I' for Inactive)
REMARK    1  A    between atoms: C_1  and  C_2
REMARK    2  A    between atoms: C_4  and  N_5
REMARK    3  A    between atoms: C_8  and  C_9
REMARK    4  A    between atoms: C_26  and  C_27
REMARK    5  A    between atoms: N_30  and  C_31
REMARK                            x       y       z     vdW  Elec       q    Type
REMARK                         _______ _______ _______ _____ _____    ______ ____
ROOT
ATOM      1  N   UNL     1       1.001   8.970  20.031  0.00  0.00    +0.000 N 
ATOM      2  C   UNL     1       1.556   9.422  18.741  0.00  0.00    +0.000 C 
ATOM      3  C   UNL     1       1.948   8.268  17.810  0.00  0.00    +0.000 C 
ATOM      4  C   UNL     1       1.968   6.932  18.526  0.00  0.00    +0.000 C 
ATOM      5  C   UNL     1       2.461   7.011  19.986  0.00  0.00    +0.000 C 
ATOM      6  C   UNL     1       1.841   8.087  20.828  0.00  0.00    +0.000 C 
ENDROOT
BRANCH   4   7
ATOM      7  C   UNL     1       2.611   5.735  17.772  0.00  0.00    +0.000 C 
ATOM      8  C   UNL     1       4.141   5.728  17.769  0.00  0.00    +0.000 A 
ATOM      9  C   UNL     1       5.026   6.455  16.998  0.00  0.00    +0.000 A 
ATOM     10  F   UNL     1       4.594   7.160  15.945  0.00  0.00    +0.000 F 
ATOM     11  C   UNL     1       6.377   6.461  17.336  0.00  0.00    +0.000 A 
ATOM     12  C   UNL     1       6.823   5.786  18.488  0.00  0.00    +0.000 A 
ATOM     13  C   UNL     1       5.940   5.000  19.244  0.00  0.00    +0.000 A 
ATOM     14  C   UNL     1       4.627   4.909  18.820  0.00  0.00    +0.000 A 
ATOM     15  C   UNL     1       3.498   4.199  19.342  0.00  0.00    +0.000 A 
ATOM     16  C   UNL     1       3.040   3.429  20.377  0.00  0.00    +0.000 A 
ATOM     17  N   UNL     1       1.647   3.407  20.364  0.00  0.00    +0.000 NA
ATOM     18  C   UNL     1       1.274   4.185  19.360  0.00  0.00    +0.000 A 
ATOM     19  N   UNL     1       2.360   4.562  18.640  0.00  0.00    +0.000 N 
ENDBRANCH   4   7
BRANCH   1  23
ATOM     20  C   UNL     1      -2.036  12.809  20.130  0.00  0.00    +0.000 C 
ATOM     21  C   UNL     1      -1.303  11.774  20.934  0.00  0.00    +0.000 A 
ATOM     22  C   UNL     1      -0.449  10.915  20.220  0.00  0.00    +0.000 A 
ATOM     23  C   UNL     1       0.234   9.860  20.798  0.00  0.00    +0.000 A 
ATOM     24  C   UNL     1       0.087   9.703  22.192  0.00  0.00    +0.000 A 
ATOM     25  C   UNL     1      -0.732  10.565  22.934  0.00  0.00    +0.000 A 
ATOM     26  C   UNL     1      -1.441  11.604  22.320  0.00  0.00    +0.000 A 
BRANCH  26  27
ATOM     27  C   UNL     1      -2.285  12.445  23.145  0.00  0.00    +0.000 A 
ATOM     28  C   UNL     1      -3.586  12.267  23.669  0.00  0.00    +0.000 A 
ATOM     29  N   UNL     1      -3.992  13.298  24.405  0.00  0.00    +0.000 NA
ATOM     30  N   UNL     1      -2.944  14.131  24.376  0.00  0.00    +0.000 N 
ATOM     31  C   UNL     1      -2.985  15.384  25.088  0.00  0.00    +0.000 C 
ATOM     32  C   UNL     1      -1.901  13.679  23.627  0.00  0.00    +0.000 A 
ENDBRANCH  26  27
ENDBRANCH   1  23
TORSDOF 3
ENDMDL
MODEL 2
REMARK VINA RESULT:      -8.9      1.094      1.567
REMARK  Name = 
REMARK  5 active torsions:
REMARK  status: ('A' for Active; 'I' for Inactive)
REMARK    1  A    between atoms: C_1  and  C_2
REMARK    2  A    between atoms: C_4  and  N_5
REMARK    3  A    between atoms: C_8  and  C_9
REMARK    4  A    between atoms: C_26  and  C_27
REMARK    5  A    between atoms: N_30  and  C_31
REMARK                            x       y       z     vdW  Elec       q    Type
REMARK                         _______ _______ _______ _____ _____    ______ ____
ROOT
ATOM      1  N   UNL     1       1.214   8.913  19.260  0.00  0.00    +0.000 N 
ATOM      2  C   UNL     1       2.059   9.321  18.122  0.00  0.00    +0.000 C 
ATOM      3  C   UNL     1       2.635   8.136  17.338  0.00  0.00    +0.000 C 
ATOM      4  C   UNL     1       2.466   6.821  18.075  0.00  0.00    +0.000 C 
ATOM      5  C   UNL     1       2.611   6.939  19.606  0.00  0.00    +0.000 C 
ATOM      6  C   UNL     1       1.832   8.046  20.253  0.00  0.00    +0.000 C 
ENDROOT
BRANCH   4   7
ATOM      7  C   UNL     1       3.245   5.596  17.522  0.00  0.00    +0.000 C 
ATOM      8  C   UNL     1       4.762   5.663  17.712  0.00  0.00    +0.000 A 
ATOM      9  C   UNL     1       5.713   6.363  16.994  0.00  0.00    +0.000 A 
ATOM     10  F   UNL     1       5.394   6.951  15.834  0.00  0.00    +0.000 F 
ATOM     11  C   UNL     1       7.007   6.463  17.497  0.00  0.00    +0.000 A 
ATOM     12  C   UNL     1       7.324   5.913  18.753  0.00  0.00    +0.000 A 
ATOM     13  C   UNL     1       6.381   5.155  19.462  0.00  0.00    +0.000 A 
ATOM     14  C   UNL     1       5.137   4.964  18.886  0.00  0.00    +0.000 A 
ATOM     15  C   UNL     1       3.978   4.247  19.326  0.00  0.00    +0.000 A 
ATOM     16  C   UNL     1       3.418   3.549  20.362  0.00  0.00    +0.000 A 
ATOM     17  N   UNL     1       2.041   3.459  20.176  0.00  0.00    +0.000 NA
ATOM     18  C   UNL     1       1.773   4.127  19.066  0.00  0.00    +0.000 A 
ATOM     19  N   UNL     1       2.928   4.492  18.456  0.00  0.00    +0.000 N 
ENDBRANCH   4   7
BRANCH   1  23
ATOM     20  C   UNL     1      -1.048  10.647  23.242  0.00  0.00    +0.000 C 
ATOM     21  C   UNL     1      -0.863  10.769  21.757  0.00  0.00    +0.000 A 
ATOM     22  C   UNL     1      -0.032   9.812  21.148  0.00  0.00    +0.000 A 
ATOM     23  C   UNL     1       0.305   9.834  19.806  0.00  0.00    +0.000 A 
ATOM     24  C   UNL     1      -0.281  10.851  19.026  0.00  0.00    +0.000 A 
ATOM     25  C   UNL     1      -1.140  11.799  19.600  0.00  0.00    +0.000 A 
ATOM     26  C   UNL     1      -1.437  11.778  20.968  0.00  0.00    +0.000 A 
BRANCH  26  27
ATOM     27  C   UNL     1      -2.317  12.800  21.498  0.00  0.00    +0.000 A 
ATOM     28  C   UNL     1      -3.710  12.826  21.736  0.00  0.00    +0.000 A 
ATOM     29  N   UNL     1      -4.123  13.979  22.257  0.00  0.00    +0.000 NA
ATOM     30  N   UNL     1      -2.993  14.687  22.376  0.00  0.00    +0.000 N 
ATOM     31  C   UNL     1      -3.019  16.017  22.932  0.00  0.00    +0.000 C 
ATOM     32  C   UNL     1      -1.885  14.038  21.926  0.00  0.00    +0.000 A 
ENDBRANCH  26  27
ENDBRANCH   1  23
TORSDOF 3
ENDMDL
MODEL 3
REMARK VINA RESULT:      -8.8      1.168      1.846
REMARK  Name = 
REMARK  5 active torsions:
REMARK  status: ('A' for Active; 'I' for Inactive)
REMARK    1  A    between atoms: C_1  and  C_2
REMARK    2  A    between atoms: C_4  and  N_5
REMARK    3  A    between atoms: C_8  and  C_9
REMARK    4  A    between atoms: C_26  and  C_27
REMARK    5  A    between atoms: N_30  and  C_31
REMARK                            x       y       z     vdW  Elec       q    Type
REMARK                         _______ _______ _______ _____ _____    ______ ____
ROOT
ATOM      1  N   UNL     1       1.634   8.270  19.474  0.00  0.00    +0.000 N 
ATOM      2  C   UNL     1       2.260   8.714  18.214  0.00  0.00    +0.000 C 
ATOM      3  C   UNL     1       2.644   7.556  17.285  0.00  0.00    +0.000 C 
ATOM      4  C   UNL     1       2.580   6.212  17.984  0.00  0.00    +0.000 C 
ATOM      5  C   UNL     1       3.014   6.255  19.464  0.00  0.00    +0.000 C 
ATOM      6  C   UNL     1       2.403   7.345  20.293  0.00  0.00    +0.000 C 
ENDROOT
BRANCH   4   7
ATOM      7  C   UNL     1       3.205   4.998  17.242  0.00  0.00    +0.000 C 
ATOM      8  C   UNL     1       4.731   5.028  17.140  0.00  0.00    +0.000 A 
ATOM      9  C   UNL     1       5.546   5.741  16.282  0.00  0.00    +0.000 A 
ATOM     10  F   UNL     1       5.028   6.387  15.230  0.00  0.00    +0.000 F 
ATOM     11  C   UNL     1       6.915   5.794  16.531  0.00  0.00    +0.000 A 
ATOM     12  C   UNL     1       7.451   5.181  17.679  0.00  0.00    +0.000 A 
ATOM     13  C   UNL     1       6.640   4.409  18.525  0.00  0.00    +0.000 A 
ATOM     14  C   UNL     1       5.305   4.268  18.191  0.00  0.00    +0.000 A 
ATOM     15  C   UNL     1       4.231   3.555  18.815  0.00  0.00    +0.000 A 
ATOM     16  C   UNL     1       3.861   2.821  19.910  0.00  0.00    +0.000 A 
ATOM     17  N   UNL     1       2.472   2.766  19.989  0.00  0.00    +0.000 NA
ATOM     18  C   UNL     1       2.015   3.489  18.979  0.00  0.00    +0.000 A 
ATOM     19  N   UNL     1       3.042   3.859  18.174  0.00  0.00    +0.000 N 
ENDBRANCH   4   7
BRANCH   1  23
ATOM     20  C   UNL     1      -0.133   9.603  23.842  0.00  0.00    +0.000 C 
ATOM     21  C   UNL     1      -0.044   9.926  22.378  0.00  0.00    +0.000 A 
ATOM     22  C   UNL     1       0.633   8.994  21.570  0.00  0.00    +0.000 A 
ATOM     23  C   UNL     1       0.872   9.182  20.220  0.00  0.00    +0.000 A 
ATOM     24  C   UNL     1       0.343  10.356  19.644  0.00  0.00    +0.000 A 
ATOM     25  C   UNL     1      -0.366  11.285  20.418  0.00  0.00    +0.000 A 
ATOM     26  C   UNL     1      -0.562  11.090  21.791  0.00  0.00    +0.000 A 
BRANCH  26  27
ATOM     27  C   UNL     1      -1.287  12.102  22.533  0.00  0.00    +0.000 A 
ATOM     28  C   UNL     1      -0.931  13.398  22.972  0.00  0.00    +0.000 A 
ATOM     29  N   UNL     1      -1.917  14.013  23.621  0.00  0.00    +0.000 NA
ATOM     30  N   UNL     1      -2.916  13.122  23.581  0.00  0.00    +0.000 N 
ATOM     31  C   UNL     1      -4.194  13.428  24.175  0.00  0.00    +0.000 C 
ATOM     32  C   UNL     1      -2.592  11.957  22.955  0.00  0.00    +0.000 A 
ENDBRANCH  26  27
ENDBRANCH   1  23
TORSDOF 3
ENDMDL
MODEL 4
REMARK VINA RESULT:      -8.7      1.320      1.880
REMARK  Name = 
REMARK  5 active torsions:
REMARK  status: ('A' for Active; 'I' for Inactive)
REMARK    1  A    between atoms: C_1  and  C_2
REMARK    2  A    between atoms: C_4  and  N_5
REMARK    3  A    between atoms: C_8  and  C_9
REMARK    4  A    between atoms: C_26  and  C_27
REMARK    5  A    between atoms: N_30  and  C_31
REMARK                            x       y       z     vdW  Elec       q    Type
REMARK                         _______ _______ _______ _____ _____    ______ ____
ROOT
ATOM      1  N   UNL     1       1.604   8.611  19.610  0.00  0.00    +0.000 N 
ATOM      2  C   UNL     1       1.749   7.231  20.109  0.00  0.00    +0.000 C 
ATOM      3  C   UNL     1       2.884   6.455  19.430  0.00  0.00    +0.000 C 
ATOM      4  C   UNL     1       3.405   7.162  18.194  0.00  0.00    +0.000 C 
ATOM      5  C   UNL     1       2.315   7.894  17.385  0.00  0.00    +0.000 C 
ATOM      6  C   UNL     1       1.388   8.767  18.178  0.00  0.00    +0.000 C 
ENDROOT
BRANCH   4   7
ATOM      7  C   UNL     1       4.357   6.356  17.268  0.00  0.00    +0.000 C 
ATOM      8  C   UNL     1       5.796   6.239  17.775  0.00  0.00    +0.000 A 
ATOM      9  C   UNL     1       6.826   7.159  17.731  0.00  0.00    +0.000 A 
ATOM     10  F   UNL     1       6.714   8.273  16.998  0.00  0.00    +0.000 F 
ATOM     11  C   UNL     1       7.982   6.921  18.470  0.00  0.00    +0.000 A 
ATOM     12  C   UNL     1       8.072   5.790  19.303  0.00  0.00    +0.000 A 
ATOM     13  C   UNL     1       7.054   4.824  19.311  0.00  0.00    +0.000 A 
ATOM     14  C   UNL     1       5.969   5.019  18.475  0.00  0.00    +0.000 A 
ATOM     15  C   UNL     1       4.792   4.238  18.235  0.00  0.00    +0.000 A 
ATOM     16  C   UNL     1       4.079   3.137  18.627  0.00  0.00    +0.000 A 
ATOM     17  N   UNL     1       2.778   3.224  18.140  0.00  0.00    +0.000 NA
ATOM     18  C   UNL     1       2.699   4.379  17.500  0.00  0.00    +0.000 A 
ATOM     19  N   UNL     1       3.928   4.947  17.417  0.00  0.00    +0.000 N 
ENDBRANCH   4   7
BRANCH   1  23
ATOM     20  C   UNL     1      -0.782  12.883  19.802  0.00  0.00    +0.000 C 
ATOM     21  C   UNL     1      -0.306  11.682  20.567  0.00  0.00    +0.000 A 
ATOM     22  C   UNL     1       0.468  10.750  19.852  0.00  0.00    +0.000 A 
ATOM     23  C   UNL     1       0.914   9.554  20.388  0.00  0.00    +0.000 A 
ATOM     24  C   UNL     1       0.606   9.317  21.743  0.00  0.00    +0.000 A 
ATOM     25  C   UNL     1      -0.135  10.244  22.489  0.00  0.00    +0.000 A 
ATOM     26  C   UNL     1      -0.606  11.430  21.914  0.00  0.00    +0.000 A 
BRANCH  26  27
ATOM     27  C   UNL     1      -1.384  12.334  22.739  0.00  0.00    +0.000 A 
ATOM     28  C   UNL     1      -1.098  13.606  23.287  0.00  0.00    +0.000 A 
ATOM     29  N   UNL     1      -2.115  14.108  23.984  0.00  0.00    +0.000 NA
ATOM     30  N   UNL     1      -3.063  13.170  23.866  0.00  0.00    +0.000 N 
ATOM     31  C   UNL     1      -4.354  13.354  24.482  0.00  0.00    +0.000 C 
ATOM     32  C   UNL     1      -2.677  12.083  23.144  0.00  0.00    +0.000 A 
ENDBRANCH  26  27
ENDBRANCH   1  23
TORSDOF 3
ENDMDL
MODEL 5
REMARK VINA RESULT:      -8.7      2.912     10.153
REMARK  Name = 
REMARK  5 active torsions:
REMARK  status: ('A' for Active; 'I' for Inactive)
REMARK    1  A    between atoms: C_1  and  C_2
REMARK    2  A    between atoms: C_4  and  N_5
REMARK    3  A    between atoms: C_8  and  C_9
REMARK    4  A    between atoms: C_26  and  C_27
REMARK    5  A    between atoms: N_30  and  C_31
REMARK                            x       y       z     vdW  Elec       q    Type
REMARK                         _______ _______ _______ _____ _____    ______ ____
ROOT
ATOM      1  N   UNL     1       0.401  10.097  19.240  0.00  0.00    +0.000 N 
ATOM      2  C   UNL     1      -0.711  10.331  18.300  0.00  0.00    +0.000 C 
ATOM      3  C   UNL     1      -1.359  11.712  18.456  0.00  0.00    +0.000 C 
ATOM      4  C   UNL     1      -0.924  12.411  19.731  0.00  0.00    +0.000 C 
ATOM      5  C   UNL     1      -0.722  11.460  20.928  0.00  0.00    +0.000 C 
ATOM      6  C   UNL     1       0.097  10.232  20.657  0.00  0.00    +0.000 C 
ENDROOT
BRANCH   4   7
ATOM      7  C   UNL     1      -1.711  13.685  20.142  0.00  0.00    +0.000 C 
ATOM      8  C   UNL     1      -2.520  13.549  21.434  0.00  0.00    +0.000 A 
ATOM      9  C   UNL     1      -3.742  12.943  21.652  0.00  0.00    +0.000 A 
ATOM     10  F   UNL     1      -4.502  12.551  20.621  0.00  0.00    +0.000 F 
ATOM     11  C   UNL     1      -4.173  12.731  22.959  0.00  0.00    +0.000 A 
ATOM     12  C   UNL     1      -3.342  13.072  24.043  0.00  0.00    +0.000 A 
ATOM     13  C   UNL     1      -2.125  13.737  23.832  0.00  0.00    +0.000 A 
ATOM     14  C   UNL     1      -1.773  14.048  22.531  0.00  0.00    +0.000 A 
ATOM     15  C   UNL     1      -0.634  14.719  21.981  0.00  0.00    +0.000 A 
ATOM     16  C   UNL     1       0.590  15.263  22.263  0.00  0.00    +0.000 A 
ATOM     17  N   UNL     1       1.317  15.418  21.086  0.00  0.00    +0.000 NA
ATOM     18  C   UNL     1       0.556  14.937  20.115  0.00  0.00    +0.000 A 
ATOM     19  N   UNL     1      -0.675  14.640  20.599  0.00  0.00    +0.000 N 
ENDBRANCH   4   7
BRANCH   1  23
ATOM     20  C   UNL     1       2.354   5.785  20.493  0.00  0.00    +0.000 C 
ATOM     21  C   UNL     1       2.362   6.924  19.514  0.00  0.00    +0.000 A 
ATOM     22  C   UNL     1       1.507   8.002  19.800  0.00  0.00    +0.000 A 
ATOM     23  C   UNL     1       1.336   9.088  18.959  0.00  0.00    +0.000 A 
ATOM     24  C   UNL     1       2.123   9.108  17.789  0.00  0.00    +0.000 A 
ATOM     25  C   UNL     1       3.009   8.063  17.495  0.00  0.00    +0.000 A 
ATOM     26  C   UNL     1       3.136   6.956  18.344  0.00  0.00    +0.000 A 
BRANCH  26  27
ATOM     27  C   UNL     1       4.057   5.902  17.968  0.00  0.00    +0.000 A 
ATOM     28  C   UNL     1       3.855   4.597  17.463  0.00  0.00    +0.000 A 
ATOM     29  N   UNL     1       4.995   3.951  17.232  0.00  0.00    +0.000 NA
ATOM     30  N   UNL     1       5.932   4.847  17.566  0.00  0.00    +0.000 N 
ATOM     31  C   UNL     1       7.331   4.525  17.435  0.00  0.00    +0.000 C 
ATOM     32  C   UNL     1       5.429   6.025  18.025  0.00  0.00    +0.000 A 
ENDBRANCH  26  27
ENDBRANCH   1  23
TORSDOF 3
ENDMDL
MODEL 6
REMARK VINA RESULT:      -8.5      3.260      4.553
REMARK  Name = 
REMARK  5 active torsions:
REMARK  status: ('A' for Active; 'I' for Inactive)
REMARK    1  A    between atoms: C_1  and  C_2
REMARK    2  A    between atoms: C_4  and  N_5
REMARK    3  A    between atoms: C_8  and  C_9
REMARK    4  A    between atoms: C_26  and  C_27
REMARK    5  A    between atoms: N_30  and  C_31
REMARK                            x       y       z     vdW  Elec       q    Type
REMARK                         _______ _______ _______ _____ _____    ______ ____
ROOT
ATOM      1  N   UNL     1       0.722   8.984  18.661  0.00  0.00    +0.000 N 
ATOM      2  C   UNL     1       1.904   9.261  17.822  0.00  0.00    +0.000 C 
ATOM      3  C   UNL     1       2.929   8.121  17.822  0.00  0.00    +0.000 C 
ATOM      4  C   UNL     1       2.656   7.100  18.910  0.00  0.00    +0.000 C 
ATOM      5  C   UNL     1       2.109   7.710  20.217  0.00  0.00    +0.000 C 
ATOM      6  C   UNL     1       0.974   8.678  20.062  0.00  0.00    +0.000 C 
ENDROOT
BRANCH   4   7
ATOM      7  C   UNL     1       3.769   6.053  19.192  0.00  0.00    +0.000 C 
ATOM      8  C   UNL     1       3.293   4.599  19.192  0.00  0.00    +0.000 A 
ATOM      9  C   UNL     1       2.627   3.887  20.171  0.00  0.00    +0.000 A 
ATOM     10  F   UNL     1       2.493   4.388  21.405  0.00  0.00    +0.000 F 
ATOM     11  C   UNL     1       2.083   2.645  19.857  0.00  0.00    +0.000 A 
ATOM     12  C   UNL     1       2.154   2.151  18.540  0.00  0.00    +0.000 A 
ATOM     13  C   UNL     1       2.875   2.841  17.555  0.00  0.00    +0.000 A 
ATOM     14  C   UNL     1       3.513   4.013  17.920  0.00  0.00    +0.000 A 
ATOM     15  C   UNL     1       4.325   4.933  17.180  0.00  0.00    +0.000 A 
ATOM     16  C   UNL     1       4.805   5.256  15.939  0.00  0.00    +0.000 A 
ATOM     17  N   UNL     1       5.268   6.569  15.943  0.00  0.00    +0.000 NA
ATOM     18  C   UNL     1       5.033   7.041  17.157  0.00  0.00    +0.000 A 
ATOM     19  N   UNL     1       4.597   6.041  17.964  0.00  0.00    +0.000 N 
ENDBRANCH   4   7
BRANCH   1  23
ATOM     20  C   UNL     1      -3.116   9.917  15.767  0.00  0.00    +0.000 C 
ATOM     21  C   UNL     1      -2.419  10.233  17.058  0.00  0.00    +0.000 A 
ATOM     22  C   UNL     1      -1.185   9.594  17.277  0.00  0.00    +0.000 A 
ATOM     23  C   UNL     1      -0.458   9.714  18.449  0.00  0.00    +0.000 A 
ATOM     24  C   UNL     1      -0.984  10.578  19.431  0.00  0.00    +0.000 A 
ATOM     25  C   UNL     1      -2.195  11.253  19.226  0.00  0.00    +0.000 A 
ATOM     26  C   UNL     1      -2.931  11.087  18.047  0.00  0.00    +0.000 A 
BRANCH  26  27
ATOM     27  C   UNL     1      -4.185  11.801  17.910  0.00  0.00    +0.000 A 
ATOM     28  C   UNL     1      -5.038  12.024  16.805  0.00  0.00    +0.000 A 
ATOM     29  N   UNL     1      -6.119  12.733  17.122  0.00  0.00    +0.000 NA
ATOM     30  N   UNL     1      -5.974  12.947  18.435  0.00  0.00    +0.000 N 
ATOM     31  C   UNL     1      -6.974  13.681  19.171  0.00  0.00    +0.000 C 
ATOM     32  C   UNL     1      -4.831  12.424  18.957  0.00  0.00    +0.000 A 
ENDBRANCH  26  27
ENDBRANCH   1  23
TORSDOF 3
ENDMDL
MODEL 7
REMARK VINA RESULT:      -8.5      3.166     10.208
REMARK  Name = 
REMARK  5 active torsions:
REMARK  status: ('A' for Active; 'I' for Inactive)
REMARK    1  A    between atoms: C_1  and  C_2
REMARK    2  A    between atoms: C_4  and  N_5
REMARK    3  A    between atoms: C_8  and  C_9
REMARK    4  A    between atoms: C_26  and  C_27
REMARK    5  A    between atoms: N_30  and  C_31
REMARK                            x       y       z     vdW  Elec       q    Type
REMARK                         _______ _______ _______ _____ _____    ______ ____
ROOT
ATOM      1  N   UNL     1       0.339  10.258  19.425  0.00  0.00    +0.000 N 
ATOM      2  C   UNL     1      -1.014  10.236  18.837  0.00  0.00    +0.000 C 
ATOM      3  C   UNL     1      -1.717  11.597  18.880  0.00  0.00    +0.000 C 
ATOM      4  C   UNL     1      -1.003  12.586  19.781  0.00  0.00    +0.000 C 
ATOM      5  C   UNL     1      -0.375  11.948  21.037  0.00  0.00    +0.000 C 
ATOM      6  C   UNL     1       0.444  10.713  20.803  0.00  0.00    +0.000 C 
ENDROOT
BRANCH   4   7
ATOM      7  C   UNL     1      -1.757  13.900  20.126  0.00  0.00    +0.000 C 
ATOM      8  C   UNL     1      -1.920  14.170  21.623  0.00  0.00    +0.000 A 
ATOM      9  C   UNL     1      -2.818  13.632  22.525  0.00  0.00    +0.000 A 
ATOM     10  F   UNL     1      -3.855  12.900  22.101  0.00  0.00    +0.000 F 
ATOM     11  C   UNL     1      -2.624  13.848  23.887  0.00  0.00    +0.000 A 
ATOM     12  C   UNL     1      -1.492  14.551  24.340  0.00  0.00    +0.000 A 
ATOM     13  C   UNL     1      -0.607  15.147  23.429  0.00  0.00    +0.000 A 
ATOM     14  C   UNL     1      -0.886  15.025  22.080  0.00  0.00    +0.000 A 
ATOM     15  C   UNL     1      -0.211  15.513  20.914  0.00  0.00    +0.000 A 
ATOM     16  C   UNL     1       0.904  16.157  20.453  0.00  0.00    +0.000 A 
ATOM     17  N   UNL     1       1.039  15.940  19.084  0.00  0.00    +0.000 NA
ATOM     18  C   UNL     1       0.041  15.144  18.736  0.00  0.00    +0.000 A 
ATOM     19  N   UNL     1      -0.808  14.983  19.782  0.00  0.00    +0.000 N 
ENDBRANCH   4   7
BRANCH   1  23
ATOM     20  C   UNL     1       2.276   5.909  20.570  0.00  0.00    +0.000 C 
ATOM     21  C   UNL     1       2.261   7.053  19.598  0.00  0.00    +0.000 A 
ATOM     22  C   UNL     1       1.435   8.143  19.926  0.00  0.00    +0.000 A 
ATOM     23  C   UNL     1       1.247   9.237  19.100  0.00  0.00    +0.000 A 
ATOM     24  C   UNL     1       1.984   9.253  17.898  0.00  0.00    +0.000 A 
ATOM     25  C   UNL     1       2.841   8.196  17.561  0.00  0.00    +0.000 A 
ATOM     26  C   UNL     1       2.986   7.082  18.397  0.00  0.00    +0.000 A 
BRANCH  26  27
ATOM     27  C   UNL     1       3.874   6.017  17.977  0.00  0.00    +0.000 A 
ATOM     28  C   UNL     1       3.632   4.706  17.506  0.00  0.00    +0.000 A 
ATOM     29  N   UNL     1       4.750   4.049  17.209  0.00  0.00    +0.000 NA
ATOM     30  N   UNL     1       5.713   4.943  17.468  0.00  0.00    +0.000 N 
ATOM     31  C   UNL     1       7.099   4.610  17.251  0.00  0.00    +0.000 C 
ATOM     32  C   UNL     1       5.248   6.132  17.942  0.00  0.00    +0.000 A 
ENDBRANCH  26  27
ENDBRANCH   1  23
TORSDOF 3
ENDMDL
MODEL 8
REMARK VINA RESULT:      -8.3      2.676     10.123
REMARK  Name = 
REMARK  5 active torsions:
REMARK  status: ('A' for Active; 'I' for Inactive)
REMARK    1  A    between atoms: C_1  and  C_2
REMARK    2  A    between atoms: C_4  and  N_5
REMARK    3  A    between atoms: C_8  and  C_9
REMARK    4  A    between atoms: C_26  and  C_27
REMARK    5  A    between atoms: N_30  and  C_31
REMARK                            x       y       z     vdW  Elec       q    Type
REMARK                         _______ _______ _______ _____ _____    ______ ____
ROOT
ATOM      1  N   UNL     1       0.774   9.969  20.022  0.00  0.00    +0.000 N 
ATOM      2  C   UNL     1       0.496  10.394  21.407  0.00  0.00    +0.000 C 
ATOM      3  C   UNL     1      -0.561  11.501  21.502  0.00  0.00    +0.000 C 
ATOM      4  C   UNL     1      -0.862  12.126  20.153  0.00  0.00    +0.000 C 
ATOM      5  C   UNL     1       0.367  12.243  19.229  0.00  0.00    +0.000 C 
ATOM      6  C   UNL     1       1.205  11.006  19.096  0.00  0.00    +0.000 C 
ENDROOT
BRANCH   4   7
ATOM      7  C   UNL     1      -1.702  13.433  20.152  0.00  0.00    +0.000 C 
ATOM      8  C   UNL     1      -3.068  13.317  20.831  0.00  0.00    +0.000 A 
ATOM      9  C   UNL     1      -4.247  12.773  20.357  0.00  0.00    +0.000 A 
ATOM     10  F   UNL     1      -4.374  12.441  19.067  0.00  0.00    +0.000 F 
ATOM     11  C   UNL     1      -5.301  12.561  21.242  0.00  0.00    +0.000 A 
ATOM     12  C   UNL     1      -5.144  12.836  22.613  0.00  0.00    +0.000 A 
ATOM     13  C   UNL     1      -3.971  13.439  23.092  0.00  0.00    +0.000 A 
ATOM     14  C   UNL     1      -2.983  13.755  22.177  0.00  0.00    +0.000 A 
ATOM     15  C   UNL     1      -1.700  14.374  22.326  0.00  0.00    +0.000 A 
ATOM     16  C   UNL     1      -0.783  14.847  23.225  0.00  0.00    +0.000 A 
ATOM     17  N   UNL     1       0.455  14.984  22.603  0.00  0.00    +0.000 NA
ATOM     18  C   UNL     1       0.293  14.563  21.359  0.00  0.00    +0.000 A 
ATOM     19  N   UNL     1      -1.021  14.323  21.121  0.00  0.00    +0.000 N 
ENDBRANCH   4   7
BRANCH   1  23
ATOM     20  C   UNL     1       3.678   7.225  17.190  0.00  0.00    +0.000 C 
ATOM     21  C   UNL     1       2.837   7.284  18.433  0.00  0.00    +0.000 A 
ATOM     22  C   UNL     1       2.134   8.480  18.659  0.00  0.00    +0.000 A 
ATOM     23  C   UNL     1       1.382   8.724  19.795  0.00  0.00    +0.000 A 
ATOM     24  C   UNL     1       1.293   7.671  20.728  0.00  0.00    +0.000 A 
ATOM     25  C   UNL     1       1.956   6.455  20.514  0.00  0.00    +0.000 A 
ATOM     26  C   UNL     1       2.741   6.246  19.373  0.00  0.00    +0.000 A 
BRANCH  26  27
ATOM     27  C   UNL     1       3.414   4.972  19.225  0.00  0.00    +0.000 A 
ATOM     28  C   UNL     1       4.751   4.570  19.450  0.00  0.00    +0.000 A 
ATOM     29  N   UNL     1       4.951   3.278  19.201  0.00  0.00    +0.000 NA
ATOM     30  N   UNL     1       3.738   2.842  18.837  0.00  0.00    +0.000 N 
ATOM     31  C   UNL     1       3.531   1.456  18.497  0.00  0.00    +0.000 C 
ATOM     32  C   UNL     1       2.785   3.813  18.820  0.00  0.00    +0.000 A 
ENDBRANCH  26  27
ENDBRANCH   1  23
TORSDOF 3
ENDMDL
MODEL 9
REMARK VINA RESULT:      -8.3      3.108     10.005
REMARK  Name = 
REMARK  5 active torsions:
REMARK  status: ('A' for Active; 'I' for Inactive)
REMARK    1  A    between atoms: C_1  and  C_2
REMARK    2  A    between atoms: C_4  and  N_5
REMARK    3  A    between atoms: C_8  and  C_9
REMARK    4  A    between atoms: C_26  and  C_27
REMARK    5  A    between atoms: N_30  and  C_31
REMARK                            x       y       z     vdW  Elec       q    Type
REMARK                         _______ _______ _______ _____ _____    ______ ____
ROOT
ATOM      1  N   UNL     1       0.481  10.069  19.754  0.00  0.00    +0.000 N 
ATOM      2  C   UNL     1      -0.506  10.426  18.718  0.00  0.00    +0.000 C 
ATOM      3  C   UNL     1      -0.876  11.914  18.718  0.00  0.00    +0.000 C 
ATOM      4  C   UNL     1      -0.387  12.629  19.963  0.00  0.00    +0.000 C 
ATOM      5  C   UNL     1      -0.447  11.770  21.242  0.00  0.00    +0.000 C 
ATOM      6  C   UNL     1       0.128  10.389  21.130  0.00  0.00    +0.000 C 
ENDROOT
BRANCH   4   7
ATOM      7  C   UNL     1      -0.930  14.063  20.214  0.00  0.00    +0.000 C 
ATOM      8  C   UNL     1      -1.713  14.232  21.517  0.00  0.00    +0.000 A 
ATOM      9  C   UNL     1      -3.015  13.882  21.818  0.00  0.00    +0.000 A 
ATOM     10  F   UNL     1      -3.860  13.504  20.851  0.00  0.00    +0.000 F 
ATOM     11  C   UNL     1      -3.438  13.913  23.144  0.00  0.00    +0.000 A 
ATOM     12  C   UNL     1      -2.531  14.234  24.171  0.00  0.00    +0.000 A 
ATOM     13  C   UNL     1      -1.224  14.644  23.870  0.00  0.00    +0.000 A 
ATOM     14  C   UNL     1      -0.860  14.725  22.537  0.00  0.00    +0.000 A 
ATOM     15  C   UNL     1       0.362  15.112  21.899  0.00  0.00    +0.000 A 
ATOM     16  C   UNL     1       1.669  15.464  22.103  0.00  0.00    +0.000 A 
ATOM     17  N   UNL     1       2.378  15.342  20.911  0.00  0.00    +0.000 NA
ATOM     18  C   UNL     1       1.519  14.885  20.014  0.00  0.00    +0.000 A 
ATOM     19  N   UNL     1       0.268  14.870  20.539  0.00  0.00    +0.000 N 
ENDBRANCH   4   7
BRANCH   1  23
ATOM     20  C   UNL     1       3.576   7.371  17.085  0.00  0.00    +0.000 C 
ATOM     21  C   UNL     1       2.773   7.468  18.351  0.00  0.00    +0.000 A 
ATOM     22  C   UNL     1       1.952   8.601  18.487  0.00  0.00    +0.000 A 
ATOM     23  C   UNL     1       1.214   8.879  19.625  0.00  0.00    +0.000 A 
ATOM     24  C   UNL     1       1.268   7.923  20.660  0.00  0.00    +0.000 A 
ATOM     25  C   UNL     1       2.052   6.768  20.537  0.00  0.00    +0.000 A 
ATOM     26  C   UNL     1       2.819   6.527  19.391  0.00  0.00    +0.000 A 
BRANCH  26  27
ATOM     27  C   UNL     1       3.622   5.322  19.340  0.00  0.00    +0.000 A 
ATOM     28  C   UNL     1       5.020   5.109  19.333  0.00  0.00    +0.000 A 
ATOM     29  N   UNL     1       5.346   3.820  19.294  0.00  0.00    +0.000 NA
ATOM     30  N   UNL     1       4.159   3.200  19.300  0.00  0.00    +0.000 N 
ATOM     31  C   UNL     1       4.085   1.760  19.283  0.00  0.00    +0.000 C 
ATOM     32  C   UNL     1       3.095   4.048  19.313  0.00  0.00    +0.000 A 
ENDBRANCH  26  27
ENDBRANCH   1  23
TORSDOF 3
ENDMDL
