MODEL 1
REMARK VINA RESULT:      -6.5      0.000      0.000
REMARK  Name = 
REMARK  13 active torsions:
REMARK  status: ('A' for Active; 'I' for Inactive)
REMARK    1  A    between atoms: C_1  and  C_2
REMARK    2  A    between atoms: C_2  and  N_3
REMARK    3  A    between atoms: C_4  and  C_5
REMARK    4  A    between atoms: C_5  and  C_7
REMARK    5  A    between atoms: C_9  and  C_10
REMARK    6  A    between atoms: C_12  and  C_13
REMARK    7  A    between atoms: C_16  and  C_17
REMARK    8  A    between atoms: C_17  and  C_18
REMARK    9  A    between atoms: C_17  and  C_19
REMARK   10  A    between atoms: N_22  and  C_23
REMARK   11  A    between atoms: C_23  and  O_24
REMARK   12  A    between atoms: O_24  and  C_25
REMARK   13  A    between atoms: C_25  and  C_26
REMARK                            x       y       z     vdW  Elec       q    Type
REMARK                         _______ _______ _______ _____ _____    ______ ____
ROOT
ATOM      1  N   UNL     1      -3.700  11.661  17.956  0.00  0.00    +0.000 N 
ATOM      2  C   UNL     1      -2.808  12.086  18.970  0.00  0.00    +0.000 A 
ATOM      3  C   UNL     1      -3.278  12.686  20.103  0.00  0.00    +0.000 A 
ATOM      4  C   UNL     1      -4.752  12.900  20.196  0.00  0.00    +0.000 A 
ATOM      5  O   UNL     1      -5.228  13.622  21.068  0.00  0.00    +0.000 OA
ATOM      6  N   UNL     1      -5.547  12.248  19.293  0.00  0.00    +0.000 N 
ATOM      7  C   UNL     1      -5.072  11.557  18.211  0.00  0.00    +0.000 A 
ATOM      8  O   UNL     1      -5.835  10.916  17.490  0.00  0.00    +0.000 OA
ENDROOT
BRANCH   3   9
ATOM      9  C   UNL     1      -2.469  13.260  21.294  0.00  0.00    +0.000 C 
ATOM     10  C   UNL     1      -2.520  14.796  21.319  0.00  0.00    +0.000 C 
ATOM     11  C   UNL     1      -2.804  12.742  22.709  0.00  0.00    +0.000 C 
ENDBRANCH   3   9
BRANCH   1  13
ATOM     12  C   UNL     1      -2.783   9.796  16.443  0.00  0.00    +0.000 C 
ATOM     13  C   UNL     1      -3.262  11.247  16.604  0.00  0.00    +0.000 C 
ENDBRANCH   1  13
BRANCH   2  14
ATOM     14  C   UNL     1      -1.286  11.991  18.842  0.00  0.00    +0.000 C 
ATOM     15  O   UNL     1      -0.656  12.850  18.219  0.00  0.00    +0.000 OA
BRANCH  14  16
ATOM     16  C   UNL     1      -0.429  10.928  19.434  0.00  0.00    +0.000 A 
ATOM     17  C   UNL     1       0.341  10.156  18.521  0.00  0.00    +0.000 A 
ATOM     18  C   UNL     1       1.238   9.182  18.953  0.00  0.00    +0.000 A 
ATOM     19  C   UNL     1       2.049   8.392  17.953  0.00  0.00    +0.000 C 
ATOM     20  C   UNL     1       1.387   8.957  20.319  0.00  0.00    +0.000 A 
ATOM     21  C   UNL     1       0.637   9.713  21.240  0.00  0.00    +0.000 A 
ATOM     22  C   UNL     1      -0.258  10.702  20.798  0.00  0.00    +0.000 A 
BRANCH  21  23
ATOM     23  C   UNL     1       0.802   9.475  22.642  0.00  0.00    +0.000 C 
ATOM     24  N   UNL     1       0.930   9.291  23.782  0.00  0.00    +0.000 NA
ENDBRANCH  21  23
ENDBRANCH  14  16
ENDBRANCH   2  14
BRANCH   6  25
ATOM     25  C   UNL     1      -6.983  12.414  19.425  0.00  0.00    +0.000 C 
BRANCH  25  26
ATOM     26  O   UNL     1      -7.579  11.119  19.526  0.00  0.00    +0.000 OA
BRANCH  26  27
ATOM     27  C   UNL     1      -7.574  10.577  20.772  0.00  0.00    +0.000 C 
ATOM     28  C   UNL     1      -7.633   9.082  20.694  0.00  0.00    +0.000 C 
ATOM     29  O   UNL     1      -7.544  11.196  21.825  0.00  0.00    +0.000 OA
ENDBRANCH  26  27
ENDBRANCH  25  26
ENDBRANCH   6  25
TORSDOF 8
ENDMDL
MODEL 2
REMARK VINA RESULT:      -6.3      1.997      2.740
REMARK  Name = 
REMARK  13 active torsions:
REMARK  status: ('A' for Active; 'I' for Inactive)
REMARK    1  A    between atoms: C_1  and  C_2
REMARK    2  A    between atoms: C_2  and  N_3
REMARK    3  A    between atoms: C_4  and  C_5
REMARK    4  A    between atoms: C_5  and  C_7
REMARK    5  A    between atoms: C_9  and  C_10
REMARK    6  A    between atoms: C_12  and  C_13
REMARK    7  A    between atoms: C_16  and  C_17
REMARK    8  A    between atoms: C_17  and  C_18
REMARK    9  A    between atoms: C_17  and  C_19
REMARK   10  A    between atoms: N_22  and  C_23
REMARK   11  A    between atoms: C_23  and  O_24
REMARK   12  A    between atoms: O_24  and  C_25
REMARK   13  A    between atoms: C_25  and  C_26
REMARK                            x       y       z     vdW  Elec       q    Type
REMARK                         _______ _______ _______ _____ _____    ______ ____
ROOT
ATOM      1  N   UNL     1      -4.170  11.656  19.099  0.00  0.00    +0.000 N 
ATOM      2  C   UNL     1      -2.969  12.253  19.552  0.00  0.00    +0.000 A 
ATOM      3  C   UNL     1      -2.989  13.183  20.552  0.00  0.00    +0.000 A 
ATOM      4  C   UNL     1      -4.325  13.558  21.103  0.00  0.00    +0.000 A 
ATOM      5  O   UNL     1      -4.449  14.534  21.837  0.00  0.00    +0.000 OA
ATOM      6  N   UNL     1      -5.391  12.766  20.777  0.00  0.00    +0.000 N 
ATOM      7  C   UNL     1      -5.346  11.762  19.849  0.00  0.00    +0.000 A 
ATOM      8  O   UNL     1      -6.316  11.026  19.670  0.00  0.00    +0.000 OA
ENDROOT
BRANCH   3   9
ATOM      9  C   UNL     1      -1.800  13.979  21.149  0.00  0.00    +0.000 C 
ATOM     10  C   UNL     1      -1.842  15.455  20.723  0.00  0.00    +0.000 C 
ATOM     11  C   UNL     1      -1.592  13.922  22.677  0.00  0.00    +0.000 C 
ENDBRANCH   3   9
BRANCH   1  13
ATOM     12  C   UNL     1      -4.553  11.605  16.557  0.00  0.00    +0.000 C 
ATOM     13  C   UNL     1      -4.264  10.848  17.863  0.00  0.00    +0.000 C 
ENDBRANCH   1  13
BRANCH   2  14
ATOM     14  C   UNL     1      -1.604  11.977  18.919  0.00  0.00    +0.000 C 
ATOM     15  O   UNL     1      -1.231  12.620  17.933  0.00  0.00    +0.000 OA
BRANCH  14  16
ATOM     16  C   UNL     1      -0.610  10.977  19.395  0.00  0.00    +0.000 A 
ATOM     17  C   UNL     1      -0.666  10.640  20.776  0.00  0.00    +0.000 A 
ATOM     18  C   UNL     1       0.160   9.665  21.329  0.00  0.00    +0.000 A 
ATOM     19  C   UNL     1       0.061   9.324  22.798  0.00  0.00    +0.000 C 
ATOM     20  C   UNL     1       1.067   8.999  20.510  0.00  0.00    +0.000 A 
ATOM     21  C   UNL     1       1.135   9.315  19.139  0.00  0.00    +0.000 A 
ATOM     22  C   UNL     1       0.293  10.293  18.584  0.00  0.00    +0.000 A 
BRANCH  21  23
ATOM     23  C   UNL     1       2.070   8.621  18.305  0.00  0.00    +0.000 C 
ATOM     24  N   UNL     1       2.835   8.063  17.632  0.00  0.00    +0.000 NA
ENDBRANCH  21  23
ENDBRANCH  14  16
ENDBRANCH   2  14
BRANCH   6  25
ATOM     25  C   UNL     1      -6.676  13.102  21.364  0.00  0.00    +0.000 C 
BRANCH  25  26
ATOM     26  O   UNL     1      -6.951  12.170  22.412  0.00  0.00    +0.000 OA
BRANCH  26  27
ATOM     27  C   UNL     1      -6.606  12.586  23.658  0.00  0.00    +0.000 C 
ATOM     28  C   UNL     1      -7.621  13.553  24.188  0.00  0.00    +0.000 C 
ATOM     29  O   UNL     1      -5.608  12.250  24.279  0.00  0.00    +0.000 OA
ENDBRANCH  26  27
ENDBRANCH  25  26
ENDBRANCH   6  25
TORSDOF 8
ENDMDL
MODEL 3
REMARK VINA RESULT:      -6.2      6.801     10.828
REMARK  Name = 
REMARK  13 active torsions:
REMARK  status: ('A' for Active; 'I' for Inactive)
REMARK    1  A    between atoms: C_1  and  C_2
REMARK    2  A    between atoms: C_2  and  N_3
REMARK    3  A    between atoms: C_4  and  C_5
REMARK    4  A    between atoms: C_5  and  C_7
REMARK    5  A    between atoms: C_9  and  C_10
REMARK    6  A    between atoms: C_12  and  C_13
REMARK    7  A    between atoms: C_16  and  C_17
REMARK    8  A    between atoms: C_17  and  C_18
REMARK    9  A    between atoms: C_17  and  C_19
REMARK   10  A    between atoms: N_22  and  C_23
REMARK   11  A    between atoms: C_23  and  O_24
REMARK   12  A    between atoms: O_24  and  C_25
REMARK   13  A    between atoms: C_25  and  C_26
REMARK                            x       y       z     vdW  Elec       q    Type
REMARK                         _______ _______ _______ _____ _____    ______ ____
ROOT
ATOM      1  N   UNL     1       4.656   6.658  17.415  0.00  0.00    +0.000 N 
ATOM      2  C   UNL     1       4.760   5.251  17.303  0.00  0.00    +0.000 A 
ATOM      3  C   UNL     1       3.851   4.436  17.915  0.00  0.00    +0.000 A 
ATOM      4  C   UNL     1       2.785   5.095  18.725  0.00  0.00    +0.000 A 
ATOM      5  O   UNL     1       2.072   4.438  19.479  0.00  0.00    +0.000 OA
ATOM      6  N   UNL     1       2.622   6.446  18.580  0.00  0.00    +0.000 N 
ATOM      7  C   UNL     1       3.478   7.251  17.879  0.00  0.00    +0.000 A 
ATOM      8  O   UNL     1       3.223   8.443  17.710  0.00  0.00    +0.000 OA
ENDROOT
BRANCH   3   9
ATOM      9  C   UNL     1       3.820   2.886  17.952  0.00  0.00    +0.000 C 
ATOM     10  C   UNL     1       4.257   2.348  19.324  0.00  0.00    +0.000 C 
ATOM     11  C   UNL     1       2.506   2.183  17.553  0.00  0.00    +0.000 C 
ENDBRANCH   3   9
BRANCH   1  13
ATOM     12  C   UNL     1       7.117   7.369  17.637  0.00  0.00    +0.000 C 
ATOM     13  C   UNL     1       5.732   7.590  17.009  0.00  0.00    +0.000 C 
ENDBRANCH   1  13
BRANCH   2  14
ATOM     14  C   UNL     1       5.914   4.549  16.583  0.00  0.00    +0.000 C 
ATOM     15  O   UNL     1       6.760   3.920  17.224  0.00  0.00    +0.000 OA
BRANCH  14  16
ATOM     16  C   UNL     1       6.131   4.522  15.111  0.00  0.00    +0.000 A 
ATOM     17  C   UNL     1       7.315   5.152  14.636  0.00  0.00    +0.000 A 
ATOM     18  C   UNL     1       7.670   5.131  13.290  0.00  0.00    +0.000 A 
ATOM     19  C   UNL     1       8.944   5.800  12.826  0.00  0.00    +0.000 C 
ATOM     20  C   UNL     1       6.846   4.474  12.381  0.00  0.00    +0.000 A 
ATOM     21  C   UNL     1       5.671   3.841  12.831  0.00  0.00    +0.000 A 
ATOM     22  C   UNL     1       5.323   3.857  14.192  0.00  0.00    +0.000 A 
BRANCH  21  23
ATOM     23  C   UNL     1       4.832   3.165  11.888  0.00  0.00    +0.000 C 
ATOM     24  N   UNL     1       4.145   2.625  11.122  0.00  0.00    +0.000 NA
ENDBRANCH  21  23
ENDBRANCH  14  16
ENDBRANCH   2  14
BRANCH   6  25
ATOM     25  C   UNL     1       1.546   7.072  19.327  0.00  0.00    +0.000 C 
BRANCH  25  26
ATOM     26  O   UNL     1       2.108   7.713  20.475  0.00  0.00    +0.000 OA
BRANCH  26  27
ATOM     27  C   UNL     1       1.323   8.661  21.048  0.00  0.00    +0.000 C 
ATOM     28  C   UNL     1       0.778   9.591  20.007  0.00  0.00    +0.000 C 
ATOM     29  O   UNL     1       1.088   8.776  22.242  0.00  0.00    +0.000 OA
ENDBRANCH  26  27
ENDBRANCH  25  26
ENDBRANCH   6  25
TORSDOF 8
ENDMDL
MODEL 4
REMARK VINA RESULT:      -6.2      2.029      3.888
REMARK  Name = 
REMARK  13 active torsions:
REMARK  status: ('A' for Active; 'I' for Inactive)
REMARK    1  A    between atoms: C_1  and  C_2
REMARK    2  A    between atoms: C_2  and  N_3
REMARK    3  A    between atoms: C_4  and  C_5
REMARK    4  A    between atoms: C_5  and  C_7
REMARK    5  A    between atoms: C_9  and  C_10
REMARK    6  A    between atoms: C_12  and  C_13
REMARK    7  A    between atoms: C_16  and  C_17
REMARK    8  A    between atoms: C_17  and  C_18
REMARK    9  A    between atoms: C_17  and  C_19
REMARK   10  A    between atoms: N_22  and  C_23
REMARK   11  A    between atoms: C_23  and  O_24
REMARK   12  A    between atoms: O_24  and  C_25
REMARK   13  A    between atoms: C_25  and  C_26
REMARK                            x       y       z     vdW  Elec       q    Type
REMARK                         _______ _______ _______ _____ _____    ______ ____
ROOT
ATOM      1  N   UNL     1      -2.989  13.192  20.689  0.00  0.00    +0.000 N 
ATOM      2  C   UNL     1      -2.894  12.373  19.539  0.00  0.00    +0.000 A 
ATOM      3  C   UNL     1      -3.998  11.743  19.040  0.00  0.00    +0.000 A 
ATOM      4  C   UNL     1      -5.279  11.931  19.782  0.00  0.00    +0.000 A 
ATOM      5  O   UNL     1      -6.257  11.231  19.533  0.00  0.00    +0.000 OA
ATOM      6  N   UNL     1      -5.327  12.918  20.727  0.00  0.00    +0.000 N 
ATOM      7  C   UNL     1      -4.235  13.624  21.155  0.00  0.00    +0.000 A 
ATOM      8  O   UNL     1      -4.362  14.563  21.940  0.00  0.00    +0.000 OA
ENDROOT
BRANCH   3   9
ATOM      9  C   UNL     1      -4.090  10.776  17.832  0.00  0.00    +0.000 C 
ATOM     10  C   UNL     1      -4.044  11.538  16.497  0.00  0.00    +0.000 C 
ATOM     11  C   UNL     1      -3.076   9.615  17.760  0.00  0.00    +0.000 C 
ENDBRANCH   3   9
BRANCH   1  13
ATOM     12  C   UNL     1      -1.129  14.954  20.891  0.00  0.00    +0.000 C 
ATOM     13  C   UNL     1      -1.813  13.691  21.436  0.00  0.00    +0.000 C 
ENDBRANCH   1  13
BRANCH   2  14
ATOM     14  C   UNL     1      -1.570  12.066  18.835  0.00  0.00    +0.000 C 
ATOM     15  O   UNL     1      -1.224  12.715  17.843  0.00  0.00    +0.000 OA
BRANCH  14  16
ATOM     16  C   UNL     1      -0.587  11.027  19.246  0.00  0.00    +0.000 A 
ATOM     17  C   UNL     1      -0.650  10.599  20.601  0.00  0.00    +0.000 A 
ATOM     18  C   UNL     1       0.165   9.581  21.089  0.00  0.00    +0.000 A 
ATOM     19  C   UNL     1       0.059   9.144  22.532  0.00  0.00    +0.000 C 
ATOM     20  C   UNL     1       1.068   8.962  20.229  0.00  0.00    +0.000 A 
ATOM     21  C   UNL     1       1.143   9.368  18.883  0.00  0.00    +0.000 A 
ATOM     22  C   UNL     1       0.311  10.390  18.393  0.00  0.00    +0.000 A 
BRANCH  21  23
ATOM     23  C   UNL     1       2.072   8.723  18.005  0.00  0.00    +0.000 C 
ATOM     24  N   UNL     1       2.823   8.190  17.297  0.00  0.00    +0.000 NA
ENDBRANCH  21  23
ENDBRANCH  14  16
ENDBRANCH   2  14
BRANCH   6  25
ATOM     25  C   UNL     1      -6.593  13.134  21.404  0.00  0.00    +0.000 C 
BRANCH  25  26
ATOM     26  O   UNL     1      -6.682  12.216  22.496  0.00  0.00    +0.000 OA
BRANCH  26  27
ATOM     27  C   UNL     1      -6.789  12.788  23.723  0.00  0.00    +0.000 C 
ATOM     28  C   UNL     1      -5.546  12.545  24.524  0.00  0.00    +0.000 C 
ATOM     29  O   UNL     1      -7.755  13.405  24.149  0.00  0.00    +0.000 OA
ENDBRANCH  26  27
ENDBRANCH  25  26
ENDBRANCH   6  25
TORSDOF 8
ENDMDL
MODEL 5
REMARK VINA RESULT:      -6.2      2.899      6.586
REMARK  Name = 
REMARK  13 active torsions:
REMARK  status: ('A' for Active; 'I' for Inactive)
REMARK    1  A    between atoms: C_1  and  C_2
REMARK    2  A    between atoms: C_2  and  N_3
REMARK    3  A    between atoms: C_4  and  C_5
REMARK    4  A    between atoms: C_5  and  C_7
REMARK    5  A    between atoms: C_9  and  C_10
REMARK    6  A    between atoms: C_12  and  C_13
REMARK    7  A    between atoms: C_16  and  C_17
REMARK    8  A    between atoms: C_17  and  C_18
REMARK    9  A    between atoms: C_17  and  C_19
REMARK   10  A    between atoms: N_22  and  C_23
REMARK   11  A    between atoms: C_23  and  O_24
REMARK   12  A    between atoms: O_24  and  C_25
REMARK   13  A    between atoms: C_25  and  C_26
REMARK                            x       y       z     vdW  Elec       q    Type
REMARK                         _______ _______ _______ _____ _____    ______ ____
ROOT
ATOM      1  N   UNL     1      -1.194  11.250  19.620  0.00  0.00    +0.000 N 
ATOM      2  C   UNL     1      -1.690  11.980  20.726  0.00  0.00    +0.000 A 
ATOM      3  C   UNL     1      -1.237  11.725  21.988  0.00  0.00    +0.000 A 
ATOM      4  C   UNL     1      -0.237  10.627  22.141  0.00  0.00    +0.000 A 
ATOM      5  O   UNL     1       0.050  10.190  23.251  0.00  0.00    +0.000 OA
ATOM      6  N   UNL     1       0.356  10.147  21.006  0.00  0.00    +0.000 N 
ATOM      7  C   UNL     1      -0.030  10.484  19.736  0.00  0.00    +0.000 A 
ATOM      8  O   UNL     1       0.606  10.089  18.761  0.00  0.00    +0.000 OA
ENDROOT
BRANCH   3   9
ATOM      9  C   UNL     1      -1.687  12.374  23.322  0.00  0.00    +0.000 C 
ATOM     10  C   UNL     1      -1.401  13.885  23.335  0.00  0.00    +0.000 C 
ATOM     11  C   UNL     1      -3.147  12.155  23.773  0.00  0.00    +0.000 C 
ENDBRANCH   3   9
BRANCH   1  13
ATOM     12  C   UNL     1      -2.610  10.042  17.847  0.00  0.00    +0.000 C 
ATOM     13  C   UNL     1      -1.812  11.284  18.276  0.00  0.00    +0.000 C 
ENDBRANCH   1  13
BRANCH   2  14
ATOM     14  C   UNL     1      -2.805  13.023  20.611  0.00  0.00    +0.000 C 
ATOM     15  O   UNL     1      -2.531  14.217  20.455  0.00  0.00    +0.000 OA
BRANCH  14  16
ATOM     16  C   UNL     1      -4.266  12.742  20.648  0.00  0.00    +0.000 A 
ATOM     17  C   UNL     1      -4.852  12.283  19.437  0.00  0.00    +0.000 A 
ATOM     18  C   UNL     1      -6.193  11.915  19.361  0.00  0.00    +0.000 A 
ATOM     19  C   UNL     1      -6.776  11.419  18.058  0.00  0.00    +0.000 C 
ATOM     20  C   UNL     1      -6.985  11.998  20.503  0.00  0.00    +0.000 A 
ATOM     21  C   UNL     1      -6.423  12.447  21.714  0.00  0.00    +0.000 A 
ATOM     22  C   UNL     1      -5.066  12.807  21.786  0.00  0.00    +0.000 A 
BRANCH  21  23
ATOM     23  C   UNL     1      -7.246  12.525  22.883  0.00  0.00    +0.000 C 
ATOM     24  N   UNL     1      -7.916  12.578  23.830  0.00  0.00    +0.000 NA
ENDBRANCH  21  23
ENDBRANCH  14  16
ENDBRANCH   2  14
BRANCH   6  25
ATOM     25  C   UNL     1       1.370   9.121  21.165  0.00  0.00    +0.000 C 
BRANCH  25  26
ATOM     26  O   UNL     1       0.734   7.843  21.088  0.00  0.00    +0.000 OA
BRANCH  26  27
ATOM     27  C   UNL     1       1.496   6.850  20.561  0.00  0.00    +0.000 C 
ATOM     28  C   UNL     1       2.373   7.385  19.470  0.00  0.00    +0.000 C 
ATOM     29  O   UNL     1       1.480   5.675  20.896  0.00  0.00    +0.000 OA
ENDBRANCH  26  27
ENDBRANCH  25  26
ENDBRANCH   6  25
TORSDOF 8
ENDMDL
MODEL 6
REMARK VINA RESULT:      -6.1      5.937      9.509
REMARK  Name = 
REMARK  13 active torsions:
REMARK  status: ('A' for Active; 'I' for Inactive)
REMARK    1  A    between atoms: C_1  and  C_2
REMARK    2  A    between atoms: C_2  and  N_3
REMARK    3  A    between atoms: C_4  and  C_5
REMARK    4  A    between atoms: C_5  and  C_7
REMARK    5  A    between atoms: C_9  and  C_10
REMARK    6  A    between atoms: C_12  and  C_13
REMARK    7  A    between atoms: C_16  and  C_17
REMARK    8  A    between atoms: C_17  and  C_18
REMARK    9  A    between atoms: C_17  and  C_19
REMARK   10  A    between atoms: N_22  and  C_23
REMARK   11  A    between atoms: C_23  and  O_24
REMARK   12  A    between atoms: O_24  and  C_25
REMARK   13  A    between atoms: C_25  and  C_26
REMARK                            x       y       z     vdW  Elec       q    Type
REMARK                         _______ _______ _______ _____ _____    ______ ____
ROOT
ATOM      1  N   UNL     1       2.771   6.726  18.163  0.00  0.00    +0.000 N 
ATOM      2  C   UNL     1       2.725   5.317  18.292  0.00  0.00    +0.000 A 
ATOM      3  C   UNL     1       2.340   4.738  19.467  0.00  0.00    +0.000 A 
ATOM      4  C   UNL     1       2.014   5.654  20.600  0.00  0.00    +0.000 A 
ATOM      5  O   UNL     1       1.878   5.219  21.740  0.00  0.00    +0.000 OA
ATOM      6  N   UNL     1       1.855   6.983  20.316  0.00  0.00    +0.000 N 
ATOM      7  C   UNL     1       2.142   7.548  19.103  0.00  0.00    +0.000 A 
ATOM      8  O   UNL     1       1.888   8.732  18.886  0.00  0.00    +0.000 OA
ENDROOT
BRANCH   3   9
ATOM      9  C   UNL     1       2.271   3.230  19.820  0.00  0.00    +0.000 C 
ATOM     10  C   UNL     1       3.609   2.724  20.384  0.00  0.00    +0.000 C 
ATOM     11  C   UNL     1       1.141   2.762  20.761  0.00  0.00    +0.000 C 
ENDBRANCH   3   9
BRANCH   1  13
ATOM     12  C   UNL     1       4.930   7.671  17.136  0.00  0.00    +0.000 C 
ATOM     13  C   UNL     1       3.417   7.420  17.027  0.00  0.00    +0.000 C 
ENDBRANCH   1  13
BRANCH   2  14
ATOM     14  C   UNL     1       3.173   4.358  17.186  0.00  0.00    +0.000 C 
ATOM     15  O   UNL     1       2.388   3.520  16.730  0.00  0.00    +0.000 OA
BRANCH  14  16
ATOM     16  C   UNL     1       4.517   4.332  16.549  0.00  0.00    +0.000 A 
ATOM     17  C   UNL     1       5.632   4.467  17.422  0.00  0.00    +0.000 A 
ATOM     18  C   UNL     1       6.943   4.385  16.959  0.00  0.00    +0.000 A 
ATOM     19  C   UNL     1       8.102   4.519  17.920  0.00  0.00    +0.000 C 
ATOM     20  C   UNL     1       7.172   4.163  15.604  0.00  0.00    +0.000 A 
ATOM     21  C   UNL     1       6.081   4.023  14.724  0.00  0.00    +0.000 A 
ATOM     22  C   UNL     1       4.761   4.097  15.198  0.00  0.00    +0.000 A 
BRANCH  21  23
ATOM     23  C   UNL     1       6.328   3.793  13.332  0.00  0.00    +0.000 C 
ATOM     24  N   UNL     1       6.537   3.601  12.205  0.00  0.00    +0.000 NA
ENDBRANCH  21  23
ENDBRANCH  14  16
ENDBRANCH   2  14
BRANCH   6  25
ATOM     25  C   UNL     1       1.481   7.860  21.411  0.00  0.00    +0.000 C 
BRANCH  25  26
ATOM     26  O   UNL     1       0.090   8.163  21.291  0.00  0.00    +0.000 OA
BRANCH  26  27
ATOM     27  C   UNL     1      -0.258   9.427  21.643  0.00  0.00    +0.000 C 
ATOM     28  C   UNL     1      -0.219   9.587  23.132  0.00  0.00    +0.000 C 
ATOM     29  O   UNL     1      -0.578  10.325  20.878  0.00  0.00    +0.000 OA
ENDBRANCH  26  27
ENDBRANCH  25  26
ENDBRANCH   6  25
TORSDOF 8
ENDMDL
MODEL 7
REMARK VINA RESULT:      -6.1      7.742     10.807
REMARK  Name = 
REMARK  13 active torsions:
REMARK  status: ('A' for Active; 'I' for Inactive)
REMARK    1  A    between atoms: C_1  and  C_2
REMARK    2  A    between atoms: C_2  and  N_3
REMARK    3  A    between atoms: C_4  and  C_5
REMARK    4  A    between atoms: C_5  and  C_7
REMARK    5  A    between atoms: C_9  and  C_10
REMARK    6  A    between atoms: C_12  and  C_13
REMARK    7  A    between atoms: C_16  and  C_17
REMARK    8  A    between atoms: C_17  and  C_18
REMARK    9  A    between atoms: C_17  and  C_19
REMARK   10  A    between atoms: N_22  and  C_23
REMARK   11  A    between atoms: C_23  and  O_24
REMARK   12  A    between atoms: O_24  and  C_25
REMARK   13  A    between atoms: C_25  and  C_26
REMARK                            x       y       z     vdW  Elec       q    Type
REMARK                         _______ _______ _______ _____ _____    ______ ____
ROOT
ATOM      1  N   UNL     1       3.167   5.771  17.933  0.00  0.00    +0.000 N 
ATOM      2  C   UNL     1       4.259   5.503  17.071  0.00  0.00    +0.000 A 
ATOM      3  C   UNL     1       4.508   4.232  16.639  0.00  0.00    +0.000 A 
ATOM      4  C   UNL     1       3.608   3.154  17.144  0.00  0.00    +0.000 A 
ATOM      5  O   UNL     1       3.894   1.971  16.984  0.00  0.00    +0.000 OA
ATOM      6  N   UNL     1       2.452   3.534  17.769  0.00  0.00    +0.000 N 
ATOM      7  C   UNL     1       2.152   4.825  18.111  0.00  0.00    +0.000 A 
ATOM      8  O   UNL     1       1.055   5.111  18.588  0.00  0.00    +0.000 OA
ENDROOT
BRANCH   3   9
ATOM      9  C   UNL     1       5.669   3.732  15.741  0.00  0.00    +0.000 C 
ATOM     10  C   UNL     1       5.449   4.121  14.270  0.00  0.00    +0.000 C 
ATOM     11  C   UNL     1       7.107   4.129  16.137  0.00  0.00    +0.000 C 
ENDBRANCH   3   9
BRANCH   1  13
ATOM     12  C   UNL     1       2.362   8.210  17.848  0.00  0.00    +0.000 C 
ATOM     13  C   UNL     1       2.986   7.055  18.646  0.00  0.00    +0.000 C 
ENDBRANCH   1  13
BRANCH   2  14
ATOM     14  C   UNL     1       5.268   6.570  16.640  0.00  0.00    +0.000 C 
ATOM     15  O   UNL     1       5.172   7.109  15.534  0.00  0.00    +0.000 OA
BRANCH  14  16
ATOM     16  C   UNL     1       6.405   7.073  17.457  0.00  0.00    +0.000 A 
ATOM     17  C   UNL     1       6.973   6.154  18.382  0.00  0.00    +0.000 A 
ATOM     18  C   UNL     1       8.087   6.478  19.152  0.00  0.00    +0.000 A 
ATOM     19  C   UNL     1       8.671   5.469  20.114  0.00  0.00    +0.000 C 
ATOM     20  C   UNL     1       8.664   7.737  19.014  0.00  0.00    +0.000 A 
ATOM     21  C   UNL     1       8.120   8.660  18.101  0.00  0.00    +0.000 A 
ATOM     22  C   UNL     1       7.001   8.324  17.319  0.00  0.00    +0.000 A 
BRANCH  21  23
ATOM     23  C   UNL     1       8.723   9.952  17.964  0.00  0.00    +0.000 C 
ATOM     24  N   UNL     1       9.214  11.000  17.863  0.00  0.00    +0.000 NA
ENDBRANCH  21  23
ENDBRANCH  14  16
ENDBRANCH   2  14
BRANCH   6  25
ATOM     25  C   UNL     1       1.553   2.482  18.207  0.00  0.00    +0.000 C 
BRANCH  25  26
ATOM     26  O   UNL     1       2.194   1.747  19.252  0.00  0.00    +0.000 OA
BRANCH  26  27
ATOM     27  C   UNL     1       2.477   2.462  20.371  0.00  0.00    +0.000 C 
ATOM     28  C   UNL     1       1.221   2.772  21.127  0.00  0.00    +0.000 C 
ATOM     29  O   UNL     1       3.587   2.830  20.728  0.00  0.00    +0.000 OA
ENDBRANCH  26  27
ENDBRANCH  25  26
ENDBRANCH   6  25
TORSDOF 8
ENDMDL
MODEL 8
REMARK VINA RESULT:      -6.1      3.549      7.605
REMARK  Name = 
REMARK  13 active torsions:
REMARK  status: ('A' for Active; 'I' for Inactive)
REMARK    1  A    between atoms: C_1  and  C_2
REMARK    2  A    between atoms: C_2  and  N_3
REMARK    3  A    between atoms: C_4  and  C_5
REMARK    4  A    between atoms: C_5  and  C_7
REMARK    5  A    between atoms: C_9  and  C_10
REMARK    6  A    between atoms: C_12  and  C_13
REMARK    7  A    between atoms: C_16  and  C_17
REMARK    8  A    between atoms: C_17  and  C_18
REMARK    9  A    between atoms: C_17  and  C_19
REMARK   10  A    between atoms: N_22  and  C_23
REMARK   11  A    between atoms: C_23  and  O_24
REMARK   12  A    between atoms: O_24  and  C_25
REMARK   13  A    between atoms: C_25  and  C_26
REMARK                            x       y       z     vdW  Elec       q    Type
REMARK                         _______ _______ _______ _____ _____    ______ ____
ROOT
ATOM      1  N   UNL     1       1.322  11.419  18.653  0.00  0.00    +0.000 N 
ATOM      2  C   UNL     1       0.104  11.583  19.356  0.00  0.00    +0.000 A 
ATOM      3  C   UNL     1      -0.040  12.584  20.273  0.00  0.00    +0.000 A 
ATOM      4  C   UNL     1       1.146  13.456  20.518  0.00  0.00    +0.000 A 
ATOM      5  O   UNL     1       1.172  14.227  21.474  0.00  0.00    +0.000 OA
ATOM      6  N   UNL     1       2.185  13.378  19.632  0.00  0.00    +0.000 N 
ATOM      7  C   UNL     1       2.282  12.437  18.643  0.00  0.00    +0.000 A 
ATOM      8  O   UNL     1       3.197  12.479  17.822  0.00  0.00    +0.000 OA
ENDROOT
BRANCH   3   9
ATOM      9  C   UNL     1      -1.264  12.896  21.171  0.00  0.00    +0.000 C 
ATOM     10  C   UNL     1      -0.994  12.523  22.638  0.00  0.00    +0.000 C 
ATOM     11  C   UNL     1      -1.837  14.329  21.135  0.00  0.00    +0.000 C 
ENDBRANCH   3   9
BRANCH   1  13
ATOM     12  C   UNL     1       1.930   8.922  18.619  0.00  0.00    +0.000 C 
ATOM     13  C   UNL     1       1.645  10.220  17.848  0.00  0.00    +0.000 C 
ENDBRANCH   1  13
BRANCH   2  14
ATOM     14  C   UNL     1      -1.082  10.627  19.212  0.00  0.00    +0.000 C 
ATOM     15  O   UNL     1      -1.214   9.674  19.986  0.00  0.00    +0.000 OA
BRANCH  14  16
ATOM     16  C   UNL     1      -2.167  10.733  18.200  0.00  0.00    +0.000 A 
ATOM     17  C   UNL     1      -3.361  11.384  18.619  0.00  0.00    +0.000 A 
ATOM     18  C   UNL     1      -4.421  11.612  17.745  0.00  0.00    +0.000 A 
ATOM     19  C   UNL     1      -5.667  12.320  18.225  0.00  0.00    +0.000 C 
ATOM     20  C   UNL     1      -4.311  11.194  16.422  0.00  0.00    +0.000 A 
ATOM     21  C   UNL     1      -3.137  10.551  15.986  0.00  0.00    +0.000 A 
ATOM     22  C   UNL     1      -2.066  10.332  16.870  0.00  0.00    +0.000 A 
BRANCH  21  23
ATOM     23  C   UNL     1      -3.033  10.127  14.622  0.00  0.00    +0.000 C 
ATOM     24  N   UNL     1      -2.954   9.775  13.518  0.00  0.00    +0.000 NA
ENDBRANCH  21  23
ENDBRANCH  14  16
ENDBRANCH   2  14
BRANCH   6  25
ATOM     25  C   UNL     1       3.311  14.270  19.843  0.00  0.00    +0.000 C 
BRANCH  25  26
ATOM     26  O   UNL     1       3.147  15.411  18.999  0.00  0.00    +0.000 OA
BRANCH  26  27
ATOM     27  C   UNL     1       4.286  16.098  18.729  0.00  0.00    +0.000 C 
ATOM     28  C   UNL     1       5.282  15.214  18.042  0.00  0.00    +0.000 C 
ATOM     29  O   UNL     1       4.504  17.268  19.009  0.00  0.00    +0.000 OA
ENDBRANCH  26  27
ENDBRANCH  25  26
ENDBRANCH   6  25
TORSDOF 8
ENDMDL
MODEL 9
REMARK VINA RESULT:      -6.0      1.393      3.648
REMARK  Name = 
REMARK  13 active torsions:
REMARK  status: ('A' for Active; 'I' for Inactive)
REMARK    1  A    between atoms: C_1  and  C_2
REMARK    2  A    between atoms: C_2  and  N_3
REMARK    3  A    between atoms: C_4  and  C_5
REMARK    4  A    between atoms: C_5  and  C_7
REMARK    5  A    between atoms: C_9  and  C_10
REMARK    6  A    between atoms: C_12  and  C_13
REMARK    7  A    between atoms: C_16  and  C_17
REMARK    8  A    between atoms: C_17  and  C_18
REMARK    9  A    between atoms: C_17  and  C_19
REMARK   10  A    between atoms: N_22  and  C_23
REMARK   11  A    between atoms: C_23  and  O_24
REMARK   12  A    between atoms: O_24  and  C_25
REMARK   13  A    between atoms: C_25  and  C_26
REMARK                            x       y       z     vdW  Elec       q    Type
REMARK                         _______ _______ _______ _____ _____    ______ ____
ROOT
ATOM      1  N   UNL     1      -3.606  13.031  20.257  0.00  0.00    +0.000 N 
ATOM      2  C   UNL     1      -2.919  12.369  19.212  0.00  0.00    +0.000 A 
ATOM      3  C   UNL     1      -3.608  11.729  18.222  0.00  0.00    +0.000 A 
ATOM      4  C   UNL     1      -5.097  11.731  18.322  0.00  0.00    +0.000 A 
ATOM      5  O   UNL     1      -5.775  10.999  17.606  0.00  0.00    +0.000 OA
ATOM      6  N   UNL     1      -5.672  12.588  19.220  0.00  0.00    +0.000 N 
ATOM      7  C   UNL     1      -4.972  13.312  20.146  0.00  0.00    +0.000 A 
ATOM      8  O   UNL     1      -5.541  14.135  20.862  0.00  0.00    +0.000 OA
ENDROOT
BRANCH   3   9
ATOM      9  C   UNL     1      -3.045  10.914  17.030  0.00  0.00    +0.000 C 
ATOM     10  C   UNL     1      -3.050   9.406  17.328  0.00  0.00    +0.000 C 
ATOM     11  C   UNL     1      -3.683  11.135  15.642  0.00  0.00    +0.000 C 
ENDBRANCH   3   9
BRANCH   1  13
ATOM     12  C   UNL     1      -3.119  12.660  22.754  0.00  0.00    +0.000 C 
ATOM     13  C   UNL     1      -2.945  13.516  21.489  0.00  0.00    +0.000 C 
ENDBRANCH   1  13
BRANCH   2  14
ATOM     14  C   UNL     1      -1.394  12.247  19.156  0.00  0.00    +0.000 C 
ATOM     15  O   UNL     1      -0.718  13.116  18.599  0.00  0.00    +0.000 OA
BRANCH  14  16
ATOM     16  C   UNL     1      -0.587  11.145  19.747  0.00  0.00    +0.000 A 
ATOM     17  C   UNL     1       0.212  10.392  18.844  0.00  0.00    +0.000 A 
ATOM     18  C   UNL     1       1.067   9.383  19.282  0.00  0.00    +0.000 A 
ATOM     19  C   UNL     1       1.911   8.615  18.292  0.00  0.00    +0.000 C 
ATOM     20  C   UNL     1       1.144   9.104  20.643  0.00  0.00    +0.000 A 
ATOM     21  C   UNL     1       0.364   9.840  21.555  0.00  0.00    +0.000 A 
ATOM     22  C   UNL     1      -0.490  10.863  21.108  0.00  0.00    +0.000 A 
BRANCH  21  23
ATOM     23  C   UNL     1       0.454   9.546  22.953  0.00  0.00    +0.000 C 
ATOM     24  N   UNL     1       0.532   9.316  24.090  0.00  0.00    +0.000 NA
ENDBRANCH  21  23
ENDBRANCH  14  16
ENDBRANCH   2  14
BRANCH   6  25
ATOM     25  C   UNL     1      -7.122  12.628  19.271  0.00  0.00    +0.000 C 
BRANCH  25  26
ATOM     26  O   UNL     1      -7.550  13.948  18.930  0.00  0.00    +0.000 OA
BRANCH  26  27
ATOM     27  C   UNL     1      -7.368  14.296  17.630  0.00  0.00    +0.000 C 
ATOM     28  C   UNL     1      -6.869  15.706  17.529  0.00  0.00    +0.000 C 
ATOM     29  O   UNL     1      -7.587  13.588  16.658  0.00  0.00    +0.000 OA
ENDBRANCH  26  27
ENDBRANCH  25  26
ENDBRANCH   6  25
TORSDOF 8
ENDMDL
