MODEL 1
REMARK VINA RESULT:      -7.3      0.000      0.000
REMARK  Name = 
REMARK  7 active torsions:
REMARK  status: ('A' for Active; 'I' for Inactive)
REMARK    1  A    between atoms: C_1  and  C_2
REMARK    2  A    between atoms: C_5  and  N_6
REMARK    3  A    between atoms: N_11  and  C_12
REMARK    4  A    between atoms: C_12  and  C_13
REMARK    5  A    between atoms: C_13  and  C_14
REMARK    6  A    between atoms: C_14  and  N_15
REMARK    7  A    between atoms: C_24  and  C_25
REMARK                            x       y       z     vdW  Elec       q    Type
REMARK                         _______ _______ _______ _____ _____    ______ ____
ROOT
ATOM      1  N   UNL     1       1.349  10.005  18.793  0.00  0.00    +0.000 N 
ATOM      2  N   UNL     1       1.990   9.867  17.595  0.00  0.00    +0.000 NA
ATOM      3  C   UNL     1       2.456   8.624  17.602  0.00  0.00    +0.000 A 
ATOM      4  C   UNL     1       2.193   7.947  18.805  0.00  0.00    +0.000 A 
ATOM      5  C   UNL     1       2.387   6.663  19.318  0.00  0.00    +0.000 A 
ATOM      6  N   UNL     1       3.060   5.687  18.617  0.00  0.00    +0.000 N 
ATOM      7  N   UNL     1       1.872   6.389  20.535  0.00  0.00    +0.000 NA
ATOM      8  C   UNL     1       1.246   7.367  21.213  0.00  0.00    +0.000 A 
ATOM      9  N   UNL     1       1.008   8.624  20.812  0.00  0.00    +0.000 NA
ATOM     10  C   UNL     1       1.498   8.863  19.578  0.00  0.00    +0.000 A 
ATOM     11  H   UNL     1       3.804   5.961  17.990  0.00  0.00    +0.000 HD
ENDROOT
BRANCH   1  16
ATOM     12  C   UNL     1      -1.202  15.002  20.017  0.00  0.00    +0.000 C 
ATOM     13  C   UNL     1      -0.539  13.694  19.708  0.00  0.00    +0.000 A 
ATOM     14  C   UNL     1       0.787  13.452  20.066  0.00  0.00    +0.000 A 
ATOM     15  C   UNL     1       1.379  12.223  19.784  0.00  0.00    +0.000 A 
ATOM     16  C   UNL     1       0.663  11.213  19.114  0.00  0.00    +0.000 A 
ATOM     17  C   UNL     1      -0.685  11.423  18.765  0.00  0.00    +0.000 A 
ATOM     18  C   UNL     1      -1.615  10.405  18.155  0.00  0.00    +0.000 C 
ATOM     19  C   UNL     1      -1.262  12.677  19.063  0.00  0.00    +0.000 A 
ENDBRANCH   1  16
BRANCH   6  20
ATOM     20  C   UNL     1       2.722   4.290  18.784  0.00  0.00    +0.000 C 
BRANCH  20  21
ATOM     21  C   UNL     1       3.935   3.399  18.508  0.00  0.00    +0.000 C 
BRANCH  21  22
ATOM     22  C   UNL     1       5.257   4.132  18.723  0.00  0.00    +0.000 C 
BRANCH  22  23
ATOM     23  N   UNL     1       6.012   4.282  17.498  0.00  0.00    +0.000 N 
ATOM     24  C   UNL     1       5.543   4.096  16.229  0.00  0.00    +0.000 A 
ATOM     25  C   UNL     1       6.628   4.329  15.416  0.00  0.00    +0.000 A 
ATOM     26  N   UNL     1       7.737   4.639  16.159  0.00  0.00    +0.000 NA
ATOM     27  C   UNL     1       7.337   4.600  17.412  0.00  0.00    +0.000 A 
ENDBRANCH  22  23
ENDBRANCH  21  22
ENDBRANCH  20  21
ENDBRANCH   6  20
TORSDOF 5
ENDMDL
MODEL 2
REMARK VINA RESULT:      -7.1      1.849      3.246
REMARK  Name = 
REMARK  7 active torsions:
REMARK  status: ('A' for Active; 'I' for Inactive)
REMARK    1  A    between atoms: C_1  and  C_2
REMARK    2  A    between atoms: C_5  and  N_6
REMARK    3  A    between atoms: N_11  and  C_12
REMARK    4  A    between atoms: C_12  and  C_13
REMARK    5  A    between atoms: C_13  and  C_14
REMARK    6  A    between atoms: C_14  and  N_15
REMARK    7  A    between atoms: C_24  and  C_25
REMARK                            x       y       z     vdW  Elec       q    Type
REMARK                         _______ _______ _______ _____ _____    ______ ____
ROOT
ATOM      1  N   UNL     1       1.240   9.503  18.919  0.00  0.00    +0.000 N 
ATOM      2  N   UNL     1       1.812   9.783  17.711  0.00  0.00    +0.000 NA
ATOM      3  C   UNL     1       2.569   8.726  17.442  0.00  0.00    +0.000 A 
ATOM      4  C   UNL     1       2.563   7.772  18.474  0.00  0.00    +0.000 A 
ATOM      5  C   UNL     1       3.102   6.503  18.693  0.00  0.00    +0.000 A 
ATOM      6  N   UNL     1       3.945   5.897  17.788  0.00  0.00    +0.000 N 
ATOM      7  N   UNL     1       2.755   5.862  19.829  0.00  0.00    +0.000 NA
ATOM      8  C   UNL     1       1.955   6.486  20.711  0.00  0.00    +0.000 A 
ATOM      9  N   UNL     1       1.389   7.696  20.595  0.00  0.00    +0.000 NA
ATOM     10  C   UNL     1       1.720   8.301  19.437  0.00  0.00    +0.000 A 
ATOM     11  H   UNL     1       4.553   6.474  17.225  0.00  0.00    +0.000 HD
ENDROOT
BRANCH   1  16
ATOM     12  C   UNL     1      -2.342  13.290  21.328  0.00  0.00    +0.000 C 
ATOM     13  C   UNL     1      -1.412  12.293  20.706  0.00  0.00    +0.000 A 
ATOM     14  C   UNL     1      -0.182  11.988  21.290  0.00  0.00    +0.000 A 
ATOM     15  C   UNL     1       0.661  11.047  20.704  0.00  0.00    +0.000 A 
ATOM     16  C   UNL     1       0.303  10.404  19.504  0.00  0.00    +0.000 A 
ATOM     17  C   UNL     1      -0.944  10.676  18.908  0.00  0.00    +0.000 A 
ATOM     18  C   UNL     1      -1.520   9.987  17.697  0.00  0.00    +0.000 C 
ATOM     19  C   UNL     1      -1.781  11.633  19.523  0.00  0.00    +0.000 A 
ENDBRANCH   1  16
BRANCH   6  20
ATOM     20  C   UNL     1       3.972   4.456  17.653  0.00  0.00    +0.000 C 
BRANCH  20  21
ATOM     21  C   UNL     1       2.577   3.912  17.335  0.00  0.00    +0.000 C 
BRANCH  21  22
ATOM     22  C   UNL     1       2.327   2.546  17.968  0.00  0.00    +0.000 C 
BRANCH  22  23
ATOM     23  N   UNL     1       2.171   2.623  19.405  0.00  0.00    +0.000 N 
ATOM     24  C   UNL     1       3.157   2.469  20.337  0.00  0.00    +0.000 A 
ATOM     25  C   UNL     1       2.519   2.603  21.548  0.00  0.00    +0.000 A 
ATOM     26  N   UNL     1       1.178   2.821  21.373  0.00  0.00    +0.000 NA
ATOM     27  C   UNL     1       0.995   2.825  20.069  0.00  0.00    +0.000 A 
ENDBRANCH  22  23
ENDBRANCH  21  22
ENDBRANCH  20  21
ENDBRANCH   6  20
TORSDOF 5
ENDMDL
MODEL 3
REMARK VINA RESULT:      -7.1      2.744      4.562
REMARK  Name = 
REMARK  7 active torsions:
REMARK  status: ('A' for Active; 'I' for Inactive)
REMARK    1  A    between atoms: C_1  and  C_2
REMARK    2  A    between atoms: C_5  and  N_6
REMARK    3  A    between atoms: N_11  and  C_12
REMARK    4  A    between atoms: C_12  and  C_13
REMARK    5  A    between atoms: C_13  and  C_14
REMARK    6  A    between atoms: C_14  and  N_15
REMARK    7  A    between atoms: C_24  and  C_25
REMARK                            x       y       z     vdW  Elec       q    Type
REMARK                         _______ _______ _______ _____ _____    ______ ____
ROOT
ATOM      1  N   UNL     1      -0.497  11.138  22.074  0.00  0.00    +0.000 N 
ATOM      2  N   UNL     1       0.253  10.305  22.854  0.00  0.00    +0.000 NA
ATOM      3  C   UNL     1       0.890   9.519  21.994  0.00  0.00    +0.000 A 
ATOM      4  C   UNL     1       0.535   9.769  20.657  0.00  0.00    +0.000 A 
ATOM      5  C   UNL     1       0.918   9.308  19.396  0.00  0.00    +0.000 A 
ATOM      6  N   UNL     1       1.831   8.289  19.234  0.00  0.00    +0.000 N 
ATOM      7  N   UNL     1       0.375   9.909  18.317  0.00  0.00    +0.000 NA
ATOM      8  C   UNL     1      -0.537  10.880  18.502  0.00  0.00    +0.000 A 
ATOM      9  N   UNL     1      -0.969  11.392  19.663  0.00  0.00    +0.000 NA
ATOM     10  C   UNL     1      -0.386  10.802  20.726  0.00  0.00    +0.000 A 
ATOM     11  H   UNL     1       1.882   7.563  19.934  0.00  0.00    +0.000 HD
ENDROOT
BRANCH   1  16
ATOM     12  C   UNL     1      -3.708  15.149  24.640  0.00  0.00    +0.000 C 
ATOM     13  C   UNL     1      -2.875  14.104  23.960  0.00  0.00    +0.000 A 
ATOM     14  C   UNL     1      -3.293  12.774  23.897  0.00  0.00    +0.000 A 
ATOM     15  C   UNL     1      -2.512  11.821  23.247  0.00  0.00    +0.000 A 
ATOM     16  C   UNL     1      -1.281  12.173  22.663  0.00  0.00    +0.000 A 
ATOM     17  C   UNL     1      -0.850  13.514  22.690  0.00  0.00    +0.000 A 
ATOM     18  C   UNL     1       0.377  14.067  22.010  0.00  0.00    +0.000 C 
ATOM     19  C   UNL     1      -1.660  14.460  23.354  0.00  0.00    +0.000 A 
ENDBRANCH   1  16
BRANCH   6  20
ATOM     20  C   UNL     1       2.693   8.248  18.072  0.00  0.00    +0.000 C 
BRANCH  20  21
ATOM     21  C   UNL     1       3.222   6.831  17.836  0.00  0.00    +0.000 C 
BRANCH  21  22
ATOM     22  C   UNL     1       2.978   5.913  19.031  0.00  0.00    +0.000 C 
BRANCH  22  23
ATOM     23  N   UNL     1       2.387   4.649  18.645  0.00  0.00    +0.000 N 
ATOM     24  C   UNL     1       1.373   3.999  19.287  0.00  0.00    +0.000 A 
ATOM     25  C   UNL     1       1.183   2.844  18.565  0.00  0.00    +0.000 A 
ATOM     26  N   UNL     1       2.060   2.776  17.513  0.00  0.00    +0.000 NA
ATOM     27  C   UNL     1       2.777   3.877  17.588  0.00  0.00    +0.000 A 
ENDBRANCH  22  23
ENDBRANCH  21  22
ENDBRANCH  20  21
ENDBRANCH   6  20
TORSDOF 5
ENDMDL
MODEL 4
REMARK VINA RESULT:      -7.1      2.572      9.117
REMARK  Name = 
REMARK  7 active torsions:
REMARK  status: ('A' for Active; 'I' for Inactive)
REMARK    1  A    between atoms: C_1  and  C_2
REMARK    2  A    between atoms: C_5  and  N_6
REMARK    3  A    between atoms: N_11  and  C_12
REMARK    4  A    between atoms: C_12  and  C_13
REMARK    5  A    between atoms: C_13  and  C_14
REMARK    6  A    between atoms: C_14  and  N_15
REMARK    7  A    between atoms: C_24  and  C_25
REMARK                            x       y       z     vdW  Elec       q    Type
REMARK                         _______ _______ _______ _____ _____    ______ ____
ROOT
ATOM      1  N   UNL     1       3.443   6.038  18.429  0.00  0.00    +0.000 N 
ATOM      2  N   UNL     1       3.430   5.338  19.602  0.00  0.00    +0.000 NA
ATOM      3  C   UNL     1       2.684   6.068  20.423  0.00  0.00    +0.000 A 
ATOM      4  C   UNL     1       2.247   7.270  19.842  0.00  0.00    +0.000 A 
ATOM      5  C   UNL     1       1.425   8.339  20.204  0.00  0.00    +0.000 A 
ATOM      6  N   UNL     1       0.858   8.437  21.456  0.00  0.00    +0.000 N 
ATOM      7  N   UNL     1       1.178   9.284  19.273  0.00  0.00    +0.000 NA
ATOM      8  C   UNL     1       1.767   9.182  18.068  0.00  0.00    +0.000 A 
ATOM      9  N   UNL     1       2.567   8.202  17.625  0.00  0.00    +0.000 NA
ATOM     10  C   UNL     1       2.769   7.251  18.559  0.00  0.00    +0.000 A 
ATOM     11  H   UNL     1       1.355   8.057  22.248  0.00  0.00    +0.000 HD
ENDROOT
BRANCH   1  16
ATOM     12  C   UNL     1       6.338   4.081  13.872  0.00  0.00    +0.000 C 
ATOM     13  C   UNL     1       5.573   4.595  15.055  0.00  0.00    +0.000 A 
ATOM     14  C   UNL     1       5.634   5.937  15.428  0.00  0.00    +0.000 A 
ATOM     15  C   UNL     1       4.903   6.397  16.521  0.00  0.00    +0.000 A 
ATOM     16  C   UNL     1       4.110   5.518  17.282  0.00  0.00    +0.000 A 
ATOM     17  C   UNL     1       4.012   4.163  16.910  0.00  0.00    +0.000 A 
ATOM     18  C   UNL     1       3.119   3.128  17.546  0.00  0.00    +0.000 C 
ATOM     19  C   UNL     1       4.762   3.722  15.798  0.00  0.00    +0.000 A 
ENDBRANCH   1  16
BRANCH   6  20
ATOM     20  C   UNL     1      -0.422   9.088  21.638  0.00  0.00    +0.000 C 
BRANCH  20  21
ATOM     21  C   UNL     1      -0.371  10.071  22.811  0.00  0.00    +0.000 C 
BRANCH  21  22
ATOM     22  C   UNL     1      -0.524  11.522  22.363  0.00  0.00    +0.000 C 
BRANCH  22  23
ATOM     23  N   UNL     1      -1.906  11.953  22.348  0.00  0.00    +0.000 N 
ATOM     24  C   UNL     1      -2.570  12.509  21.293  0.00  0.00    +0.000 A 
ATOM     25  C   UNL     1      -3.834  12.768  21.771  0.00  0.00    +0.000 A 
ATOM     26  N   UNL     1      -3.945  12.394  23.085  0.00  0.00    +0.000 NA
ATOM     27  C   UNL     1      -2.765  11.909  23.408  0.00  0.00    +0.000 A 
ENDBRANCH  22  23
ENDBRANCH  21  22
ENDBRANCH  20  21
ENDBRANCH   6  20
TORSDOF 5
ENDMDL
MODEL 5
REMARK VINA RESULT:      -7.0      1.923      2.638
REMARK  Name = 
REMARK  7 active torsions:
REMARK  status: ('A' for Active; 'I' for Inactive)
REMARK    1  A    between atoms: C_1  and  C_2
REMARK    2  A    between atoms: C_5  and  N_6
REMARK    3  A    between atoms: N_11  and  C_12
REMARK    4  A    between atoms: C_12  and  C_13
REMARK    5  A    between atoms: C_13  and  C_14
REMARK    6  A    between atoms: C_14  and  N_15
REMARK    7  A    between atoms: C_24  and  C_25
REMARK                            x       y       z     vdW  Elec       q    Type
REMARK                         _______ _______ _______ _____ _____    ______ ____
ROOT
ATOM      1  N   UNL     1       1.534   8.726  19.492  0.00  0.00    +0.000 N 
ATOM      2  N   UNL     1       1.992   9.335  18.359  0.00  0.00    +0.000 NA
ATOM      3  C   UNL     1       2.709   8.404  17.741  0.00  0.00    +0.000 A 
ATOM      4  C   UNL     1       2.791   7.204  18.468  0.00  0.00    +0.000 A 
ATOM      5  C   UNL     1       3.335   5.932  18.280  0.00  0.00    +0.000 A 
ATOM      6  N   UNL     1       4.082   5.610  17.168  0.00  0.00    +0.000 N 
ATOM      7  N   UNL     1       3.091   4.999  19.225  0.00  0.00    +0.000 NA
ATOM      8  C   UNL     1       2.385   5.346  20.315  0.00  0.00    +0.000 A 
ATOM      9  N   UNL     1       1.823   6.532  20.589  0.00  0.00    +0.000 NA
ATOM     10  C   UNL     1       2.048   7.436  19.614  0.00  0.00    +0.000 A 
ATOM     11  H   UNL     1       4.640   6.329  16.730  0.00  0.00    +0.000 HD
ENDROOT
BRANCH   1  16
ATOM     12  C   UNL     1      -1.760  11.573  23.237  0.00  0.00    +0.000 C 
ATOM     13  C   UNL     1      -0.907  10.821  22.260  0.00  0.00    +0.000 A 
ATOM     14  C   UNL     1       0.130   9.994  22.692  0.00  0.00    +0.000 A 
ATOM     15  C   UNL     1       0.901   9.291  21.769  0.00  0.00    +0.000 A 
ATOM     16  C   UNL     1       0.666   9.418  20.387  0.00  0.00    +0.000 A 
ATOM     17  C   UNL     1      -0.392  10.226  19.927  0.00  0.00    +0.000 A 
ATOM     18  C   UNL     1      -0.844  10.370  18.496  0.00  0.00    +0.000 C 
ATOM     19  C   UNL     1      -1.159  10.927  20.883  0.00  0.00    +0.000 A 
ENDBRANCH   1  16
BRANCH   6  20
ATOM     20  C   UNL     1       4.082   4.262  16.643  0.00  0.00    +0.000 C 
BRANCH  20  21
ATOM     21  C   UNL     1       5.496   3.833  16.242  0.00  0.00    +0.000 C 
BRANCH  21  22
ATOM     22  C   UNL     1       6.394   5.024  15.914  0.00  0.00    +0.000 C 
BRANCH  22  23
ATOM     23  N   UNL     1       7.067   5.547  17.084  0.00  0.00    +0.000 N 
ATOM     24  C   UNL     1       7.447   4.836  18.186  0.00  0.00    +0.000 A 
ATOM     25  C   UNL     1       8.017   5.767  19.024  0.00  0.00    +0.000 A 
ATOM     26  N   UNL     1       7.982   7.016  18.462  0.00  0.00    +0.000 NA
ATOM     27  C   UNL     1       7.400   6.854  17.293  0.00  0.00    +0.000 A 
ENDBRANCH  22  23
ENDBRANCH  21  22
ENDBRANCH  20  21
ENDBRANCH   6  20
TORSDOF 5
ENDMDL
MODEL 6
REMARK VINA RESULT:      -7.0      1.932      8.312
REMARK  Name = 
REMARK  7 active torsions:
REMARK  status: ('A' for Active; 'I' for Inactive)
REMARK    1  A    between atoms: C_1  and  C_2
REMARK    2  A    between atoms: C_5  and  N_6
REMARK    3  A    between atoms: N_11  and  C_12
REMARK    4  A    between atoms: C_12  and  C_13
REMARK    5  A    between atoms: C_13  and  C_14
REMARK    6  A    between atoms: C_14  and  N_15
REMARK    7  A    between atoms: C_24  and  C_25
REMARK                            x       y       z     vdW  Elec       q    Type
REMARK                         _______ _______ _______ _____ _____    ______ ____
ROOT
ATOM      1  N   UNL     1       3.400   5.974  18.534  0.00  0.00    +0.000 N 
ATOM      2  N   UNL     1       3.379   5.238  19.685  0.00  0.00    +0.000 NA
ATOM      3  C   UNL     1       2.631   5.944  20.524  0.00  0.00    +0.000 A 
ATOM      4  C   UNL     1       2.202   7.166  19.980  0.00  0.00    +0.000 A 
ATOM      5  C   UNL     1       1.382   8.226  20.371  0.00  0.00    +0.000 A 
ATOM      6  N   UNL     1       0.810   8.288  21.622  0.00  0.00    +0.000 N 
ATOM      7  N   UNL     1       1.143   9.202  19.469  0.00  0.00    +0.000 NA
ATOM      8  C   UNL     1       1.738   9.135  18.265  0.00  0.00    +0.000 A 
ATOM      9  N   UNL     1       2.537   8.166  17.795  0.00  0.00    +0.000 NA
ATOM     10  C   UNL     1       2.730   7.185  18.699  0.00  0.00    +0.000 A 
ATOM     11  H   UNL     1       1.302   7.881  22.405  0.00  0.00    +0.000 HD
ENDROOT
BRANCH   1  16
ATOM     12  C   UNL     1       6.315   4.136  13.941  0.00  0.00    +0.000 C 
ATOM     13  C   UNL     1       5.546   4.619  15.133  0.00  0.00    +0.000 A 
ATOM     14  C   UNL     1       5.674   5.929  15.594  0.00  0.00    +0.000 A 
ATOM     15  C   UNL     1       4.939   6.363  16.694  0.00  0.00    +0.000 A 
ATOM     16  C   UNL     1       4.071   5.487  17.374  0.00  0.00    +0.000 A 
ATOM     17  C   UNL     1       3.904   4.168  16.912  0.00  0.00    +0.000 A 
ATOM     18  C   UNL     1       2.930   3.152  17.454  0.00  0.00    +0.000 C 
ATOM     19  C   UNL     1       4.660   3.753  15.794  0.00  0.00    +0.000 A 
ENDBRANCH   1  16
BRANCH   6  20
ATOM     20  C   UNL     1      -0.468   8.938  21.819  0.00  0.00    +0.000 C 
BRANCH  20  21
ATOM     21  C   UNL     1      -0.343  10.095  22.814  0.00  0.00    +0.000 C 
BRANCH  21  22
ATOM     22  C   UNL     1      -1.089  11.344  22.351  0.00  0.00    +0.000 C 
BRANCH  22  23
ATOM     23  N   UNL     1      -0.547  11.890  21.126  0.00  0.00    +0.000 N 
ATOM     24  C   UNL     1      -1.193  11.992  19.928  0.00  0.00    +0.000 A 
ATOM     25  C   UNL     1      -0.267  12.546  19.075  0.00  0.00    +0.000 A 
ATOM     26  N   UNL     1       0.920  12.771  19.723  0.00  0.00    +0.000 NA
ATOM     27  C   UNL     1       0.723  12.362  20.958  0.00  0.00    +0.000 A 
ENDBRANCH  22  23
ENDBRANCH  21  22
ENDBRANCH  20  21
ENDBRANCH   6  20
TORSDOF 5
ENDMDL
MODEL 7
REMARK VINA RESULT:      -7.0      2.449      8.894
REMARK  Name = 
REMARK  7 active torsions:
REMARK  status: ('A' for Active; 'I' for Inactive)
REMARK    1  A    between atoms: C_1  and  C_2
REMARK    2  A    between atoms: C_5  and  N_6
REMARK    3  A    between atoms: N_11  and  C_12
REMARK    4  A    between atoms: C_12  and  C_13
REMARK    5  A    between atoms: C_13  and  C_14
REMARK    6  A    between atoms: C_14  and  N_15
REMARK    7  A    between atoms: C_24  and  C_25
REMARK                            x       y       z     vdW  Elec       q    Type
REMARK                         _______ _______ _______ _____ _____    ______ ____
ROOT
ATOM      1  N   UNL     1       3.357   6.030  18.545  0.00  0.00    +0.000 N 
ATOM      2  N   UNL     1       3.280   5.322  19.710  0.00  0.00    +0.000 NA
ATOM      3  C   UNL     1       2.544   6.076  20.517  0.00  0.00    +0.000 A 
ATOM      4  C   UNL     1       2.176   7.302  19.936  0.00  0.00    +0.000 A 
ATOM      5  C   UNL     1       1.392   8.402  20.286  0.00  0.00    +0.000 A 
ATOM      6  N   UNL     1       0.794   8.515  21.522  0.00  0.00    +0.000 N 
ATOM      7  N   UNL     1       1.213   9.366  19.357  0.00  0.00    +0.000 NA
ATOM      8  C   UNL     1       1.831   9.248  18.169  0.00  0.00    +0.000 A 
ATOM      9  N   UNL     1       2.600   8.238  17.738  0.00  0.00    +0.000 NA
ATOM     10  C   UNL     1       2.733   7.270  18.668  0.00  0.00    +0.000 A 
ATOM     11  H   UNL     1       1.252   8.106  22.324  0.00  0.00    +0.000 HD
ENDROOT
BRANCH   1  16
ATOM     12  C   UNL     1       6.295   3.979  14.058  0.00  0.00    +0.000 C 
ATOM     13  C   UNL     1       5.520   4.518  15.222  0.00  0.00    +0.000 A 
ATOM     14  C   UNL     1       5.667   5.841  15.639  0.00  0.00    +0.000 A 
ATOM     15  C   UNL     1       4.926   6.326  16.713  0.00  0.00    +0.000 A 
ATOM     16  C   UNL     1       4.033   5.491  17.412  0.00  0.00    +0.000 A 
ATOM     17  C   UNL     1       3.847   4.159  16.994  0.00  0.00    +0.000 A 
ATOM     18  C   UNL     1       2.848   3.181  17.558  0.00  0.00    +0.000 C 
ATOM     19  C   UNL     1       4.610   3.692  15.901  0.00  0.00    +0.000 A 
ENDBRANCH   1  16
BRANCH   6  20
ATOM     20  C   UNL     1      -0.460   9.220  21.675  0.00  0.00    +0.000 C 
BRANCH  20  21
ATOM     21  C   UNL     1      -0.468  10.044  22.965  0.00  0.00    +0.000 C 
BRANCH  21  22
ATOM     22  C   UNL     1      -1.493  11.174  22.928  0.00  0.00    +0.000 C 
BRANCH  22  23
ATOM     23  N   UNL     1      -0.885  12.464  22.681  0.00  0.00    +0.000 N 
ATOM     24  C   UNL     1       0.043  12.752  21.722  0.00  0.00    +0.000 A 
ATOM     25  C   UNL     1       0.328  14.087  21.899  0.00  0.00    +0.000 A 
ATOM     26  N   UNL     1      -0.394  14.606  22.942  0.00  0.00    +0.000 NA
ATOM     27  C   UNL     1      -1.115  13.604  23.397  0.00  0.00    +0.000 A 
ENDBRANCH  22  23
ENDBRANCH  21  22
ENDBRANCH  20  21
ENDBRANCH   6  20
TORSDOF 5
ENDMDL
MODEL 8
REMARK VINA RESULT:      -7.0      3.016      9.576
REMARK  Name = 
REMARK  7 active torsions:
REMARK  status: ('A' for Active; 'I' for Inactive)
REMARK    1  A    between atoms: C_1  and  C_2
REMARK    2  A    between atoms: C_5  and  N_6
REMARK    3  A    between atoms: N_11  and  C_12
REMARK    4  A    between atoms: C_12  and  C_13
REMARK    5  A    between atoms: C_13  and  C_14
REMARK    6  A    between atoms: C_14  and  N_15
REMARK    7  A    between atoms: C_24  and  C_25
REMARK                            x       y       z     vdW  Elec       q    Type
REMARK                         _______ _______ _______ _____ _____    ______ ____
ROOT
ATOM      1  N   UNL     1       2.637   6.924  18.916  0.00  0.00    +0.000 N 
ATOM      2  N   UNL     1       2.288   6.474  20.157  0.00  0.00    +0.000 NA
ATOM      3  C   UNL     1       1.557   7.452  20.678  0.00  0.00    +0.000 A 
ATOM      4  C   UNL     1       1.461   8.573  19.835  0.00  0.00    +0.000 A 
ATOM      5  C   UNL     1       0.802   9.803  19.844  0.00  0.00    +0.000 A 
ATOM      6  N   UNL     1       0.051  10.226  20.919  0.00  0.00    +0.000 N 
ATOM      7  N   UNL     1       0.904  10.578  18.743  0.00  0.00    +0.000 NA
ATOM      8  C   UNL     1       1.667  10.157  17.720  0.00  0.00    +0.000 A 
ATOM      9  N   UNL     1       2.337   9.001  17.613  0.00  0.00    +0.000 NA
ATOM     10  C   UNL     1       2.190   8.228  18.708  0.00  0.00    +0.000 A 
ATOM     11  H   UNL     1       0.321   9.934  21.848  0.00  0.00    +0.000 HD
ENDROOT
BRANCH   1  16
ATOM     12  C   UNL     1       5.876   3.665  15.471  0.00  0.00    +0.000 C 
ATOM     13  C   UNL     1       5.025   4.520  16.361  0.00  0.00    +0.000 A 
ATOM     14  C   UNL     1       5.432   5.800  16.738  0.00  0.00    +0.000 A 
ATOM     15  C   UNL     1       4.620   6.585  17.553  0.00  0.00    +0.000 A 
ATOM     16  C   UNL     1       3.388   6.098  18.029  0.00  0.00    +0.000 A 
ATOM     17  C   UNL     1       2.943   4.819  17.642  0.00  0.00    +0.000 A 
ATOM     18  C   UNL     1       1.605   4.206  17.969  0.00  0.00    +0.000 C 
ATOM     19  C   UNL     1       3.784   4.044  16.815  0.00  0.00    +0.000 A 
ENDBRANCH   1  16
BRANCH   6  20
ATOM     20  C   UNL     1      -1.096  11.086  20.726  0.00  0.00    +0.000 C 
BRANCH  20  21
ATOM     21  C   UNL     1      -1.267  12.040  21.912  0.00  0.00    +0.000 C 
BRANCH  21  22
ATOM     22  C   UNL     1      -2.406  13.034  21.700  0.00  0.00    +0.000 C 
BRANCH  22  23
ATOM     23  N   UNL     1      -3.467  12.874  22.671  0.00  0.00    +0.000 N 
ATOM     24  C   UNL     1      -4.690  13.481  22.644  0.00  0.00    +0.000 A 
ATOM     25  C   UNL     1      -5.328  13.039  23.779  0.00  0.00    +0.000 A 
ATOM     26  N   UNL     1      -4.521  12.191  24.494  0.00  0.00    +0.000 NA
ATOM     27  C   UNL     1      -3.403  12.113  23.803  0.00  0.00    +0.000 A 
ENDBRANCH  22  23
ENDBRANCH  21  22
ENDBRANCH  20  21
ENDBRANCH   6  20
TORSDOF 5
ENDMDL
MODEL 9
REMARK VINA RESULT:      -6.9      1.470      1.800
REMARK  Name = 
REMARK  7 active torsions:
REMARK  status: ('A' for Active; 'I' for Inactive)
REMARK    1  A    between atoms: C_1  and  C_2
REMARK    2  A    between atoms: C_5  and  N_6
REMARK    3  A    between atoms: N_11  and  C_12
REMARK    4  A    between atoms: C_12  and  C_13
REMARK    5  A    between atoms: C_13  and  C_14
REMARK    6  A    between atoms: C_14  and  N_15
REMARK    7  A    between atoms: C_24  and  C_25
REMARK                            x       y       z     vdW  Elec       q    Type
REMARK                         _______ _______ _______ _____ _____    ______ ____
ROOT
ATOM      1  N   UNL     1       1.100   9.767  19.182  0.00  0.00    +0.000 N 
ATOM      2  N   UNL     1       1.644  10.086  17.971  0.00  0.00    +0.000 NA
ATOM      3  C   UNL     1       2.331   9.009  17.614  0.00  0.00    +0.000 A 
ATOM      4  C   UNL     1       2.310   7.997  18.589  0.00  0.00    +0.000 A 
ATOM      5  C   UNL     1       2.786   6.691  18.716  0.00  0.00    +0.000 A 
ATOM      6  N   UNL     1       3.562   6.096  17.746  0.00  0.00    +0.000 N 
ATOM      7  N   UNL     1       2.444   6.004  19.826  0.00  0.00    +0.000 NA
ATOM      8  C   UNL     1       1.711   6.617  20.772  0.00  0.00    +0.000 A 
ATOM      9  N   UNL     1       1.209   7.859  20.747  0.00  0.00    +0.000 NA
ATOM     10  C   UNL     1       1.531   8.513  19.612  0.00  0.00    +0.000 A 
ATOM     11  H   UNL     1       4.181   6.672  17.194  0.00  0.00    +0.000 HD
ENDROOT
BRANCH   1  16
ATOM     12  C   UNL     1      -2.189  13.604  21.909  0.00  0.00    +0.000 C 
ATOM     13  C   UNL     1      -1.335  12.594  21.204  0.00  0.00    +0.000 A 
ATOM     14  C   UNL     1      -0.044  12.305  21.646  0.00  0.00    +0.000 A 
ATOM     15  C   UNL     1       0.729  11.352  20.986  0.00  0.00    +0.000 A 
ATOM     16  C   UNL     1       0.234  10.680  19.853  0.00  0.00    +0.000 A 
ATOM     17  C   UNL     1      -1.076  10.935  19.403  0.00  0.00    +0.000 A 
ATOM     18  C   UNL     1      -1.788  10.217  18.284  0.00  0.00    +0.000 C 
ATOM     19  C   UNL     1      -1.838  11.905  20.089  0.00  0.00    +0.000 A 
ENDBRANCH   1  16
BRANCH   6  20
ATOM     20  C   UNL     1       3.506   4.666  17.530  0.00  0.00    +0.000 C 
BRANCH  20  21
ATOM     21  C   UNL     1       4.756   4.177  16.793  0.00  0.00    +0.000 C 
BRANCH  21  22
ATOM     22  C   UNL     1       5.634   5.329  16.309  0.00  0.00    +0.000 C 
BRANCH  22  23
ATOM     23  N   UNL     1       6.604   5.739  17.302  0.00  0.00    +0.000 N 
ATOM     24  C   UNL     1       7.088   4.976  18.326  0.00  0.00    +0.000 A 
ATOM     25  C   UNL     1       7.953   5.804  19.002  0.00  0.00    +0.000 A 
ATOM     26  N   UNL     1       7.996   7.045  18.421  0.00  0.00    +0.000 NA
ATOM     27  C   UNL     1       7.169   6.978  17.400  0.00  0.00    +0.000 A 
ENDBRANCH  22  23
ENDBRANCH  21  22
ENDBRANCH  20  21
ENDBRANCH   6  20
TORSDOF 5
ENDMDL
