MODEL 1
REMARK VINA RESULT:      -8.4      0.000      0.000
REMARK  Name = 
REMARK  4 active torsions:
REMARK  status: ('A' for Active; 'I' for Inactive)
REMARK    1  A    between atoms: C_4  and  C_5
REMARK    2  A    between atoms: C_4  and  C_7
REMARK    3  A    between atoms: C_9  and  N_10
REMARK    4  A    between atoms: C_11  and  C_13
REMARK                            x       y       z     vdW  Elec       q    Type
REMARK                         _______ _______ _______ _____ _____    ______ ____
ROOT
ATOM      1  C   UNL     1       2.658   4.905  18.550  0.00  0.00    +0.000 A 
ATOM      2  C   UNL     1       2.114   6.076  19.129  0.00  0.00    +0.000 A 
ATOM      3  C   UNL     1       2.511   7.376  18.795  0.00  0.00    +0.000 A 
ATOM      4  C   UNL     1       3.458   7.539  17.794  0.00  0.00    +0.000 A 
ATOM      5  C   UNL     1       4.048   6.411  17.213  0.00  0.00    +0.000 A 
ATOM      6  C   UNL     1       3.676   5.110  17.602  0.00  0.00    +0.000 A 
ATOM      7 CL   UNL     1       4.587   3.829  16.877  0.00  0.00    +0.000 Cl
ENDROOT
BRANCH   1  11
ATOM      8  N   UNL     1       5.086   1.761  20.296  0.00  0.00    +0.000 N 
ATOM      9  C   UNL     1       3.972   2.518  20.164  0.00  0.00    +0.000 C 
ATOM     10  N   UNL     1       3.276   2.558  19.087  0.00  0.00    +0.000 NA
ATOM     11  C   UNL     1       2.146   3.509  19.010  0.00  0.00    +0.000 C 
ATOM     12  C   UNL     1       1.428   3.586  20.355  0.00  0.00    +0.000 C 
ATOM     13  C   UNL     1       1.272   2.454  21.351  0.00  0.00    +0.000 C 
ATOM     14  C   UNL     1       2.305   3.526  21.564  0.00  0.00    +0.000 C 
ATOM     15  O   UNL     1       3.668   3.135  21.331  0.00  0.00    +0.000 OA
ATOM     16  H   UNL     1       5.111   0.981  19.653  0.00  0.00    +0.000 HD
ATOM     17  H   UNL     1       5.311   1.533  21.254  0.00  0.00    +0.000 HD
BRANCH  11  18
ATOM     18  C   UNL     1       1.102   2.944  18.008  0.00  0.00    +0.000 C 
ATOM     19  F   UNL     1       0.209   2.141  18.660  0.00  0.00    +0.000 F 
ENDBRANCH  11  18
ENDBRANCH   1  11
BRANCH   3  20
ATOM     20  N   UNL     1       1.989   8.513  19.452  0.00  0.00    +0.000 N 
ATOM     21  C   UNL     1       1.114   9.439  18.902  0.00  0.00    +0.000 C 
ATOM     22  O   UNL     1       0.659   9.436  17.759  0.00  0.00    +0.000 OA
ATOM     23  H   UNL     1       2.174   8.626  20.446  0.00  0.00    +0.000 HD
BRANCH  21  24
ATOM     24  C   UNL     1       0.652  10.516  19.829  0.00  0.00    +0.000 A 
ATOM     25  C   UNL     1      -0.296  10.200  20.804  0.00  0.00    +0.000 A 
ATOM     26  C   UNL     1      -0.686  11.189  21.703  0.00  0.00    +0.000 A 
ATOM     27  C   UNL     1      -0.120  12.452  21.597  0.00  0.00    +0.000 A 
ATOM     28 CL   UNL     1      -0.552  13.690  22.702  0.00  0.00    +0.000 Cl
ATOM     29  C   UNL     1       0.808  12.684  20.586  0.00  0.00    +0.000 A 
ATOM     30  N   UNL     1       1.218  11.747  19.690  0.00  0.00    +0.000 NA
ENDBRANCH  21  24
ENDBRANCH   3  20
TORSDOF 4
ENDMDL
MODEL 2
REMARK VINA RESULT:      -8.4      2.041      2.643
REMARK  Name = 
REMARK  4 active torsions:
REMARK  status: ('A' for Active; 'I' for Inactive)
REMARK    1  A    between atoms: C_4  and  C_5
REMARK    2  A    between atoms: C_4  and  C_7
REMARK    3  A    between atoms: C_9  and  N_10
REMARK    4  A    between atoms: C_11  and  C_13
REMARK                            x       y       z     vdW  Elec       q    Type
REMARK                         _______ _______ _______ _____ _____    ______ ____
ROOT
ATOM      1  C   UNL     1       3.463   5.654  18.579  0.00  0.00    +0.000 A 
ATOM      2  C   UNL     1       2.601   6.459  19.362  0.00  0.00    +0.000 A 
ATOM      3  C   UNL     1       2.248   7.776  19.044  0.00  0.00    +0.000 A 
ATOM      4  C   UNL     1       2.725   8.317  17.858  0.00  0.00    +0.000 A 
ATOM      5  C   UNL     1       3.605   7.572  17.065  0.00  0.00    +0.000 A 
ATOM      6  C   UNL     1       3.993   6.269  17.430  0.00  0.00    +0.000 A 
ATOM      7 CL   UNL     1       5.180   5.533  16.409  0.00  0.00    +0.000 Cl
ENDROOT
BRANCH   1  11
ATOM      8  N   UNL     1       0.862   3.074  20.904  0.00  0.00    +0.000 N 
ATOM      9  C   UNL     1       1.766   3.351  19.935  0.00  0.00    +0.000 C 
ATOM     10  N   UNL     1       2.931   3.830  20.179  0.00  0.00    +0.000 NA
ATOM     11  C   UNL     1       3.794   4.206  19.040  0.00  0.00    +0.000 C 
ATOM     12  C   UNL     1       3.635   3.200  17.902  0.00  0.00    +0.000 C 
ATOM     13  C   UNL     1       3.346   1.720  18.053  0.00  0.00    +0.000 C 
ATOM     14  C   UNL     1       2.250   2.681  17.683  0.00  0.00    +0.000 C 
ATOM     15  O   UNL     1       1.300   2.973  18.720  0.00  0.00    +0.000 OA
ATOM     16  H   UNL     1       1.287   2.921  21.808  0.00  0.00    +0.000 HD
ATOM     17  H   UNL     1       0.174   2.386  20.633  0.00  0.00    +0.000 HD
BRANCH  11  18
ATOM     18  C   UNL     1       5.276   4.095  19.495  0.00  0.00    +0.000 C 
ATOM     19  F   UNL     1       5.791   5.338  19.729  0.00  0.00    +0.000 F 
ENDBRANCH  11  18
ENDBRANCH   1  11
BRANCH   3  20
ATOM     20  N   UNL     1       1.440   8.564  19.894  0.00  0.00    +0.000 N 
ATOM     21  C   UNL     1       0.750   9.710  19.527  0.00  0.00    +0.000 C 
ATOM     22  O   UNL     1       0.734  10.238  18.416  0.00  0.00    +0.000 OA
ATOM     23  H   UNL     1       1.250   8.223  20.833  0.00  0.00    +0.000 HD
BRANCH  21  24
ATOM     24  C   UNL     1      -0.093  10.323  20.597  0.00  0.00    +0.000 A 
ATOM     25  C   UNL     1      -0.032   9.790  21.885  0.00  0.00    +0.000 A 
ATOM     26  C   UNL     1      -0.776  10.394  22.896  0.00  0.00    +0.000 A 
ATOM     27  C   UNL     1      -1.551  11.502  22.585  0.00  0.00    +0.000 A 
ATOM     28 CL   UNL     1      -2.460  12.293  23.806  0.00  0.00    +0.000 Cl
ATOM     29  C   UNL     1      -1.564  11.959  21.271  0.00  0.00    +0.000 A 
ATOM     30  N   UNL     1      -0.852  11.401  20.256  0.00  0.00    +0.000 NA
ENDBRANCH  21  24
ENDBRANCH   3  20
TORSDOF 4
ENDMDL
MODEL 3
REMARK VINA RESULT:      -8.4      2.191      2.754
REMARK  Name = 
REMARK  4 active torsions:
REMARK  status: ('A' for Active; 'I' for Inactive)
REMARK    1  A    between atoms: C_4  and  C_5
REMARK    2  A    between atoms: C_4  and  C_7
REMARK    3  A    between atoms: C_9  and  N_10
REMARK    4  A    between atoms: C_11  and  C_13
REMARK                            x       y       z     vdW  Elec       q    Type
REMARK                         _______ _______ _______ _____ _____    ______ ____
ROOT
ATOM      1  C   UNL     1       3.545   5.620  18.421  0.00  0.00    +0.000 A 
ATOM      2  C   UNL     1       2.705   6.513  19.128  0.00  0.00    +0.000 A 
ATOM      3  C   UNL     1       2.419   7.820  18.715  0.00  0.00    +0.000 A 
ATOM      4  C   UNL     1       2.946   8.258  17.508  0.00  0.00    +0.000 A 
ATOM      5  C   UNL     1       3.808   7.424  16.788  0.00  0.00    +0.000 A 
ATOM      6  C   UNL     1       4.129   6.132  17.248  0.00  0.00    +0.000 A 
ATOM      7 CL   UNL     1       5.303   5.278  16.307  0.00  0.00    +0.000 Cl
ENDROOT
BRANCH   1  11
ATOM      8  N   UNL     1       0.711   3.246  20.692  0.00  0.00    +0.000 N 
ATOM      9  C   UNL     1       1.689   3.443  19.777  0.00  0.00    +0.000 C 
ATOM     10  N   UNL     1       2.847   3.905  20.078  0.00  0.00    +0.000 NA
ATOM     11  C   UNL     1       3.800   4.192  18.986  0.00  0.00    +0.000 C 
ATOM     12  C   UNL     1       3.692   3.127  17.897  0.00  0.00    +0.000 C 
ATOM     13  C   UNL     1       3.350   1.666  18.109  0.00  0.00    +0.000 C 
ATOM     14  C   UNL     1       2.312   2.632  17.607  0.00  0.00    +0.000 C 
ATOM     15  O   UNL     1       1.300   3.007  18.554  0.00  0.00    +0.000 OA
ATOM     16  H   UNL     1       1.066   3.135  21.632  0.00  0.00    +0.000 HD
ATOM     17  H   UNL     1       0.024   2.561  20.411  0.00  0.00    +0.000 HD
BRANCH  11  18
ATOM     18  C   UNL     1       5.242   4.070  19.552  0.00  0.00    +0.000 C 
ATOM     19  F   UNL     1       5.786   5.311  19.727  0.00  0.00    +0.000 F 
ENDBRANCH  11  18
ENDBRANCH   1  11
BRANCH   3  20
ATOM     20  N   UNL     1       1.630   8.698  19.491  0.00  0.00    +0.000 N 
ATOM     21  C   UNL     1       1.088   8.418  20.737  0.00  0.00    +0.000 C 
ATOM     22  O   UNL     1       1.191   7.366  21.366  0.00  0.00    +0.000 OA
ATOM     23  H   UNL     1       1.523   9.659  19.175  0.00  0.00    +0.000 HD
BRANCH  21  24
ATOM     24  C   UNL     1       0.349   9.544  21.383  0.00  0.00    +0.000 A 
ATOM     25  C   UNL     1      -0.318   9.304  22.586  0.00  0.00    +0.000 A 
ATOM     26  C   UNL     1      -0.962  10.366  23.217  0.00  0.00    +0.000 A 
ATOM     27  C   UNL     1      -0.919  11.621  22.627  0.00  0.00    +0.000 A 
ATOM     28 CL   UNL     1      -1.674  12.961  23.386  0.00  0.00    +0.000 Cl
ATOM     29  C   UNL     1      -0.242  11.768  21.420  0.00  0.00    +0.000 A 
ATOM     30  N   UNL     1       0.401  10.760  20.772  0.00  0.00    +0.000 NA
ENDBRANCH  21  24
ENDBRANCH   3  20
TORSDOF 4
ENDMDL
MODEL 4
REMARK VINA RESULT:      -8.1      0.711      1.010
REMARK  Name = 
REMARK  4 active torsions:
REMARK  status: ('A' for Active; 'I' for Inactive)
REMARK    1  A    between atoms: C_4  and  C_5
REMARK    2  A    between atoms: C_4  and  C_7
REMARK    3  A    between atoms: C_9  and  N_10
REMARK    4  A    between atoms: C_11  and  C_13
REMARK                            x       y       z     vdW  Elec       q    Type
REMARK                         _______ _______ _______ _____ _____    ______ ____
ROOT
ATOM      1  C   UNL     1       2.700   4.854  18.556  0.00  0.00    +0.000 A 
ATOM      2  C   UNL     1       2.155   6.010  19.165  0.00  0.00    +0.000 A 
ATOM      3  C   UNL     1       2.526   7.320  18.839  0.00  0.00    +0.000 A 
ATOM      4  C   UNL     1       3.445   7.509  17.817  0.00  0.00    +0.000 A 
ATOM      5  C   UNL     1       4.035   6.397  17.206  0.00  0.00    +0.000 A 
ATOM      6  C   UNL     1       3.691   5.085  17.586  0.00  0.00    +0.000 A 
ATOM      7 CL   UNL     1       4.600   3.827  16.821  0.00  0.00    +0.000 Cl
ENDROOT
BRANCH   1  11
ATOM      8  N   UNL     1       5.145   1.840  20.495  0.00  0.00    +0.000 N 
ATOM      9  C   UNL     1       4.012   2.548  20.285  0.00  0.00    +0.000 C 
ATOM     10  N   UNL     1       3.379   2.543  19.169  0.00  0.00    +0.000 NA
ATOM     11  C   UNL     1       2.219   3.445  19.010  0.00  0.00    +0.000 C 
ATOM     12  C   UNL     1       1.420   3.513  20.310  0.00  0.00    +0.000 C 
ATOM     13  C   UNL     1       1.252   2.390  21.314  0.00  0.00    +0.000 C 
ATOM     14  C   UNL     1       2.226   3.507  21.569  0.00  0.00    +0.000 C 
ATOM     15  O   UNL     1       3.614   3.169  21.422  0.00  0.00    +0.000 OA
ATOM     16  H   UNL     1       5.240   1.051  19.869  0.00  0.00    +0.000 HD
ATOM     17  H   UNL     1       5.322   1.635  21.469  0.00  0.00    +0.000 HD
BRANCH  11  18
ATOM     18  C   UNL     1       1.259   2.822  17.959  0.00  0.00    +0.000 C 
ATOM     19  F   UNL     1       1.887   1.814  17.285  0.00  0.00    +0.000 F 
ENDBRANCH  11  18
ENDBRANCH   1  11
BRANCH   3  20
ATOM     20  N   UNL     1       2.005   8.440  19.524  0.00  0.00    +0.000 N 
ATOM     21  C   UNL     1       1.157   9.398  18.989  0.00  0.00    +0.000 C 
ATOM     22  O   UNL     1       0.728   9.442  17.836  0.00  0.00    +0.000 OA
ATOM     23  H   UNL     1       2.169   8.515  20.525  0.00  0.00    +0.000 HD
BRANCH  21  24
ATOM     24  C   UNL     1       0.689  10.448  19.943  0.00  0.00    +0.000 A 
ATOM     25  C   UNL     1       0.791  11.788  19.567  0.00  0.00    +0.000 A 
ATOM     26  C   UNL     1       0.306  12.766  20.433  0.00  0.00    +0.000 A 
ATOM     27  C   UNL     1      -0.259  12.372  21.638  0.00  0.00    +0.000 A 
ATOM     28 CL   UNL     1      -0.894  13.541  22.720  0.00  0.00    +0.000 Cl
ATOM     29  C   UNL     1      -0.307  11.014  21.939  0.00  0.00    +0.000 A 
ATOM     30  N   UNL     1       0.152  10.029  21.122  0.00  0.00    +0.000 NA
ENDBRANCH  21  24
ENDBRANCH   3  20
TORSDOF 4
ENDMDL
MODEL 5
REMARK VINA RESULT:      -8.1      1.400      1.469
REMARK  Name = 
REMARK  4 active torsions:
REMARK  status: ('A' for Active; 'I' for Inactive)
REMARK    1  A    between atoms: C_4  and  C_5
REMARK    2  A    between atoms: C_4  and  C_7
REMARK    3  A    between atoms: C_9  and  N_10
REMARK    4  A    between atoms: C_11  and  C_13
REMARK                            x       y       z     vdW  Elec       q    Type
REMARK                         _______ _______ _______ _____ _____    ______ ____
ROOT
ATOM      1  C   UNL     1       2.999   5.094  18.074  0.00  0.00    +0.000 A 
ATOM      2  C   UNL     1       2.245   6.093  18.734  0.00  0.00    +0.000 A 
ATOM      3  C   UNL     1       2.523   7.463  18.667  0.00  0.00    +0.000 A 
ATOM      4  C   UNL     1       3.570   7.883  17.859  0.00  0.00    +0.000 A 
ATOM      5  C   UNL     1       4.365   6.932  17.210  0.00  0.00    +0.000 A 
ATOM      6  C   UNL     1       4.105   5.553  17.336  0.00  0.00    +0.000 A 
ATOM      7 CL   UNL     1       5.253   4.508  16.573  0.00  0.00    +0.000 Cl
ENDROOT
BRANCH   1  11
ATOM      8  N   UNL     1       5.089   2.157  20.489  0.00  0.00    +0.000 N 
ATOM      9  C   UNL     1       3.996   2.758  19.964  0.00  0.00    +0.000 C 
ATOM     10  N   UNL     1       3.765   2.815  18.704  0.00  0.00    +0.000 NA
ATOM     11  C   UNL     1       2.602   3.598  18.233  0.00  0.00    +0.000 C 
ATOM     12  C   UNL     1       1.426   3.424  19.191  0.00  0.00    +0.000 C 
ATOM     13  C   UNL     1       1.103   2.180  19.993  0.00  0.00    +0.000 C 
ATOM     14  C   UNL     1       1.774   3.358  20.643  0.00  0.00    +0.000 C 
ATOM     15  O   UNL     1       3.169   3.193  20.946  0.00  0.00    +0.000 OA
ATOM     16  H   UNL     1       5.492   1.463  19.873  0.00  0.00    +0.000 HD
ATOM     17  H   UNL     1       4.969   1.860  21.447  0.00  0.00    +0.000 HD
BRANCH  11  18
ATOM     18  C   UNL     1       2.132   3.002  16.877  0.00  0.00    +0.000 C 
ATOM     19  F   UNL     1       2.325   1.650  16.863  0.00  0.00    +0.000 F 
ENDBRANCH  11  18
ENDBRANCH   1  11
BRANCH   3  20
ATOM     20  N   UNL     1       1.783   8.417  19.400  0.00  0.00    +0.000 N 
ATOM     21  C   UNL     1       1.246   8.231  20.666  0.00  0.00    +0.000 C 
ATOM     22  O   UNL     1       1.310   7.213  21.353  0.00  0.00    +0.000 OA
ATOM     23  H   UNL     1       1.714   9.363  19.033  0.00  0.00    +0.000 HD
BRANCH  21  24
ATOM     24  C   UNL     1       0.565   9.423  21.256  0.00  0.00    +0.000 A 
ATOM     25  C   UNL     1      -0.185   9.257  22.421  0.00  0.00    +0.000 A 
ATOM     26  C   UNL     1      -0.776  10.377  23.003  0.00  0.00    +0.000 A 
ATOM     27  C   UNL     1      -0.598  11.615  22.402  0.00  0.00    +0.000 A 
ATOM     28 CL   UNL     1      -1.283  13.023  23.101  0.00  0.00    +0.000 Cl
ATOM     29  C   UNL     1       0.154  11.687  21.233  0.00  0.00    +0.000 A 
ATOM     30  N   UNL     1       0.749  10.621  20.635  0.00  0.00    +0.000 NA
ENDBRANCH  21  24
ENDBRANCH   3  20
TORSDOF 4
ENDMDL
MODEL 6
REMARK VINA RESULT:      -8.0      3.180      4.257
REMARK  Name = 
REMARK  4 active torsions:
REMARK  status: ('A' for Active; 'I' for Inactive)
REMARK    1  A    between atoms: C_4  and  C_5
REMARK    2  A    between atoms: C_4  and  C_7
REMARK    3  A    between atoms: C_9  and  N_10
REMARK    4  A    between atoms: C_11  and  C_13
REMARK                            x       y       z     vdW  Elec       q    Type
REMARK                         _______ _______ _______ _____ _____    ______ ____
ROOT
ATOM      1  C   UNL     1       4.241   5.833  17.249  0.00  0.00    +0.000 A 
ATOM      2  C   UNL     1       3.760   7.158  17.376  0.00  0.00    +0.000 A 
ATOM      3  C   UNL     1       2.527   7.497  17.944  0.00  0.00    +0.000 A 
ATOM      4  C   UNL     1       1.742   6.480  18.469  0.00  0.00    +0.000 A 
ATOM      5  C   UNL     1       2.160   5.151  18.341  0.00  0.00    +0.000 A 
ATOM      6  C   UNL     1       3.379   4.825  17.715  0.00  0.00    +0.000 A 
ATOM      7 CL   UNL     1       3.688   3.133  17.527  0.00  0.00    +0.000 Cl
ENDROOT
BRANCH   1  11
ATOM      8  N   UNL     1       7.683   8.465  17.463  0.00  0.00    +0.000 N 
ATOM      9  C   UNL     1       7.058   7.266  17.447  0.00  0.00    +0.000 C 
ATOM     10  N   UNL     1       6.364   6.850  16.452  0.00  0.00    +0.000 NA
ATOM     11  C   UNL     1       5.626   5.577  16.587  0.00  0.00    +0.000 C 
ATOM     12  C   UNL     1       6.453   4.568  17.380  0.00  0.00    +0.000 C 
ATOM     13  C   UNL     1       7.965   4.460  17.383  0.00  0.00    +0.000 C 
ATOM     14  C   UNL     1       7.241   5.128  18.520  0.00  0.00    +0.000 C 
ATOM     15  O   UNL     1       7.343   6.560  18.568  0.00  0.00    +0.000 OA
ATOM     16  H   UNL     1       7.870   8.826  16.536  0.00  0.00    +0.000 HD
ATOM     17  H   UNL     1       8.464   8.509  18.103  0.00  0.00    +0.000 HD
BRANCH  11  18
ATOM     18  C   UNL     1       5.456   4.960  15.170  0.00  0.00    +0.000 C 
ATOM     19  F   UNL     1       5.803   3.639  15.186  0.00  0.00    +0.000 F 
ENDBRANCH  11  18
ENDBRANCH   1  11
BRANCH   3  20
ATOM     20  N   UNL     1       2.059   8.830  17.985  0.00  0.00    +0.000 N 
ATOM     21  C   UNL     1       1.433   9.439  19.063  0.00  0.00    +0.000 C 
ATOM     22  O   UNL     1       1.170   8.926  20.150  0.00  0.00    +0.000 OA
ATOM     23  H   UNL     1       2.281   9.445  17.207  0.00  0.00    +0.000 HD
BRANCH  21  24
ATOM     24  C   UNL     1       1.096  10.882  18.878  0.00  0.00    +0.000 A 
ATOM     25  C   UNL     1      -0.216  11.299  19.108  0.00  0.00    +0.000 A 
ATOM     26  C   UNL     1      -0.519  12.654  18.990  0.00  0.00    +0.000 A 
ATOM     27  C   UNL     1       0.494  13.538  18.646  0.00  0.00    +0.000 A 
ATOM     28 CL   UNL     1       0.170  15.217  18.517  0.00  0.00    +0.000 Cl
ATOM     29  C   UNL     1       1.771  13.034  18.421  0.00  0.00    +0.000 A 
ATOM     30  N   UNL     1       2.110  11.722  18.529  0.00  0.00    +0.000 NA
ENDBRANCH  21  24
ENDBRANCH   3  20
TORSDOF 4
ENDMDL
MODEL 7
REMARK VINA RESULT:      -7.9      2.939      4.062
REMARK  Name = 
REMARK  4 active torsions:
REMARK  status: ('A' for Active; 'I' for Inactive)
REMARK    1  A    between atoms: C_4  and  C_5
REMARK    2  A    between atoms: C_4  and  C_7
REMARK    3  A    between atoms: C_9  and  N_10
REMARK    4  A    between atoms: C_11  and  C_13
REMARK                            x       y       z     vdW  Elec       q    Type
REMARK                         _______ _______ _______ _____ _____    ______ ____
ROOT
ATOM      1  C   UNL     1       4.144   5.494  18.163  0.00  0.00    +0.000 A 
ATOM      2  C   UNL     1       3.543   6.761  18.359  0.00  0.00    +0.000 A 
ATOM      3  C   UNL     1       2.511   7.009  19.270  0.00  0.00    +0.000 A 
ATOM      4  C   UNL     1       2.079   5.966  20.077  0.00  0.00    +0.000 A 
ATOM      5  C   UNL     1       2.620   4.688  19.899  0.00  0.00    +0.000 A 
ATOM      6  C   UNL     1       3.619   4.444  18.937  0.00  0.00    +0.000 A 
ATOM      7 CL   UNL     1       4.092   2.789  18.759  0.00  0.00    +0.000 Cl
ENDROOT
BRANCH   1  11
ATOM      8  N   UNL     1       7.238   8.412  17.303  0.00  0.00    +0.000 N 
ATOM      9  C   UNL     1       6.747   7.164  17.484  0.00  0.00    +0.000 C 
ATOM     10  N   UNL     1       5.823   6.661  16.750  0.00  0.00    +0.000 NA
ATOM     11  C   UNL     1       5.279   5.334  17.109  0.00  0.00    +0.000 C 
ATOM     12  C   UNL     1       6.395   4.424  17.615  0.00  0.00    +0.000 C 
ATOM     13  C   UNL     1       7.840   4.444  17.156  0.00  0.00    +0.000 C 
ATOM     14  C   UNL     1       7.439   5.084  18.457  0.00  0.00    +0.000 C 
ATOM     15  O   UNL     1       7.422   6.520  18.467  0.00  0.00    +0.000 OA
ATOM     16  H   UNL     1       7.101   8.758  16.362  0.00  0.00    +0.000 HD
ATOM     17  H   UNL     1       8.169   8.541  17.673  0.00  0.00    +0.000 HD
BRANCH  11  18
ATOM     18  C   UNL     1       4.742   4.662  15.815  0.00  0.00    +0.000 C 
ATOM     19  F   UNL     1       5.265   5.276  14.713  0.00  0.00    +0.000 F 
ENDBRANCH  11  18
ENDBRANCH   1  11
BRANCH   3  20
ATOM     20  N   UNL     1       1.894   8.276  19.380  0.00  0.00    +0.000 N 
ATOM     21  C   UNL     1       1.739   9.196  18.354  0.00  0.00    +0.000 C 
ATOM     22  O   UNL     1       2.117   9.074  17.190  0.00  0.00    +0.000 OA
ATOM     23  H   UNL     1       1.426   8.512  20.251  0.00  0.00    +0.000 HD
BRANCH  21  24
ATOM     24  C   UNL     1       0.987  10.437  18.712  0.00  0.00    +0.000 A 
ATOM     25  C   UNL     1      -0.314  10.315  19.200  0.00  0.00    +0.000 A 
ATOM     26  C   UNL     1      -0.996  11.467  19.586  0.00  0.00    +0.000 A 
ATOM     27  C   UNL     1      -0.357  12.693  19.468  0.00  0.00    +0.000 A 
ATOM     28 CL   UNL     1      -1.150  14.133  19.958  0.00  0.00    +0.000 Cl
ATOM     29  C   UNL     1       0.937  12.725  18.958  0.00  0.00    +0.000 A 
ATOM     30  N   UNL     1       1.638  11.625  18.573  0.00  0.00    +0.000 NA
ENDBRANCH  21  24
ENDBRANCH   3  20
TORSDOF 4
ENDMDL
MODEL 8
REMARK VINA RESULT:      -7.9      2.831      4.171
REMARK  Name = 
REMARK  4 active torsions:
REMARK  status: ('A' for Active; 'I' for Inactive)
REMARK    1  A    between atoms: C_4  and  C_5
REMARK    2  A    between atoms: C_4  and  C_7
REMARK    3  A    between atoms: C_9  and  N_10
REMARK    4  A    between atoms: C_11  and  C_13
REMARK                            x       y       z     vdW  Elec       q    Type
REMARK                         _______ _______ _______ _____ _____    ______ ____
ROOT
ATOM      1  C   UNL     1       4.291   4.938  18.730  0.00  0.00    +0.000 A 
ATOM      2  C   UNL     1       3.660   6.023  19.384  0.00  0.00    +0.000 A 
ATOM      3  C   UNL     1       2.363   5.980  19.908  0.00  0.00    +0.000 A 
ATOM      4  C   UNL     1       1.663   4.784  19.835  0.00  0.00    +0.000 A 
ATOM      5  C   UNL     1       2.231   3.692  19.171  0.00  0.00    +0.000 A 
ATOM      6  C   UNL     1       3.516   3.771  18.600  0.00  0.00    +0.000 A 
ATOM      7 CL   UNL     1       4.021   2.377  17.709  0.00  0.00    +0.000 Cl
ENDROOT
BRANCH   1  11
ATOM      8  N   UNL     1       5.485   4.496  14.582  0.00  0.00    +0.000 N 
ATOM      9  C   UNL     1       5.511   5.063  15.811  0.00  0.00    +0.000 C 
ATOM     10  N   UNL     1       5.856   4.426  16.869  0.00  0.00    +0.000 NA
ATOM     11  C   UNL     1       5.735   5.107  18.176  0.00  0.00    +0.000 C 
ATOM     12  C   UNL     1       6.120   6.578  18.042  0.00  0.00    +0.000 C 
ATOM     13  C   UNL     1       7.156   7.148  17.094  0.00  0.00    +0.000 C 
ATOM     14  C   UNL     1       5.689   7.251  16.779  0.00  0.00    +0.000 C 
ATOM     15  O   UNL     1       5.212   6.383  15.739  0.00  0.00    +0.000 OA
ATOM     16  H   UNL     1       6.090   3.690  14.506  0.00  0.00    +0.000 HD
ATOM     17  H   UNL     1       5.563   5.161  13.826  0.00  0.00    +0.000 HD
BRANCH  11  18
ATOM     18  C   UNL     1       6.777   4.486  19.147  0.00  0.00    +0.000 C 
ATOM     19  F   UNL     1       7.318   5.456  19.942  0.00  0.00    +0.000 F 
ENDBRANCH  11  18
ENDBRANCH   1  11
BRANCH   3  20
ATOM     20  N   UNL     1       1.750   7.112  20.490  0.00  0.00    +0.000 N 
ATOM     21  C   UNL     1       1.543   8.335  19.868  0.00  0.00    +0.000 C 
ATOM     22  O   UNL     1       1.865   8.643  18.722  0.00  0.00    +0.000 OA
ATOM     23  H   UNL     1       1.323   7.013  21.408  0.00  0.00    +0.000 HD
BRANCH  21  24
ATOM     24  C   UNL     1       0.807   9.351  20.679  0.00  0.00    +0.000 A 
ATOM     25  C   UNL     1       0.235   8.957  21.889  0.00  0.00    +0.000 A 
ATOM     26  C   UNL     1      -0.405   9.916  22.671  0.00  0.00    +0.000 A 
ATOM     27  C   UNL     1      -0.451  11.227  22.218  0.00  0.00    +0.000 A 
ATOM     28 CL   UNL     1      -1.204  12.444  23.164  0.00  0.00    +0.000 Cl
ATOM     29  C   UNL     1       0.133  11.530  20.992  0.00  0.00    +0.000 A 
ATOM     30  N   UNL     1       0.769  10.626  20.200  0.00  0.00    +0.000 NA
ENDBRANCH  21  24
ENDBRANCH   3  20
TORSDOF 4
ENDMDL
MODEL 9
REMARK VINA RESULT:      -7.9      1.146      1.343
REMARK  Name = 
REMARK  4 active torsions:
REMARK  status: ('A' for Active; 'I' for Inactive)
REMARK    1  A    between atoms: C_4  and  C_5
REMARK    2  A    between atoms: C_4  and  C_7
REMARK    3  A    between atoms: C_9  and  N_10
REMARK    4  A    between atoms: C_11  and  C_13
REMARK                            x       y       z     vdW  Elec       q    Type
REMARK                         _______ _______ _______ _____ _____    ______ ____
ROOT
ATOM      1  C   UNL     1       2.664   4.879  18.572  0.00  0.00    +0.000 A 
ATOM      2  C   UNL     1       2.041   6.039  19.092  0.00  0.00    +0.000 A 
ATOM      3  C   UNL     1       2.404   7.347  18.750  0.00  0.00    +0.000 A 
ATOM      4  C   UNL     1       3.400   7.527  17.800  0.00  0.00    +0.000 A 
ATOM      5  C   UNL     1       4.067   6.413  17.281  0.00  0.00    +0.000 A 
ATOM      6  C   UNL     1       3.727   5.105  17.679  0.00  0.00    +0.000 A 
ATOM      7 CL   UNL     1       4.728   3.849  17.039  0.00  0.00    +0.000 Cl
ENDROOT
BRANCH   1  11
ATOM      8  N   UNL     1       5.144   1.823  20.399  0.00  0.00    +0.000 N 
ATOM      9  C   UNL     1       4.013   2.547  20.237  0.00  0.00    +0.000 C 
ATOM     10  N   UNL     1       3.338   2.557  19.146  0.00  0.00    +0.000 NA
ATOM     11  C   UNL     1       2.183   3.473  19.036  0.00  0.00    +0.000 C 
ATOM     12  C   UNL     1       1.436   3.543  20.366  0.00  0.00    +0.000 C 
ATOM     13  C   UNL     1       1.292   2.416  21.369  0.00  0.00    +0.000 C 
ATOM     14  C   UNL     1       2.289   3.520  21.593  0.00  0.00    +0.000 C 
ATOM     15  O   UNL     1       3.667   3.166  21.392  0.00  0.00    +0.000 OA
ATOM     16  H   UNL     1       5.206   1.038  19.765  0.00  0.00    +0.000 HD
ATOM     17  H   UNL     1       5.356   1.611  21.364  0.00  0.00    +0.000 HD
BRANCH  11  18
ATOM     18  C   UNL     1       1.176   2.869  18.019  0.00  0.00    +0.000 C 
ATOM     19  F   UNL     1       0.049   2.448  18.665  0.00  0.00    +0.000 F 
ENDBRANCH  11  18
ENDBRANCH   1  11
BRANCH   3  20
ATOM     20  N   UNL     1       1.799   8.475  19.348  0.00  0.00    +0.000 N 
ATOM     21  C   UNL     1       1.227   8.517  20.611  0.00  0.00    +0.000 C 
ATOM     22  O   UNL     1       1.138   7.587  21.412  0.00  0.00    +0.000 OA
ATOM     23  H   UNL     1       1.869   9.371  18.872  0.00  0.00    +0.000 HD
BRANCH  21  24
ATOM     24  C   UNL     1       0.716   9.853  21.041  0.00  0.00    +0.000 A 
ATOM     25  C   UNL     1       1.008  10.967  20.254  0.00  0.00    +0.000 A 
ATOM     26  C   UNL     1       0.487  12.205  20.624  0.00  0.00    +0.000 A 
ATOM     27  C   UNL     1      -0.303  12.284  21.763  0.00  0.00    +0.000 A 
ATOM     28 CL   UNL     1      -0.988  13.783  22.238  0.00  0.00    +0.000 Cl
ATOM     29  C   UNL     1      -0.532  11.125  22.497  0.00  0.00    +0.000 A 
ATOM     30  N   UNL     1      -0.045   9.899  22.170  0.00  0.00    +0.000 NA
ENDBRANCH  21  24
ENDBRANCH   3  20
TORSDOF 4
ENDMDL
