MODEL 1
REMARK VINA RESULT:      -7.9      0.000      0.000
REMARK  Name = 
REMARK  10 active torsions:
REMARK  status: ('A' for Active; 'I' for Inactive)
REMARK    1  A    between atoms: C_1  and  O_2
REMARK    2  A    between atoms: O_2  and  C_3
REMARK    3  A    between atoms: C_6  and  C_7
REMARK    4  A    between atoms: C_7  and  O_8
REMARK    5  A    between atoms: O_8  and  C_9
REMARK    6  A    between atoms: C_14  and  C_15
REMARK    7  A    between atoms: C_15  and  C_16
REMARK    8  A    between atoms: C_16  and  C_17
REMARK    9  A    between atoms: C_21  and  O_22
REMARK   10  A    between atoms: O_22  and  C_23
REMARK                            x       y       z     vdW  Elec       q    Type
REMARK                         _______ _______ _______ _____ _____    ______ ____
ROOT
ATOM      1  C   UNL     1       2.577   4.219  18.377  0.00  0.00    +0.000 A 
ATOM      2  C   UNL     1       2.037   2.940  18.573  0.00  0.00    +0.000 A 
ATOM      3  C   UNL     1       1.350   2.625  19.747  0.00  0.00    +0.000 A 
ATOM      4  C   UNL     1       1.180   3.584  20.733  0.00  0.00    +0.000 A 
ATOM      5  C   UNL     1       1.696   4.865  20.546  0.00  0.00    +0.000 A 
ATOM      6  C   UNL     1       2.409   5.200  19.378  0.00  0.00    +0.000 A 
ENDROOT
BRANCH   1   7
ATOM      7  O   UNL     1       3.254   4.584  17.239  0.00  0.00    +0.000 OA
BRANCH   7   8
ATOM      8  C   UNL     1       4.552   4.004  17.019  0.00  0.00    +0.000 C 
BRANCH   8  12
ATOM      9  C   UNL     1       7.614   6.841  18.211  0.00  0.00    +0.000 A 
ATOM     10  C   UNL     1       6.587   7.219  17.354  0.00  0.00    +0.000 A 
ATOM     11  C   UNL     1       5.616   6.301  16.955  0.00  0.00    +0.000 A 
ATOM     12  C   UNL     1       5.663   4.971  17.381  0.00  0.00    +0.000 A 
ATOM     13  C   UNL     1       6.718   4.587  18.225  0.00  0.00    +0.000 A 
ATOM     14  C   UNL     1       7.691   5.516  18.635  0.00  0.00    +0.000 A 
BRANCH   9  16
ATOM     15  C   UNL     1       8.244   9.102  17.913  0.00  0.00    +0.000 C 
ATOM     16  O   UNL     1       8.482   7.846  18.534  0.00  0.00    +0.000 OA
ENDBRANCH   9  16
ENDBRANCH   8  12
ENDBRANCH   7   8
ENDBRANCH   1   7
BRANCH   6  17
ATOM     17  C   UNL     1       2.880   6.633  19.207  0.00  0.00    +0.000 C 
BRANCH  17  18
ATOM     18  C   UNL     1       1.986   7.555  18.349  0.00  0.00    +0.000 C 
BRANCH  18  19
ATOM     19  C   UNL     1       1.508   8.857  18.957  0.00  0.00    +0.000 A 
ATOM     20  C   UNL     1       1.552  10.038  18.201  0.00  0.00    +0.000 A 
ATOM     21  C   UNL     1       1.245  11.271  18.782  0.00  0.00    +0.000 A 
ATOM     22  C   UNL     1       0.906  11.339  20.132  0.00  0.00    +0.000 A 
ATOM     23  C   UNL     1       0.879  10.180  20.904  0.00  0.00    +0.000 A 
ATOM     24  C   UNL     1       1.158   8.944  20.311  0.00  0.00    +0.000 A 
BRANCH  23  25
ATOM     25  O   UNL     1       0.560  10.367  22.223  0.00  0.00    +0.000 OA
ATOM     26  C   UNL     1      -0.197   9.315  22.808  0.00  0.00    +0.000 C 
ENDBRANCH  23  25
ENDBRANCH  18  19
ENDBRANCH  17  18
ENDBRANCH   6  17
TORSDOF 8
ENDMDL
MODEL 2
REMARK VINA RESULT:      -7.7      0.980      1.066
REMARK  Name = 
REMARK  10 active torsions:
REMARK  status: ('A' for Active; 'I' for Inactive)
REMARK    1  A    between atoms: C_1  and  O_2
REMARK    2  A    between atoms: O_2  and  C_3
REMARK    3  A    between atoms: C_6  and  C_7
REMARK    4  A    between atoms: C_7  and  O_8
REMARK    5  A    between atoms: O_8  and  C_9
REMARK    6  A    between atoms: C_14  and  C_15
REMARK    7  A    between atoms: C_15  and  C_16
REMARK    8  A    between atoms: C_16  and  C_17
REMARK    9  A    between atoms: C_21  and  O_22
REMARK   10  A    between atoms: O_22  and  C_23
REMARK                            x       y       z     vdW  Elec       q    Type
REMARK                         _______ _______ _______ _____ _____    ______ ____
ROOT
ATOM      1  C   UNL     1       2.713   3.465  18.776  0.00  0.00    +0.000 A 
ATOM      2  C   UNL     1       2.759   2.438  19.729  0.00  0.00    +0.000 A 
ATOM      3  C   UNL     1       2.298   2.647  21.031  0.00  0.00    +0.000 A 
ATOM      4  C   UNL     1       1.772   3.877  21.393  0.00  0.00    +0.000 A 
ATOM      5  C   UNL     1       1.702   4.903  20.453  0.00  0.00    +0.000 A 
ATOM      6  C   UNL     1       2.180   4.721  19.140  0.00  0.00    +0.000 A 
ENDROOT
BRANCH   1   7
ATOM      7  O   UNL     1       3.145   3.311  17.481  0.00  0.00    +0.000 OA
BRANCH   7   8
ATOM      8  C   UNL     1       4.543   3.051  17.271  0.00  0.00    +0.000 C 
BRANCH   8  12
ATOM      9  C   UNL     1       6.683   6.826  17.142  0.00  0.00    +0.000 A 
ATOM     10  C   UNL     1       5.720   6.519  16.187  0.00  0.00    +0.000 A 
ATOM     11  C   UNL     1       5.049   5.296  16.217  0.00  0.00    +0.000 A 
ATOM     12  C   UNL     1       5.343   4.337  17.188  0.00  0.00    +0.000 A 
ATOM     13  C   UNL     1       6.335   4.641  18.135  0.00  0.00    +0.000 A 
ATOM     14  C   UNL     1       7.005   5.877  18.111  0.00  0.00    +0.000 A 
BRANCH   9  16
ATOM     15  C   UNL     1       8.189   8.438  17.996  0.00  0.00    +0.000 C 
ATOM     16  O   UNL     1       7.244   8.064  17.003  0.00  0.00    +0.000 OA
ENDBRANCH   9  16
ENDBRANCH   8  12
ENDBRANCH   7   8
ENDBRANCH   1   7
BRANCH   6  17
ATOM     17  C   UNL     1       2.006   5.855  18.146  0.00  0.00    +0.000 C 
BRANCH  17  18
ATOM     18  C   UNL     1       2.767   7.164  18.452  0.00  0.00    +0.000 C 
BRANCH  18  19
ATOM     19  C   UNL     1       1.960   8.395  18.805  0.00  0.00    +0.000 A 
ATOM     20  C   UNL     1       2.006   9.523  17.972  0.00  0.00    +0.000 A 
ATOM     21  C   UNL     1       1.381  10.715  18.346  0.00  0.00    +0.000 A 
ATOM     22  C   UNL     1       0.713  10.797  19.567  0.00  0.00    +0.000 A 
ATOM     23  C   UNL     1       0.675   9.695  20.417  0.00  0.00    +0.000 A 
ATOM     24  C   UNL     1       1.278   8.495  20.026  0.00  0.00    +0.000 A 
BRANCH  23  25
ATOM     25  O   UNL     1       0.016   9.896  21.601  0.00  0.00    +0.000 OA
ATOM     26  C   UNL     1       0.651   9.329  22.740  0.00  0.00    +0.000 C 
ENDBRANCH  23  25
ENDBRANCH  18  19
ENDBRANCH  17  18
ENDBRANCH   6  17
TORSDOF 8
ENDMDL
MODEL 3
REMARK VINA RESULT:      -7.7      1.272      2.094
REMARK  Name = 
REMARK  10 active torsions:
REMARK  status: ('A' for Active; 'I' for Inactive)
REMARK    1  A    between atoms: C_1  and  O_2
REMARK    2  A    between atoms: O_2  and  C_3
REMARK    3  A    between atoms: C_6  and  C_7
REMARK    4  A    between atoms: C_7  and  O_8
REMARK    5  A    between atoms: O_8  and  C_9
REMARK    6  A    between atoms: C_14  and  C_15
REMARK    7  A    between atoms: C_15  and  C_16
REMARK    8  A    between atoms: C_16  and  C_17
REMARK    9  A    between atoms: C_21  and  O_22
REMARK   10  A    between atoms: O_22  and  C_23
REMARK                            x       y       z     vdW  Elec       q    Type
REMARK                         _______ _______ _______ _____ _____    ______ ____
ROOT
ATOM      1  C   UNL     1       3.463   3.594  18.085  0.00  0.00    +0.000 A 
ATOM      2  C   UNL     1       3.826   2.465  18.832  0.00  0.00    +0.000 A 
ATOM      3  C   UNL     1       3.472   2.352  20.178  0.00  0.00    +0.000 A 
ATOM      4  C   UNL     1       2.739   3.356  20.791  0.00  0.00    +0.000 A 
ATOM      5  C   UNL     1       2.355   4.477  20.058  0.00  0.00    +0.000 A 
ATOM      6  C   UNL     1       2.718   4.621  18.704  0.00  0.00    +0.000 A 
ENDROOT
BRANCH   1   7
ATOM      7  O   UNL     1       3.778   3.752  16.756  0.00  0.00    +0.000 OA
BRANCH   7   8
ATOM      8  C   UNL     1       5.168   3.711  16.391  0.00  0.00    +0.000 C 
BRANCH   8  12
ATOM      9  C   UNL     1       7.525   6.983  18.000  0.00  0.00    +0.000 A 
ATOM     10  C   UNL     1       7.711   5.681  18.451  0.00  0.00    +0.000 A 
ATOM     11  C   UNL     1       6.938   4.634  17.949  0.00  0.00    +0.000 A 
ATOM     12  C   UNL     1       5.938   4.867  17.002  0.00  0.00    +0.000 A 
ATOM     13  C   UNL     1       5.736   6.188  16.568  0.00  0.00    +0.000 A 
ATOM     14  C   UNL     1       6.522   7.241  17.067  0.00  0.00    +0.000 A 
BRANCH   9  16
ATOM     15  C   UNL     1       8.300   9.218  18.028  0.00  0.00    +0.000 C 
ATOM     16  O   UNL     1       8.364   7.903  18.562  0.00  0.00    +0.000 OA
ENDBRANCH   9  16
ENDBRANCH   8  12
ENDBRANCH   7   8
ENDBRANCH   1   7
BRANCH   6  17
ATOM     17  C   UNL     1       2.203   5.831  17.945  0.00  0.00    +0.000 C 
BRANCH  17  18
ATOM     18  C   UNL     1       2.853   7.189  18.289  0.00  0.00    +0.000 C 
BRANCH  18  19
ATOM     19  C   UNL     1       2.029   8.205  19.050  0.00  0.00    +0.000 A 
ATOM     20  C   UNL     1       1.684   7.964  20.389  0.00  0.00    +0.000 A 
ATOM     21  C   UNL     1       0.813   8.819  21.068  0.00  0.00    +0.000 A 
ATOM     22  C   UNL     1       0.264   9.919  20.411  0.00  0.00    +0.000 A 
ATOM     23  C   UNL     1       0.577  10.163  19.076  0.00  0.00    +0.000 A 
ATOM     24  C   UNL     1       1.473   9.320  18.408  0.00  0.00    +0.000 A 
BRANCH  23  25
ATOM     25  O   UNL     1      -0.039  11.254  18.524  0.00  0.00    +0.000 OA
ATOM     26  C   UNL     1       0.416  12.508  19.014  0.00  0.00    +0.000 C 
ENDBRANCH  23  25
ENDBRANCH  18  19
ENDBRANCH  17  18
ENDBRANCH   6  17
TORSDOF 8
ENDMDL
MODEL 4
REMARK VINA RESULT:      -7.7      0.993      1.901
REMARK  Name = 
REMARK  10 active torsions:
REMARK  status: ('A' for Active; 'I' for Inactive)
REMARK    1  A    between atoms: C_1  and  O_2
REMARK    2  A    between atoms: O_2  and  C_3
REMARK    3  A    between atoms: C_6  and  C_7
REMARK    4  A    between atoms: C_7  and  O_8
REMARK    5  A    between atoms: O_8  and  C_9
REMARK    6  A    between atoms: C_14  and  C_15
REMARK    7  A    between atoms: C_15  and  C_16
REMARK    8  A    between atoms: C_16  and  C_17
REMARK    9  A    between atoms: C_21  and  O_22
REMARK   10  A    between atoms: O_22  and  C_23
REMARK                            x       y       z     vdW  Elec       q    Type
REMARK                         _______ _______ _______ _____ _____    ______ ____
ROOT
ATOM      1  C   UNL     1       2.431   4.025  18.426  0.00  0.00    +0.000 A 
ATOM      2  C   UNL     1       1.760   2.795  18.474  0.00  0.00    +0.000 A 
ATOM      3  C   UNL     1       1.121   2.373  19.642  0.00  0.00    +0.000 A 
ATOM      4  C   UNL     1       1.131   3.179  20.770  0.00  0.00    +0.000 A 
ATOM      5  C   UNL     1       1.778   4.412  20.733  0.00  0.00    +0.000 A 
ATOM      6  C   UNL     1       2.445   4.849  19.572  0.00  0.00    +0.000 A 
ENDROOT
BRANCH   1   7
ATOM      7  O   UNL     1       3.068   4.492  17.301  0.00  0.00    +0.000 OA
BRANCH   7   8
ATOM      8  C   UNL     1       4.415   4.046  17.064  0.00  0.00    +0.000 C 
BRANCH   8  12
ATOM      9  C   UNL     1       7.461   6.957  18.110  0.00  0.00    +0.000 A 
ATOM     10  C   UNL     1       7.304   5.791  18.852  0.00  0.00    +0.000 A 
ATOM     11  C   UNL     1       6.311   4.867  18.527  0.00  0.00    +0.000 A 
ATOM     12  C   UNL     1       5.429   5.099  17.469  0.00  0.00    +0.000 A 
ATOM     13  C   UNL     1       5.574   6.291  16.740  0.00  0.00    +0.000 A 
ATOM     14  C   UNL     1       6.581   7.218  17.061  0.00  0.00    +0.000 A 
BRANCH   9  16
ATOM     15  C   UNL     1       8.388   9.133  18.171  0.00  0.00    +0.000 C 
ATOM     16  O   UNL     1       8.484   7.761  18.527  0.00  0.00    +0.000 OA
ENDBRANCH   9  16
ENDBRANCH   8  12
ENDBRANCH   7   8
ENDBRANCH   1   7
BRANCH   6  17
ATOM     17  C   UNL     1       3.067   6.235  19.576  0.00  0.00    +0.000 C 
BRANCH  17  18
ATOM     18  C   UNL     1       2.276   7.348  18.855  0.00  0.00    +0.000 C 
BRANCH  18  19
ATOM     19  C   UNL     1       1.560   8.380  19.699  0.00  0.00    +0.000 A 
ATOM     20  C   UNL     1       1.219   8.082  21.028  0.00  0.00    +0.000 A 
ATOM     21  C   UNL     1       0.441   8.964  21.781  0.00  0.00    +0.000 A 
ATOM     22  C   UNL     1      -0.020  10.148  21.210  0.00  0.00    +0.000 A 
ATOM     23  C   UNL     1       0.288  10.451  19.886  0.00  0.00    +0.000 A 
ATOM     24  C   UNL     1       1.093   9.579  19.144  0.00  0.00    +0.000 A 
BRANCH  23  25
ATOM     25  O   UNL     1      -0.239  11.625  19.419  0.00  0.00    +0.000 OA
ATOM     26  C   UNL     1      -1.260  11.474  18.441  0.00  0.00    +0.000 C 
ENDBRANCH  23  25
ENDBRANCH  18  19
ENDBRANCH  17  18
ENDBRANCH   6  17
TORSDOF 8
ENDMDL
MODEL 5
REMARK VINA RESULT:      -7.5      0.827      1.210
REMARK  Name = 
REMARK  10 active torsions:
REMARK  status: ('A' for Active; 'I' for Inactive)
REMARK    1  A    between atoms: C_1  and  O_2
REMARK    2  A    between atoms: O_2  and  C_3
REMARK    3  A    between atoms: C_6  and  C_7
REMARK    4  A    between atoms: C_7  and  O_8
REMARK    5  A    between atoms: O_8  and  C_9
REMARK    6  A    between atoms: C_14  and  C_15
REMARK    7  A    between atoms: C_15  and  C_16
REMARK    8  A    between atoms: C_16  and  C_17
REMARK    9  A    between atoms: C_21  and  O_22
REMARK   10  A    between atoms: O_22  and  C_23
REMARK                            x       y       z     vdW  Elec       q    Type
REMARK                         _______ _______ _______ _____ _____    ______ ____
ROOT
ATOM      1  C   UNL     1       2.320   4.045  18.639  0.00  0.00    +0.000 A 
ATOM      2  C   UNL     1       2.009   2.689  18.808  0.00  0.00    +0.000 A 
ATOM      3  C   UNL     1       1.552   2.207  20.037  0.00  0.00    +0.000 A 
ATOM      4  C   UNL     1       1.387   3.072  21.107  0.00  0.00    +0.000 A 
ATOM      5  C   UNL     1       1.676   4.427  20.950  0.00  0.00    +0.000 A 
ATOM      6  C   UNL     1       2.156   4.932  19.725  0.00  0.00    +0.000 A 
ENDROOT
BRANCH   1   7
ATOM      7  O   UNL     1       2.765   4.573  17.451  0.00  0.00    +0.000 OA
BRANCH   7   8
ATOM      8  C   UNL     1       3.986   4.048  16.903  0.00  0.00    +0.000 C 
BRANCH   8  12
ATOM      9  C   UNL     1       7.286   6.623  18.056  0.00  0.00    +0.000 A 
ATOM     10  C   UNL     1       6.210   7.125  17.330  0.00  0.00    +0.000 A 
ATOM     11  C   UNL     1       5.161   6.291  16.943  0.00  0.00    +0.000 A 
ATOM     12  C   UNL     1       5.174   4.928  17.246  0.00  0.00    +0.000 A 
ATOM     13  C   UNL     1       6.275   4.421  17.955  0.00  0.00    +0.000 A 
ATOM     14  C   UNL     1       7.328   5.263  18.355  0.00  0.00    +0.000 A 
BRANCH   9  16
ATOM     15  C   UNL     1       8.066   8.843  17.809  0.00  0.00    +0.000 C 
ATOM     16  O   UNL     1       8.229   7.555  18.385  0.00  0.00    +0.000 OA
ENDBRANCH   9  16
ENDBRANCH   8  12
ENDBRANCH   7   8
ENDBRANCH   1   7
BRANCH   6  17
ATOM     17  C   UNL     1       2.380   6.428  19.601  0.00  0.00    +0.000 C 
BRANCH  17  18
ATOM     18  C   UNL     1       1.720   7.317  20.679  0.00  0.00    +0.000 C 
BRANCH  18  19
ATOM     19  C   UNL     1       1.281   8.711  20.287  0.00  0.00    +0.000 A 
ATOM     20  C   UNL     1       1.383   9.127  18.950  0.00  0.00    +0.000 A 
ATOM     21  C   UNL     1       1.113  10.449  18.590  0.00  0.00    +0.000 A 
ATOM     22  C   UNL     1       0.750  11.376  19.565  0.00  0.00    +0.000 A 
ATOM     23  C   UNL     1       0.663  10.988  20.899  0.00  0.00    +0.000 A 
ATOM     24  C   UNL     1       0.907   9.656  21.252  0.00  0.00    +0.000 A 
BRANCH  23  25
ATOM     25  O   UNL     1       0.326  11.986  21.775  0.00  0.00    +0.000 OA
ATOM     26  C   UNL     1       0.614  13.301  21.319  0.00  0.00    +0.000 C 
ENDBRANCH  23  25
ENDBRANCH  18  19
ENDBRANCH  17  18
ENDBRANCH   6  17
TORSDOF 8
ENDMDL
MODEL 6
REMARK VINA RESULT:      -7.5      1.390      6.330
REMARK  Name = 
REMARK  10 active torsions:
REMARK  status: ('A' for Active; 'I' for Inactive)
REMARK    1  A    between atoms: C_1  and  O_2
REMARK    2  A    between atoms: O_2  and  C_3
REMARK    3  A    between atoms: C_6  and  C_7
REMARK    4  A    between atoms: C_7  and  O_8
REMARK    5  A    between atoms: O_8  and  C_9
REMARK    6  A    between atoms: C_14  and  C_15
REMARK    7  A    between atoms: C_15  and  C_16
REMARK    8  A    between atoms: C_16  and  C_17
REMARK    9  A    between atoms: C_21  and  O_22
REMARK   10  A    between atoms: O_22  and  C_23
REMARK                            x       y       z     vdW  Elec       q    Type
REMARK                         _______ _______ _______ _____ _____    ______ ____
ROOT
ATOM      1  C   UNL     1       2.186   4.937  20.061  0.00  0.00    +0.000 A 
ATOM      2  C   UNL     1       1.762   4.124  21.123  0.00  0.00    +0.000 A 
ATOM      3  C   UNL     1       1.459   2.777  20.916  0.00  0.00    +0.000 A 
ATOM      4  C   UNL     1       1.588   2.220  19.653  0.00  0.00    +0.000 A 
ATOM      5  C   UNL     1       2.026   3.010  18.591  0.00  0.00    +0.000 A 
ATOM      6  C   UNL     1       2.319   4.375  18.773  0.00  0.00    +0.000 A 
ENDROOT
BRANCH   1   7
ATOM      7  O   UNL     1       2.505   6.265  20.211  0.00  0.00    +0.000 OA
BRANCH   7   8
ATOM      8  C   UNL     1       1.573   7.099  20.919  0.00  0.00    +0.000 C 
BRANCH   8  12
ATOM      9  C   UNL     1       1.126  10.943  18.951  0.00  0.00    +0.000 A 
ATOM     10  C   UNL     1       0.715  10.764  20.267  0.00  0.00    +0.000 A 
ATOM     11  C   UNL     1       0.839   9.522  20.891  0.00  0.00    +0.000 A 
ATOM     12  C   UNL     1       1.353   8.419  20.205  0.00  0.00    +0.000 A 
ATOM     13  C   UNL     1       1.742   8.598  18.867  0.00  0.00    +0.000 A 
ATOM     14  C   UNL     1       1.626   9.852  18.241  0.00  0.00    +0.000 A 
BRANCH   9  16
ATOM     15  C   UNL     1       0.936  13.248  19.448  0.00  0.00    +0.000 C 
ATOM     16  O   UNL     1       0.964  12.213  18.475  0.00  0.00    +0.000 OA
ENDBRANCH   9  16
ENDBRANCH   8  12
ENDBRANCH   7   8
ENDBRANCH   1   7
BRANCH   6  17
ATOM     17  C   UNL     1       2.861   5.159  17.591  0.00  0.00    +0.000 C 
BRANCH  17  18
ATOM     18  C   UNL     1       4.197   4.669  16.991  0.00  0.00    +0.000 C 
BRANCH  18  19
ATOM     19  C   UNL     1       5.483   5.252  17.535  0.00  0.00    +0.000 A 
ATOM     20  C   UNL     1       5.996   4.795  18.759  0.00  0.00    +0.000 A 
ATOM     21  C   UNL     1       7.104   5.411  19.346  0.00  0.00    +0.000 A 
ATOM     22  C   UNL     1       7.704   6.503  18.722  0.00  0.00    +0.000 A 
ATOM     23  C   UNL     1       7.197   6.985  17.518  0.00  0.00    +0.000 A 
ATOM     24  C   UNL     1       6.105   6.347  16.919  0.00  0.00    +0.000 A 
BRANCH  23  25
ATOM     25  O   UNL     1       7.847   8.078  17.009  0.00  0.00    +0.000 OA
ATOM     26  C   UNL     1       8.266   9.028  17.980  0.00  0.00    +0.000 C 
ENDBRANCH  23  25
ENDBRANCH  18  19
ENDBRANCH  17  18
ENDBRANCH   6  17
TORSDOF 8
ENDMDL
MODEL 7
REMARK VINA RESULT:      -7.5      1.142      1.302
REMARK  Name = 
REMARK  10 active torsions:
REMARK  status: ('A' for Active; 'I' for Inactive)
REMARK    1  A    between atoms: C_1  and  O_2
REMARK    2  A    between atoms: O_2  and  C_3
REMARK    3  A    between atoms: C_6  and  C_7
REMARK    4  A    between atoms: C_7  and  O_8
REMARK    5  A    between atoms: O_8  and  C_9
REMARK    6  A    between atoms: C_14  and  C_15
REMARK    7  A    between atoms: C_15  and  C_16
REMARK    8  A    between atoms: C_16  and  C_17
REMARK    9  A    between atoms: C_21  and  O_22
REMARK   10  A    between atoms: O_22  and  C_23
REMARK                            x       y       z     vdW  Elec       q    Type
REMARK                         _______ _______ _______ _____ _____    ______ ____
ROOT
ATOM      1  C   UNL     1       3.829   3.546  19.236  0.00  0.00    +0.000 A 
ATOM      2  C   UNL     1       3.403   2.224  19.043  0.00  0.00    +0.000 A 
ATOM      3  C   UNL     1       2.046   1.919  18.918  0.00  0.00    +0.000 A 
ATOM      4  C   UNL     1       1.099   2.929  18.969  0.00  0.00    +0.000 A 
ATOM      5  C   UNL     1       1.506   4.251  19.142  0.00  0.00    +0.000 A 
ATOM      6  C   UNL     1       2.868   4.579  19.290  0.00  0.00    +0.000 A 
ENDROOT
BRANCH   1   7
ATOM      7  O   UNL     1       5.151   3.902  19.357  0.00  0.00    +0.000 OA
BRANCH   7   8
ATOM      8  C   UNL     1       5.933   3.978  18.153  0.00  0.00    +0.000 C 
BRANCH   8  12
ATOM      9  C   UNL     1       7.739   7.918  17.890  0.00  0.00    +0.000 A 
ATOM     10  C   UNL     1       6.689   7.557  17.052  0.00  0.00    +0.000 A 
ATOM     11  C   UNL     1       6.124   6.284  17.123  0.00  0.00    +0.000 A 
ATOM     12  C   UNL     1       6.613   5.327  18.016  0.00  0.00    +0.000 A 
ATOM     13  C   UNL     1       7.692   5.687  18.841  0.00  0.00    +0.000 A 
ATOM     14  C   UNL     1       8.254   6.974  18.776  0.00  0.00    +0.000 A 
BRANCH   9  16
ATOM     15  C   UNL     1       8.933   9.746  18.800  0.00  0.00    +0.000 C 
ATOM     16  O   UNL     1       8.180   9.200  17.725  0.00  0.00    +0.000 OA
ENDBRANCH   9  16
ENDBRANCH   8  12
ENDBRANCH   7   8
ENDBRANCH   1   7
BRANCH   6  17
ATOM     17  C   UNL     1       3.248   6.045  19.402  0.00  0.00    +0.000 C 
BRANCH  17  18
ATOM     18  C   UNL     1       2.702   6.985  18.306  0.00  0.00    +0.000 C 
BRANCH  18  19
ATOM     19  C   UNL     1       1.986   8.247  18.736  0.00  0.00    +0.000 A 
ATOM     20  C   UNL     1       1.959   9.361  17.883  0.00  0.00    +0.000 A 
ATOM     21  C   UNL     1       1.424  10.578  18.312  0.00  0.00    +0.000 A 
ATOM     22  C   UNL     1       0.921  10.699  19.606  0.00  0.00    +0.000 A 
ATOM     23  C   UNL     1       0.958   9.611  20.475  0.00  0.00    +0.000 A 
ATOM     24  C   UNL     1       1.469   8.386  20.031  0.00  0.00    +0.000 A 
BRANCH  23  25
ATOM     25  O   UNL     1       0.463   9.851  21.729  0.00  0.00    +0.000 OA
ATOM     26  C   UNL     1      -0.427   8.856  22.219  0.00  0.00    +0.000 C 
ENDBRANCH  23  25
ENDBRANCH  18  19
ENDBRANCH  17  18
ENDBRANCH   6  17
TORSDOF 8
ENDMDL
MODEL 8
REMARK VINA RESULT:      -7.4      1.342      1.954
REMARK  Name = 
REMARK  10 active torsions:
REMARK  status: ('A' for Active; 'I' for Inactive)
REMARK    1  A    between atoms: C_1  and  O_2
REMARK    2  A    between atoms: O_2  and  C_3
REMARK    3  A    between atoms: C_6  and  C_7
REMARK    4  A    between atoms: C_7  and  O_8
REMARK    5  A    between atoms: O_8  and  C_9
REMARK    6  A    between atoms: C_14  and  C_15
REMARK    7  A    between atoms: C_15  and  C_16
REMARK    8  A    between atoms: C_16  and  C_17
REMARK    9  A    between atoms: C_21  and  O_22
REMARK   10  A    between atoms: O_22  and  C_23
REMARK                            x       y       z     vdW  Elec       q    Type
REMARK                         _______ _______ _______ _____ _____    ______ ____
ROOT
ATOM      1  C   UNL     1       2.044   3.593  18.419  0.00  0.00    +0.000 A 
ATOM      2  C   UNL     1       1.816   2.368  19.062  0.00  0.00    +0.000 A 
ATOM      3  C   UNL     1       1.467   2.324  20.414  0.00  0.00    +0.000 A 
ATOM      4  C   UNL     1       1.327   3.499  21.136  0.00  0.00    +0.000 A 
ATOM      5  C   UNL     1       1.534   4.725  20.506  0.00  0.00    +0.000 A 
ATOM      6  C   UNL     1       1.905   4.793  19.149  0.00  0.00    +0.000 A 
ENDROOT
BRANCH   1   7
ATOM      7  O   UNL     1       2.382   3.694  17.090  0.00  0.00    +0.000 OA
BRANCH   7   8
ATOM      8  C   UNL     1       3.675   3.210  16.692  0.00  0.00    +0.000 C 
BRANCH   8  12
ATOM      9  C   UNL     1       6.697   6.023  18.037  0.00  0.00    +0.000 A 
ATOM     10  C   UNL     1       6.105   6.156  16.785  0.00  0.00    +0.000 A 
ATOM     11  C   UNL     1       5.150   5.239  16.346  0.00  0.00    +0.000 A 
ATOM     12  C   UNL     1       4.782   4.148  17.136  0.00  0.00    +0.000 A 
ATOM     13  C   UNL     1       5.402   4.002  18.389  0.00  0.00    +0.000 A 
ATOM     14  C   UNL     1       6.358   4.932  18.835  0.00  0.00    +0.000 A 
BRANCH   9  16
ATOM     15  C   UNL     1       7.663   8.099  17.444  0.00  0.00    +0.000 C 
ATOM     16  O   UNL     1       7.599   7.002  18.344  0.00  0.00    +0.000 OA
ENDBRANCH   9  16
ENDBRANCH   8  12
ENDBRANCH   7   8
ENDBRANCH   1   7
BRANCH   6  17
ATOM     17  C   UNL     1       2.042   6.162  18.507  0.00  0.00    +0.000 C 
BRANCH  17  18
ATOM     18  C   UNL     1       2.617   7.287  19.395  0.00  0.00    +0.000 C 
BRANCH  18  19
ATOM     19  C   UNL     1       1.666   8.335  19.931  0.00  0.00    +0.000 A 
ATOM     20  C   UNL     1       1.242   8.277  21.268  0.00  0.00    +0.000 A 
ATOM     21  C   UNL     1       0.263   9.150  21.746  0.00  0.00    +0.000 A 
ATOM     22  C   UNL     1      -0.317  10.083  20.888  0.00  0.00    +0.000 A 
ATOM     23  C   UNL     1       0.074  10.141  19.553  0.00  0.00    +0.000 A 
ATOM     24  C   UNL     1       1.077   9.285  19.085  0.00  0.00    +0.000 A 
BRANCH  23  25
ATOM     25  O   UNL     1      -0.580  11.076  18.795  0.00  0.00    +0.000 OA
ATOM     26  C   UNL     1      -1.538  10.544  17.889  0.00  0.00    +0.000 C 
ENDBRANCH  23  25
ENDBRANCH  18  19
ENDBRANCH  17  18
ENDBRANCH   6  17
TORSDOF 8
ENDMDL
MODEL 9
REMARK VINA RESULT:      -7.4      1.612      2.262
REMARK  Name = 
REMARK  10 active torsions:
REMARK  status: ('A' for Active; 'I' for Inactive)
REMARK    1  A    between atoms: C_1  and  O_2
REMARK    2  A    between atoms: O_2  and  C_3
REMARK    3  A    between atoms: C_6  and  C_7
REMARK    4  A    between atoms: C_7  and  O_8
REMARK    5  A    between atoms: O_8  and  C_9
REMARK    6  A    between atoms: C_14  and  C_15
REMARK    7  A    between atoms: C_15  and  C_16
REMARK    8  A    between atoms: C_16  and  C_17
REMARK    9  A    between atoms: C_21  and  O_22
REMARK   10  A    between atoms: O_22  and  C_23
REMARK                            x       y       z     vdW  Elec       q    Type
REMARK                         _______ _______ _______ _____ _____    ______ ____
ROOT
ATOM      1  C   UNL     1       4.128   3.710  18.756  0.00  0.00    +0.000 A 
ATOM      2  C   UNL     1       3.684   2.412  18.468  0.00  0.00    +0.000 A 
ATOM      3  C   UNL     1       2.340   2.162  18.182  0.00  0.00    +0.000 A 
ATOM      4  C   UNL     1       1.426   3.204  18.165  0.00  0.00    +0.000 A 
ATOM      5  C   UNL     1       1.855   4.503  18.432  0.00  0.00    +0.000 A 
ATOM      6  C   UNL     1       3.202   4.775  18.742  0.00  0.00    +0.000 A 
ENDROOT
BRANCH   1   7
ATOM      7  O   UNL     1       5.439   4.012  19.036  0.00  0.00    +0.000 OA
BRANCH   7   8
ATOM      8  C   UNL     1       6.338   4.171  17.925  0.00  0.00    +0.000 C 
BRANCH   8  12
ATOM      9  C   UNL     1       8.086   8.142  18.066  0.00  0.00    +0.000 A 
ATOM     10  C   UNL     1       7.251   7.768  17.019  0.00  0.00    +0.000 A 
ATOM     11  C   UNL     1       6.707   6.484  16.964  0.00  0.00    +0.000 A 
ATOM     12  C   UNL     1       7.008   5.532  17.941  0.00  0.00    +0.000 A 
ATOM     13  C   UNL     1       7.873   5.907  18.982  0.00  0.00    +0.000 A 
ATOM     14  C   UNL     1       8.414   7.204  19.043  0.00  0.00    +0.000 A 
BRANCH   9  16
ATOM     15  C   UNL     1       9.123   9.950  19.186  0.00  0.00    +0.000 C 
ATOM     16  O   UNL     1       8.530   9.433  18.003  0.00  0.00    +0.000 OA
ENDBRANCH   9  16
ENDBRANCH   8  12
ENDBRANCH   7   8
ENDBRANCH   1   7
BRANCH   6  17
ATOM     17  C   UNL     1       3.616   6.221  18.950  0.00  0.00    +0.000 C 
BRANCH  17  18
ATOM     18  C   UNL     1       2.802   7.289  18.187  0.00  0.00    +0.000 C 
BRANCH  18  19
ATOM     19  C   UNL     1       1.915   8.220  18.986  0.00  0.00    +0.000 A 
ATOM     20  C   UNL     1       1.695   7.977  20.351  0.00  0.00    +0.000 A 
ATOM     21  C   UNL     1       0.776   8.740  21.074  0.00  0.00    +0.000 A 
ATOM     22  C   UNL     1       0.054   9.748  20.437  0.00  0.00    +0.000 A 
ATOM     23  C   UNL     1       0.242   9.990  19.079  0.00  0.00    +0.000 A 
ATOM     24  C   UNL     1       1.185   9.242  18.365  0.00  0.00    +0.000 A 
BRANCH  23  25
ATOM     25  O   UNL     1      -0.539  10.983  18.551  0.00  0.00    +0.000 OA
ATOM     26  C   UNL     1      -1.530  10.539  17.634  0.00  0.00    +0.000 C 
ENDBRANCH  23  25
ENDBRANCH  18  19
ENDBRANCH  17  18
ENDBRANCH   6  17
TORSDOF 8
ENDMDL
