MODEL 1
REMARK VINA RESULT:      -7.2      0.000      0.000
REMARK  Name = 
REMARK  4 active torsions:
REMARK  status: ('A' for Active; 'I' for Inactive)
REMARK    1  A    between atoms: C_1  and  N_2
REMARK    2  A    between atoms: N_8  and  C_9
REMARK    3  A    between atoms: C_16  and  C_17
REMARK    4  A    between atoms: C_17  and  C_19
REMARK                            x       y       z     vdW  Elec       q    Type
REMARK                         _______ _______ _______ _____ _____    ______ ____
ROOT
ATOM      1  C   UNL     1       1.175  18.139  17.449  0.00  0.00    +0.000 C 
ATOM      2  N   UNL     1       0.159  17.366  18.162  0.00  0.00    +0.000 NA
ATOM      3  C   UNL     1      -0.349  18.115  19.326  0.00  0.00    +0.000 C 
ATOM      4  C   UNL     1      -1.533  17.374  19.949  0.00  0.00    +0.000 C 
ATOM      5  C   UNL     1      -1.217  15.932  20.229  0.00  0.00    +0.000 A 
ATOM      6  N   UNL     1      -1.989  15.295  21.143  0.00  0.00    +0.000 NA
ATOM      7  C   UNL     1      -1.756  13.971  21.317  0.00  0.00    +0.000 A 
ATOM      8  N   UNL     1      -2.554  13.246  22.247  0.00  0.00    +0.000 N 
ATOM      9  C   UNL     1      -0.729  13.287  20.592  0.00  0.00    +0.000 A 
ATOM     10  N   UNL     1      -0.582  11.893  20.680  0.00  0.00    +0.000 N 
ATOM     11  C   UNL     1       0.107  11.275  19.549  0.00  0.00    +0.000 C 
ATOM     12  C   UNL     1      -0.396   9.834  19.469  0.00  0.00    +0.000 C 
ATOM     13  C   UNL     1      -0.111   9.058  20.771  0.00  0.00    +0.000 C 
ATOM     14  C   UNL     1      -0.678   9.848  21.973  0.00  0.00    +0.000 C 
ATOM     15  C   UNL     1      -0.231  11.318  21.984  0.00  0.00    +0.000 C 
ATOM     16  N   UNL     1       0.050  13.960  19.703  0.00  0.00    +0.000 NA
ATOM     17  C   UNL     1      -0.210  15.280  19.523  0.00  0.00    +0.000 A 
ATOM     18  C   UNL     1       0.709  16.066  18.609  0.00  0.00    +0.000 C 
ATOM     19  H   UNL     1      -2.845  12.382  21.794  0.00  0.00    +0.000 HD
ENDROOT
BRANCH   8  20
ATOM     20  C   UNL     1      -3.495  13.945  23.112  0.00  0.00    +0.000 C 
ATOM     21  C   UNL     1      -4.874  13.432  23.394  0.00  0.00    +0.000 C 
ATOM     22  C   UNL     1      -3.825  13.376  24.466  0.00  0.00    +0.000 C 
ENDBRANCH   8  20
BRANCH  13  23
ATOM     23  C   UNL     1       1.387   8.716  20.970  0.00  0.00    +0.000 C 
ATOM     24  F   UNL     1       1.588   8.560  22.316  0.00  0.00    +0.000 F 
BRANCH  23  25
ATOM     25  C   UNL     1       1.798   7.467  20.225  0.00  0.00    +0.000 A 
ATOM     26  C   UNL     1       1.572   6.192  20.773  0.00  0.00    +0.000 A 
ATOM     27  C   UNL     1       1.849   5.046  20.023  0.00  0.00    +0.000 A 
ATOM     28  C   UNL     1       2.366   5.168  18.738  0.00  0.00    +0.000 A 
ATOM     29  F   UNL     1       2.600   4.068  18.013  0.00  0.00    +0.000 F 
ATOM     30  C   UNL     1       2.651   6.417  18.198  0.00  0.00    +0.000 A 
ATOM     31  C   UNL     1       2.365   7.553  18.945  0.00  0.00    +0.000 A 
ATOM     32  F   UNL     1       2.621   8.757  18.410  0.00  0.00    +0.000 F 
ENDBRANCH  23  25
ENDBRANCH  13  23
TORSDOF 3
ENDMDL
MODEL 2
REMARK VINA RESULT:      -7.0      2.404      5.254
REMARK  Name = 
REMARK  4 active torsions:
REMARK  status: ('A' for Active; 'I' for Inactive)
REMARK    1  A    between atoms: C_1  and  N_2
REMARK    2  A    between atoms: N_8  and  C_9
REMARK    3  A    between atoms: C_16  and  C_17
REMARK    4  A    between atoms: C_17  and  C_19
REMARK                            x       y       z     vdW  Elec       q    Type
REMARK                         _______ _______ _______ _____ _____    ______ ____
ROOT
ATOM      1  C   UNL     1      -3.650  12.597  24.055  0.00  0.00    +0.000 C 
ATOM      2  N   UNL     1      -2.398  12.762  23.317  0.00  0.00    +0.000 NA
ATOM      3  C   UNL     1      -2.453  13.953  22.451  0.00  0.00    +0.000 C 
ATOM      4  C   UNL     1      -1.080  14.213  21.830  0.00  0.00    +0.000 C 
ATOM      5  C   UNL     1      -0.515  12.989  21.167  0.00  0.00    +0.000 A 
ATOM      6  N   UNL     1       0.452  13.179  20.237  0.00  0.00    +0.000 NA
ATOM      7  C   UNL     1       1.019  12.064  19.714  0.00  0.00    +0.000 A 
ATOM      8  N   UNL     1       2.058  12.203  18.751  0.00  0.00    +0.000 N 
ATOM      9  C   UNL     1       0.598  10.753  20.106  0.00  0.00    +0.000 A 
ATOM     10  N   UNL     1       1.279   9.608  19.660  0.00  0.00    +0.000 N 
ATOM     11  C   UNL     1       1.109   8.425  20.504  0.00  0.00    +0.000 C 
ATOM     12  C   UNL     1       2.353   7.562  20.295  0.00  0.00    +0.000 C 
ATOM     13  C   UNL     1       2.526   7.158  18.817  0.00  0.00    +0.000 C 
ATOM     14  C   UNL     1       2.493   8.425  17.932  0.00  0.00    +0.000 C 
ATOM     15  C   UNL     1       1.281   9.323  18.221  0.00  0.00    +0.000 C 
ATOM     16  N   UNL     1      -0.396  10.594  21.020  0.00  0.00    +0.000 NA
ATOM     17  C   UNL     1      -0.939  11.720  21.550  0.00  0.00    +0.000 A 
ATOM     18  C   UNL     1      -2.113  11.564  22.497  0.00  0.00    +0.000 C 
ATOM     19  H   UNL     1       2.808  11.568  19.014  0.00  0.00    +0.000 HD
ENDROOT
BRANCH   8  20
ATOM     20  C   UNL     1       2.395  13.516  18.217  0.00  0.00    +0.000 C 
ATOM     21  C   UNL     1       2.967  14.615  19.062  0.00  0.00    +0.000 C 
ATOM     22  C   UNL     1       3.840  13.910  18.064  0.00  0.00    +0.000 C 
ENDBRANCH   8  20
BRANCH  13  23
ATOM     23  C   UNL     1       1.493   6.105  18.341  0.00  0.00    +0.000 C 
ATOM     24  F   UNL     1       1.110   6.461  17.076  0.00  0.00    +0.000 F 
BRANCH  23  25
ATOM     25  C   UNL     1       2.054   4.701  18.350  0.00  0.00    +0.000 A 
ATOM     26  C   UNL     1       3.107   4.340  17.491  0.00  0.00    +0.000 A 
ATOM     27  C   UNL     1       3.693   3.076  17.592  0.00  0.00    +0.000 A 
ATOM     28  C   UNL     1       3.221   2.167  18.534  0.00  0.00    +0.000 A 
ATOM     29  F   UNL     1       3.807   0.969  18.647  0.00  0.00    +0.000 F 
ATOM     30  C   UNL     1       2.143   2.483  19.354  0.00  0.00    +0.000 A 
ATOM     31  C   UNL     1       1.571   3.745  19.254  0.00  0.00    +0.000 A 
ATOM     32  F   UNL     1       0.546   4.052  20.064  0.00  0.00    +0.000 F 
ENDBRANCH  23  25
ENDBRANCH  13  23
TORSDOF 3
ENDMDL
MODEL 3
REMARK VINA RESULT:      -6.8      2.074      2.139
REMARK  Name = 
REMARK  4 active torsions:
REMARK  status: ('A' for Active; 'I' for Inactive)
REMARK    1  A    between atoms: C_1  and  N_2
REMARK    2  A    between atoms: N_8  and  C_9
REMARK    3  A    between atoms: C_16  and  C_17
REMARK    4  A    between atoms: C_17  and  C_19
REMARK                            x       y       z     vdW  Elec       q    Type
REMARK                         _______ _______ _______ _____ _____    ______ ____
ROOT
ATOM      1  C   UNL     1       3.362  18.302  22.488  0.00  0.00    +0.000 C 
ATOM      2  N   UNL     1       2.106  17.569  22.336  0.00  0.00    +0.000 NA
ATOM      3  C   UNL     1       1.194  17.852  23.458  0.00  0.00    +0.000 C 
ATOM      4  C   UNL     1      -0.175  17.225  23.191  0.00  0.00    +0.000 C 
ATOM      5  C   UNL     1      -0.073  15.771  22.826  0.00  0.00    +0.000 A 
ATOM      6  N   UNL     1      -1.185  15.012  22.986  0.00  0.00    +0.000 NA
ATOM      7  C   UNL     1      -1.108  13.725  22.565  0.00  0.00    +0.000 A 
ATOM      8  N   UNL     1      -2.253  12.890  22.685  0.00  0.00    +0.000 N 
ATOM      9  C   UNL     1       0.096  13.189  22.005  0.00  0.00    +0.000 A 
ATOM     10  N   UNL     1       0.127  11.899  21.452  0.00  0.00    +0.000 N 
ATOM     11  C   UNL     1       1.197  11.673  20.481  0.00  0.00    +0.000 C 
ATOM     12  C   UNL     1       0.707  10.568  19.545  0.00  0.00    +0.000 C 
ATOM     13  C   UNL     1       0.385   9.271  20.314  0.00  0.00    +0.000 C 
ATOM     14  C   UNL     1      -0.594   9.588  21.467  0.00  0.00    +0.000 C 
ATOM     15  C   UNL     1      -0.125  10.760  22.342  0.00  0.00    +0.000 C 
ATOM     16  N   UNL     1       1.205  13.967  21.886  0.00  0.00    +0.000 NA
ATOM     17  C   UNL     1       1.106  15.259  22.292  0.00  0.00    +0.000 A 
ATOM     18  C   UNL     1       2.358  16.112  22.255  0.00  0.00    +0.000 C 
ATOM     19  H   UNL     1      -2.368  12.397  21.802  0.00  0.00    +0.000 HD
ENDROOT
BRANCH   8  20
ATOM     20  C   UNL     1      -3.436  13.359  23.394  0.00  0.00    +0.000 C 
ATOM     21  C   UNL     1      -4.813  12.843  23.107  0.00  0.00    +0.000 C 
ATOM     22  C   UNL     1      -4.122  12.453  24.381  0.00  0.00    +0.000 C 
ENDBRANCH   8  20
BRANCH  13  23
ATOM     23  C   UNL     1       1.645   8.528  20.826  0.00  0.00    +0.000 C 
ATOM     24  F   UNL     1       1.462   8.301  22.164  0.00  0.00    +0.000 F 
BRANCH  23  25
ATOM     25  C   UNL     1       1.886   7.227  20.095  0.00  0.00    +0.000 A 
ATOM     26  C   UNL     1       1.545   5.996  20.683  0.00  0.00    +0.000 A 
ATOM     27  C   UNL     1       1.662   4.811  19.951  0.00  0.00    +0.000 A 
ATOM     28  C   UNL     1       2.134   4.850  18.643  0.00  0.00    +0.000 A 
ATOM     29  F   UNL     1       2.216   3.716  17.937  0.00  0.00    +0.000 F 
ATOM     30  C   UNL     1       2.532   6.049  18.062  0.00  0.00    +0.000 A 
ATOM     31  C   UNL     1       2.403   7.224  18.792  0.00  0.00    +0.000 A 
ATOM     32  F   UNL     1       2.767   8.382  18.218  0.00  0.00    +0.000 F 
ENDBRANCH  23  25
ENDBRANCH  13  23
TORSDOF 3
ENDMDL
MODEL 4
REMARK VINA RESULT:      -6.8      2.393      5.103
REMARK  Name = 
REMARK  4 active torsions:
REMARK  status: ('A' for Active; 'I' for Inactive)
REMARK    1  A    between atoms: C_1  and  N_2
REMARK    2  A    between atoms: N_8  and  C_9
REMARK    3  A    between atoms: C_16  and  C_17
REMARK    4  A    between atoms: C_17  and  C_19
REMARK                            x       y       z     vdW  Elec       q    Type
REMARK                         _______ _______ _______ _____ _____    ______ ____
ROOT
ATOM      1  C   UNL     1      -3.778  12.553  24.128  0.00  0.00    +0.000 C 
ATOM      2  N   UNL     1      -2.527  12.751  23.396  0.00  0.00    +0.000 NA
ATOM      3  C   UNL     1      -2.608  13.943  22.533  0.00  0.00    +0.000 C 
ATOM      4  C   UNL     1      -1.239  14.238  21.919  0.00  0.00    +0.000 C 
ATOM      5  C   UNL     1      -0.642  13.030  21.255  0.00  0.00    +0.000 A 
ATOM      6  N   UNL     1       0.325  13.245  20.329  0.00  0.00    +0.000 NA
ATOM      7  C   UNL     1       0.922  12.146  19.806  0.00  0.00    +0.000 A 
ATOM      8  N   UNL     1       1.960  12.313  18.848  0.00  0.00    +0.000 N 
ATOM      9  C   UNL     1       0.531  10.824  20.193  0.00  0.00    +0.000 A 
ATOM     10  N   UNL     1       1.242   9.697  19.748  0.00  0.00    +0.000 N 
ATOM     11  C   UNL     1       1.097   8.509  20.587  0.00  0.00    +0.000 C 
ATOM     12  C   UNL     1       2.363   7.677  20.382  0.00  0.00    +0.000 C 
ATOM     13  C   UNL     1       2.551   7.281  18.904  0.00  0.00    +0.000 C 
ATOM     14  C   UNL     1       2.492   8.549  18.022  0.00  0.00    +0.000 C 
ATOM     15  C   UNL     1       1.256   9.416  18.307  0.00  0.00    +0.000 C 
ATOM     16  N   UNL     1      -0.463  10.638  21.102  0.00  0.00    +0.000 NA
ATOM     17  C   UNL     1      -1.036  11.749  21.632  0.00  0.00    +0.000 A 
ATOM     18  C   UNL     1      -2.209  11.562  22.574  0.00  0.00    +0.000 C 
ATOM     19  H   UNL     1       2.725  11.696  19.113  0.00  0.00    +0.000 HD
ENDROOT
BRANCH   8  20
ATOM     20  C   UNL     1       2.267  13.635  18.319  0.00  0.00    +0.000 C 
ATOM     21  C   UNL     1       2.913  14.710  19.141  0.00  0.00    +0.000 C 
ATOM     22  C   UNL     1       3.700  14.021  18.063  0.00  0.00    +0.000 C 
ENDBRANCH   8  20
BRANCH  13  23
ATOM     23  C   UNL     1       1.547   6.204  18.421  0.00  0.00    +0.000 C 
ATOM     24  F   UNL     1       1.208   6.519  17.132  0.00  0.00    +0.000 F 
BRANCH  23  25
ATOM     25  C   UNL     1       2.119   4.807  18.492  0.00  0.00    +0.000 A 
ATOM     26  C   UNL     1       1.522   3.824  19.302  0.00  0.00    +0.000 A 
ATOM     27  C   UNL     1       1.989   2.507  19.268  0.00  0.00    +0.000 A 
ATOM     28  C   UNL     1       3.059   2.174  18.444  0.00  0.00    +0.000 A 
ATOM     29  F   UNL     1       3.483   0.905  18.392  0.00  0.00    +0.000 F 
ATOM     30  C   UNL     1       3.701   3.141  17.679  0.00  0.00    +0.000 A 
ATOM     31  C   UNL     1       3.225   4.447  17.710  0.00  0.00    +0.000 A 
ATOM     32  F   UNL     1       3.833   5.372  16.952  0.00  0.00    +0.000 F 
ENDBRANCH  23  25
ENDBRANCH  13  23
TORSDOF 3
ENDMDL
MODEL 5
REMARK VINA RESULT:      -6.8      0.970      1.366
REMARK  Name = 
REMARK  4 active torsions:
REMARK  status: ('A' for Active; 'I' for Inactive)
REMARK    1  A    between atoms: C_1  and  N_2
REMARK    2  A    between atoms: N_8  and  C_9
REMARK    3  A    between atoms: C_16  and  C_17
REMARK    4  A    between atoms: C_17  and  C_19
REMARK                            x       y       z     vdW  Elec       q    Type
REMARK                         _______ _______ _______ _____ _____    ______ ____
ROOT
ATOM      1  C   UNL     1       0.200  18.092  17.493  0.00  0.00    +0.000 C 
ATOM      2  N   UNL     1      -0.697  17.220  18.251  0.00  0.00    +0.000 NA
ATOM      3  C   UNL     1      -1.195  17.903  19.459  0.00  0.00    +0.000 C 
ATOM      4  C   UNL     1      -2.267  17.050  20.138  0.00  0.00    +0.000 C 
ATOM      5  C   UNL     1      -1.808  15.638  20.368  0.00  0.00    +0.000 A 
ATOM      6  N   UNL     1      -2.461  14.921  21.315  0.00  0.00    +0.000 NA
ATOM      7  C   UNL     1      -2.101  13.620  21.448  0.00  0.00    +0.000 A 
ATOM      8  N   UNL     1      -2.771  12.813  22.409  0.00  0.00    +0.000 N 
ATOM      9  C   UNL     1      -1.065  13.042  20.647  0.00  0.00    +0.000 A 
ATOM     10  N   UNL     1      -0.790  11.666  20.698  0.00  0.00    +0.000 N 
ATOM     11  C   UNL     1      -0.121  11.129  19.513  0.00  0.00    +0.000 C 
ATOM     12  C   UNL     1      -0.498   9.650  19.436  0.00  0.00    +0.000 C 
ATOM     13  C   UNL     1      -0.065   8.884  20.701  0.00  0.00    +0.000 C 
ATOM     14  C   UNL     1      -0.623   9.602  21.952  0.00  0.00    +0.000 C 
ATOM     15  C   UNL     1      -0.308  11.105  21.965  0.00  0.00    +0.000 C 
ATOM     16  N   UNL     1      -0.407  13.795  19.726  0.00  0.00    +0.000 NA
ATOM     17  C   UNL     1      -0.793  15.090  19.590  0.00  0.00    +0.000 A 
ATOM     18  C   UNL     1      -0.007  15.969  18.637  0.00  0.00    +0.000 C 
ATOM     19  H   UNL     1      -3.013  11.933  21.957  0.00  0.00    +0.000 HD
ENDROOT
BRANCH   8  20
ATOM     20  C   UNL     1      -3.714  13.411  23.344  0.00  0.00    +0.000 C 
ATOM     21  C   UNL     1      -4.199  12.704  24.574  0.00  0.00    +0.000 C 
ATOM     22  C   UNL     1      -3.239  13.851  24.703  0.00  0.00    +0.000 C 
ENDBRANCH   8  20
BRANCH  13  23
ATOM     23  C   UNL     1       1.467   8.674  20.801  0.00  0.00    +0.000 C 
ATOM     24  F   UNL     1       1.734   8.257  22.078  0.00  0.00    +0.000 F 
BRANCH  23  25
ATOM     25  C   UNL     1       1.980   7.668  19.797  0.00  0.00    +0.000 A 
ATOM     26  C   UNL     1       2.549   8.088  18.581  0.00  0.00    +0.000 A 
ATOM     27  C   UNL     1       3.125   7.155  17.716  0.00  0.00    +0.000 A 
ATOM     28  C   UNL     1       3.119   5.804  18.051  0.00  0.00    +0.000 A 
ATOM     29  F   UNL     1       3.699   4.918  17.233  0.00  0.00    +0.000 F 
ATOM     30  C   UNL     1       2.511   5.361  19.220  0.00  0.00    +0.000 A 
ATOM     31  C   UNL     1       1.948   6.296  20.080  0.00  0.00    +0.000 A 
ATOM     32  F   UNL     1       1.383   5.864  21.218  0.00  0.00    +0.000 F 
ENDBRANCH  23  25
ENDBRANCH  13  23
TORSDOF 3
ENDMDL
MODEL 6
REMARK VINA RESULT:      -6.6      2.098      2.745
REMARK  Name = 
REMARK  4 active torsions:
REMARK  status: ('A' for Active; 'I' for Inactive)
REMARK    1  A    between atoms: C_1  and  N_2
REMARK    2  A    between atoms: N_8  and  C_9
REMARK    3  A    between atoms: C_16  and  C_17
REMARK    4  A    between atoms: C_17  and  C_19
REMARK                            x       y       z     vdW  Elec       q    Type
REMARK                         _______ _______ _______ _____ _____    ______ ____
ROOT
ATOM      1  C   UNL     1       5.385  16.968  18.677  0.00  0.00    +0.000 C 
ATOM      2  N   UNL     1       4.032  16.413  18.650  0.00  0.00    +0.000 NA
ATOM      3  C   UNL     1       3.152  17.134  19.587  0.00  0.00    +0.000 C 
ATOM      4  C   UNL     1       1.707  16.664  19.414  0.00  0.00    +0.000 C 
ATOM      5  C   UNL     1       1.585  15.168  19.474  0.00  0.00    +0.000 A 
ATOM      6  N   UNL     1       0.363  14.657  19.764  0.00  0.00    +0.000 NA
ATOM      7  C   UNL     1       0.243  13.307  19.722  0.00  0.00    +0.000 A 
ATOM      8  N   UNL     1      -1.023  12.717  19.993  0.00  0.00    +0.000 N 
ATOM      9  C   UNL     1       1.359  12.464  19.415  0.00  0.00    +0.000 A 
ATOM     10  N   UNL     1       1.196  11.079  19.244  0.00  0.00    +0.000 N 
ATOM     11  C   UNL     1       2.238  10.432  18.447  0.00  0.00    +0.000 C 
ATOM     12  C   UNL     1       1.600   9.191  17.824  0.00  0.00    +0.000 C 
ATOM     13  C   UNL     1       1.058   8.228  18.899  0.00  0.00    +0.000 C 
ATOM     14  C   UNL     1       0.116   8.999  19.851  0.00  0.00    +0.000 C 
ATOM     15  C   UNL     1       0.746  10.290  20.396  0.00  0.00    +0.000 C 
ATOM     16  N   UNL     1       2.580  13.004  19.158  0.00  0.00    +0.000 NA
ATOM     17  C   UNL     1       2.678  14.358  19.182  0.00  0.00    +0.000 A 
ATOM     18  C   UNL     1       4.051  14.973  18.993  0.00  0.00    +0.000 C 
ATOM     19  H   UNL     1      -1.195  12.016  19.276  0.00  0.00    +0.000 HD
ENDROOT
BRANCH   8  20
ATOM     20  C   UNL     1      -2.131  13.536  20.464  0.00  0.00    +0.000 C 
ATOM     21  C   UNL     1      -3.554  13.065  20.450  0.00  0.00    +0.000 C 
ATOM     22  C   UNL     1      -2.822  13.186  21.755  0.00  0.00    +0.000 C 
ENDBRANCH   8  20
BRANCH  13  23
ATOM     23  C   UNL     1       2.172   7.485  19.679  0.00  0.00    +0.000 C 
ATOM     24  F   UNL     1       2.027   7.816  21.000  0.00  0.00    +0.000 F 
BRANCH  23  25
ATOM     25  C   UNL     1       2.104   5.986  19.497  0.00  0.00    +0.000 A 
ATOM     26  C   UNL     1       1.464   5.173  20.450  0.00  0.00    +0.000 A 
ATOM     27  C   UNL     1       1.305   3.805  20.211  0.00  0.00    +0.000 A 
ATOM     28  C   UNL     1       1.797   3.246  19.037  0.00  0.00    +0.000 A 
ATOM     29  F   UNL     1       1.615   1.941  18.800  0.00  0.00    +0.000 F 
ATOM     30  C   UNL     1       2.484   4.020  18.109  0.00  0.00    +0.000 A 
ATOM     31  C   UNL     1       2.630   5.382  18.348  0.00  0.00    +0.000 A 
ATOM     32  F   UNL     1       3.274   6.129  17.438  0.00  0.00    +0.000 F 
ENDBRANCH  23  25
ENDBRANCH  13  23
TORSDOF 3
ENDMDL
MODEL 7
REMARK VINA RESULT:      -6.6      2.211      3.025
REMARK  Name = 
REMARK  4 active torsions:
REMARK  status: ('A' for Active; 'I' for Inactive)
REMARK    1  A    between atoms: C_1  and  N_2
REMARK    2  A    between atoms: N_8  and  C_9
REMARK    3  A    between atoms: C_16  and  C_17
REMARK    4  A    between atoms: C_17  and  C_19
REMARK                            x       y       z     vdW  Elec       q    Type
REMARK                         _______ _______ _______ _____ _____    ______ ____
ROOT
ATOM      1  C   UNL     1       5.318  17.158  18.922  0.00  0.00    +0.000 C 
ATOM      2  N   UNL     1       3.973  16.584  18.901  0.00  0.00    +0.000 NA
ATOM      3  C   UNL     1       3.116  17.219  19.918  0.00  0.00    +0.000 C 
ATOM      4  C   UNL     1       1.673  16.739  19.760  0.00  0.00    +0.000 C 
ATOM      5  C   UNL     1       1.575  15.240  19.715  0.00  0.00    +0.000 A 
ATOM      6  N   UNL     1       0.372  14.689  20.007  0.00  0.00    +0.000 NA
ATOM      7  C   UNL     1       0.271  13.343  19.871  0.00  0.00    +0.000 A 
ATOM      8  N   UNL     1      -0.976  12.713  20.140  0.00  0.00    +0.000 N 
ATOM      9  C   UNL     1       1.387  12.544  19.464  0.00  0.00    +0.000 A 
ATOM     10  N   UNL     1       1.239  11.173  19.198  0.00  0.00    +0.000 N 
ATOM     11  C   UNL     1       2.262  10.604  18.321  0.00  0.00    +0.000 C 
ATOM     12  C   UNL     1       1.620   9.401  17.631  0.00  0.00    +0.000 C 
ATOM     13  C   UNL     1       1.131   8.352  18.650  0.00  0.00    +0.000 C 
ATOM     14  C   UNL     1       0.212   9.036  19.688  0.00  0.00    +0.000 C 
ATOM     15  C   UNL     1       0.841  10.294  20.304  0.00  0.00    +0.000 C 
ATOM     16  N   UNL     1       2.590  13.122  19.207  0.00  0.00    +0.000 NA
ATOM     17  C   UNL     1       2.669  14.473  19.327  0.00  0.00    +0.000 A 
ATOM     18  C   UNL     1       4.025  15.124  19.137  0.00  0.00    +0.000 C 
ATOM     19  H   UNL     1      -1.163  12.064  19.380  0.00  0.00    +0.000 HD
ENDROOT
BRANCH   8  20
ATOM     20  C   UNL     1      -2.079  13.477  20.707  0.00  0.00    +0.000 C 
ATOM     21  C   UNL     1      -3.511  13.052  20.582  0.00  0.00    +0.000 C 
ATOM     22  C   UNL     1      -2.815  12.945  21.908  0.00  0.00    +0.000 C 
ENDBRANCH   8  20
BRANCH  13  23
ATOM     23  C   UNL     1       2.283   7.574  19.335  0.00  0.00    +0.000 C 
ATOM     24  F   UNL     1       1.753   6.962  20.439  0.00  0.00    +0.000 F 
BRANCH  23  25
ATOM     25  C   UNL     1       2.918   6.555  18.417  0.00  0.00    +0.000 A 
ATOM     26  C   UNL     1       4.016   6.899  17.608  0.00  0.00    +0.000 A 
ATOM     27  C   UNL     1       4.667   5.919  16.854  0.00  0.00    +0.000 A 
ATOM     28  C   UNL     1       4.215   4.604  16.892  0.00  0.00    +0.000 A 
ATOM     29  F   UNL     1       4.861   3.663  16.191  0.00  0.00    +0.000 F 
ATOM     30  C   UNL     1       3.096   4.253  17.639  0.00  0.00    +0.000 A 
ATOM     31  C   UNL     1       2.460   5.231  18.394  0.00  0.00    +0.000 A 
ATOM     32  F   UNL     1       1.394   4.882  19.131  0.00  0.00    +0.000 F 
ENDBRANCH  23  25
ENDBRANCH  13  23
TORSDOF 3
ENDMDL
MODEL 8
REMARK VINA RESULT:      -6.6      2.854      4.017
REMARK  Name = 
REMARK  4 active torsions:
REMARK  status: ('A' for Active; 'I' for Inactive)
REMARK    1  A    between atoms: C_1  and  N_2
REMARK    2  A    between atoms: N_8  and  C_9
REMARK    3  A    between atoms: C_16  and  C_17
REMARK    4  A    between atoms: C_17  and  C_19
REMARK                            x       y       z     vdW  Elec       q    Type
REMARK                         _______ _______ _______ _____ _____    ______ ____
ROOT
ATOM      1  C   UNL     1      -1.424  15.762  25.227  0.00  0.00    +0.000 C 
ATOM      2  N   UNL     1      -1.816  15.386  23.868  0.00  0.00    +0.000 NA
ATOM      3  C   UNL     1      -3.270  15.162  23.786  0.00  0.00    +0.000 C 
ATOM      4  C   UNL     1      -3.685  14.951  22.329  0.00  0.00    +0.000 C 
ATOM      5  C   UNL     1      -2.856  13.898  21.649  0.00  0.00    +0.000 A 
ATOM      6  N   UNL     1      -3.377  13.320  20.539  0.00  0.00    +0.000 NA
ATOM      7  C   UNL     1      -2.581  12.441  19.881  0.00  0.00    +0.000 A 
ATOM      8  N   UNL     1      -3.067  11.823  18.696  0.00  0.00    +0.000 N 
ATOM      9  C   UNL     1      -1.267  12.121  20.352  0.00  0.00    +0.000 A 
ATOM     10  N   UNL     1      -0.402  11.314  19.595  0.00  0.00    +0.000 N 
ATOM     11  C   UNL     1       1.019  11.486  19.895  0.00  0.00    +0.000 C 
ATOM     12  C   UNL     1       1.780  11.103  18.627  0.00  0.00    +0.000 C 
ATOM     13  C   UNL     1       1.485   9.650  18.202  0.00  0.00    +0.000 C 
ATOM     14  C   UNL     1      -0.044   9.448  18.094  0.00  0.00    +0.000 C 
ATOM     15  C   UNL     1      -0.798   9.923  19.346  0.00  0.00    +0.000 C 
ATOM     16  N   UNL     1      -0.783  12.694  21.486  0.00  0.00    +0.000 NA
ATOM     17  C   UNL     1      -1.584  13.588  22.121  0.00  0.00    +0.000 A 
ATOM     18  C   UNL     1      -1.100  14.165  23.437  0.00  0.00    +0.000 C 
ATOM     19  H   UNL     1      -2.331  11.880  17.995  0.00  0.00    +0.000 HD
ENDROOT
BRANCH   8  20
ATOM     20  C   UNL     1      -4.452  12.007  18.284  0.00  0.00    +0.000 C 
ATOM     21  C   UNL     1      -4.927  11.740  16.888  0.00  0.00    +0.000 C 
ATOM     22  C   UNL     1      -5.310  10.804  17.997  0.00  0.00    +0.000 C 
ENDBRANCH   8  20
BRANCH  13  23
ATOM     23  C   UNL     1       2.134   8.592  19.129  0.00  0.00    +0.000 C 
ATOM     24  F   UNL     1       1.143   8.102  19.936  0.00  0.00    +0.000 F 
BRANCH  23  25
ATOM     25  C   UNL     1       2.791   7.472  18.356  0.00  0.00    +0.000 A 
ATOM     26  C   UNL     1       3.750   7.746  17.364  0.00  0.00    +0.000 A 
ATOM     27  C   UNL     1       4.434   6.699  16.740  0.00  0.00    +0.000 A 
ATOM     28  C   UNL     1       4.152   5.382  17.090  0.00  0.00    +0.000 A 
ATOM     29  F   UNL     1       4.832   4.385  16.512  0.00  0.00    +0.000 F 
ATOM     30  C   UNL     1       3.167   5.087  18.026  0.00  0.00    +0.000 A 
ATOM     31  C   UNL     1       2.497   6.133  18.649  0.00  0.00    +0.000 A 
ATOM     32  F   UNL     1       1.564   5.843  19.569  0.00  0.00    +0.000 F 
ENDBRANCH  23  25
ENDBRANCH  13  23
TORSDOF 3
ENDMDL
MODEL 9
REMARK VINA RESULT:      -6.4      2.161      3.247
REMARK  Name = 
REMARK  4 active torsions:
REMARK  status: ('A' for Active; 'I' for Inactive)
REMARK    1  A    between atoms: C_1  and  N_2
REMARK    2  A    between atoms: N_8  and  C_9
REMARK    3  A    between atoms: C_16  and  C_17
REMARK    4  A    between atoms: C_17  and  C_19
REMARK                            x       y       z     vdW  Elec       q    Type
REMARK                         _______ _______ _______ _____ _____    ______ ____
ROOT
ATOM      1  C   UNL     1       3.643  16.864  17.323  0.00  0.00    +0.000 C 
ATOM      2  N   UNL     1       2.535  16.042  17.808  0.00  0.00    +0.000 NA
ATOM      3  C   UNL     1       1.959  16.612  19.040  0.00  0.00    +0.000 C 
ATOM      4  C   UNL     1       0.693  15.846  19.429  0.00  0.00    +0.000 C 
ATOM      5  C   UNL     1       0.920  14.362  19.479  0.00  0.00    +0.000 A 
ATOM      6  N   UNL     1       0.044  13.626  20.205  0.00  0.00    +0.000 NA
ATOM      7  C   UNL     1       0.203  12.279  20.166  0.00  0.00    +0.000 A 
ATOM      8  N   UNL     1      -0.704  11.455  20.889  0.00  0.00    +0.000 N 
ATOM      9  C   UNL     1       1.260  11.670  19.417  0.00  0.00    +0.000 A 
ATOM     10  N   UNL     1       1.338  10.275  19.275  0.00  0.00    +0.000 N 
ATOM     11  C   UNL     1       2.097   9.817  18.112  0.00  0.00    +0.000 C 
ATOM     12  C   UNL     1       1.541   8.442  17.744  0.00  0.00    +0.000 C 
ATOM     13  C   UNL     1       1.676   7.443  18.911  0.00  0.00    +0.000 C 
ATOM     14  C   UNL     1       1.040   8.050  20.182  0.00  0.00    +0.000 C 
ATOM     15  C   UNL     1       1.547   9.468  20.483  0.00  0.00    +0.000 C 
ATOM     16  N   UNL     1       2.142  12.437  18.723  0.00  0.00    +0.000 NA
ATOM     17  C   UNL     1       1.957  13.781  18.755  0.00  0.00    +0.000 A 
ATOM     18  C   UNL     1       2.986  14.656  18.066  0.00  0.00    +0.000 C 
ATOM     19  H   UNL     1      -0.991  10.699  20.272  0.00  0.00    +0.000 HD
ENDROOT
BRANCH   8  20
ATOM     20  C   UNL     1      -1.686  12.051  21.785  0.00  0.00    +0.000 C 
ATOM     21  C   UNL     1      -2.036  11.460  23.117  0.00  0.00    +0.000 C 
ATOM     22  C   UNL     1      -1.229  12.724  23.051  0.00  0.00    +0.000 C 
ENDBRANCH   8  20
BRANCH  13  23
ATOM     23  C   UNL     1       3.134   6.986  19.167  0.00  0.00    +0.000 C 
ATOM     24  F   UNL     1       3.123   6.226  20.306  0.00  0.00    +0.000 F 
BRANCH  23  25
ATOM     25  C   UNL     1       3.704   6.198  18.009  0.00  0.00    +0.000 A 
ATOM     26  C   UNL     1       4.661   6.767  17.151  0.00  0.00    +0.000 A 
ATOM     27  C   UNL     1       5.266   5.991  16.159  0.00  0.00    +0.000 A 
ATOM     28  C   UNL     1       4.906   4.655  16.011  0.00  0.00    +0.000 A 
ATOM     29  F   UNL     1       5.510   3.908  15.079  0.00  0.00    +0.000 F 
ATOM     30  C   UNL     1       3.920   4.088  16.810  0.00  0.00    +0.000 A 
ATOM     31  C   UNL     1       3.330   4.863  17.801  0.00  0.00    +0.000 A 
ATOM     32  F   UNL     1       2.396   4.304  18.585  0.00  0.00    +0.000 F 
ENDBRANCH  23  25
ENDBRANCH  13  23
TORSDOF 3
ENDMDL
