MODEL 1
REMARK VINA RESULT:      -8.5      0.000      0.000
REMARK  Name = 
REMARK  10 active torsions:
REMARK  status: ('A' for Active; 'I' for Inactive)
REMARK    1  A    between atoms: C_1  and  C_2
REMARK    2  A    between atoms: C_5  and  C_6
REMARK    3  A    between atoms: C_8  and  C_9
REMARK    4  A    between atoms: C_9  and  S_10
REMARK    5  A    between atoms: S_10  and  C_13
REMARK    6  A    between atoms: C_13  and  C_14
REMARK    7  A    between atoms: N_16  and  C_17
REMARK    8  A    between atoms: C_17  and  C_18
REMARK    9  A    between atoms: C_18  and  N_19
REMARK   10  A    between atoms: C_25  and  C_26
REMARK                            x       y       z     vdW  Elec       q    Type
REMARK                         _______ _______ _______ _____ _____    ______ ____
ROOT
ATOM      1  S   UNL     1       6.961   4.954  17.648  0.00  0.00    +0.000 S 
ATOM      2  O   UNL     1       6.683   4.982  19.072  0.00  0.00    +0.000 OA
ATOM      3  O   UNL     1       8.102   4.188  17.170  0.00  0.00    +0.000 OA
ENDROOT
BRANCH   1   4
ATOM      4  C   UNL     1       5.500   4.313  16.836  0.00  0.00    +0.000 C 
BRANCH   4   7
ATOM      5  C   UNL     1       2.915   6.367  18.151  0.00  0.00    +0.000 A 
ATOM      6  N   UNL     1       4.158   6.233  17.716  0.00  0.00    +0.000 NA
ATOM      7  C   UNL     1       4.246   4.889  17.377  0.00  0.00    +0.000 A 
ATOM      8  C   UNL     1       3.043   4.267  17.644  0.00  0.00    +0.000 A 
ATOM      9  C   UNL     1       2.495   2.903  17.528  0.00  0.00    +0.000 C 
ATOM     10  O   UNL     1       2.188   5.209  18.129  0.00  0.00    +0.000 OA
BRANCH   5  15
ATOM     11  C   UNL     1       0.188  11.027  20.214  0.00  0.00    +0.000 C 
ATOM     12  C   UNL     1       0.880   9.807  19.681  0.00  0.00    +0.000 A 
ATOM     13  C   UNL     1       1.214   8.749  20.529  0.00  0.00    +0.000 A 
ATOM     14  C   UNL     1       1.874   7.626  20.028  0.00  0.00    +0.000 A 
ATOM     15  C   UNL     1       2.208   7.533  18.668  0.00  0.00    +0.000 A 
ATOM     16  C   UNL     1       1.861   8.589  17.818  0.00  0.00    +0.000 A 
ATOM     17  C   UNL     1       1.206   9.720  18.321  0.00  0.00    +0.000 A 
ENDBRANCH   5  15
ENDBRANCH   4   7
ENDBRANCH   1   4
BRANCH   1  18
ATOM     18  C   UNL     1       7.156   6.618  17.054  0.00  0.00    +0.000 C 
BRANCH  18  19
ATOM     19  C   UNL     1       7.945   7.429  18.033  0.00  0.00    +0.000 C 
ATOM     20  O   UNL     1       8.493   6.930  19.011  0.00  0.00    +0.000 OA
ATOM     21  N   UNL     1       8.013   8.778  17.751  0.00  0.00    +0.000 N 
ATOM     22  H   UNL     1       7.514   9.169  16.951  0.00  0.00    +0.000 HD
BRANCH  21  23
ATOM     23  C   UNL     1       8.658   9.677  18.693  0.00  0.00    +0.000 C 
BRANCH  23  24
ATOM     24  C   UNL     1       9.571  10.690  17.990  0.00  0.00    +0.000 C 
BRANCH  24  25
ATOM     25  N   UNL     1       9.423  12.084  18.445  0.00  0.00    +0.000 NA
ATOM     26  C   UNL     1      10.303  13.042  17.737  0.00  0.00    +0.000 C 
ATOM     27  C   UNL     1      11.795  12.871  18.070  0.00  0.00    +0.000 C 
ATOM     28  O   UNL     1      12.030  12.970  19.481  0.00  0.00    +0.000 OA
ATOM     29  C   UNL     1      11.230  12.036  20.213  0.00  0.00    +0.000 C 
ATOM     30  C   UNL     1       9.732  12.196  19.892  0.00  0.00    +0.000 C 
ENDBRANCH  24  25
ENDBRANCH  23  24
ENDBRANCH  21  23
ENDBRANCH  18  19
ENDBRANCH   1  18
TORSDOF 8
ENDMDL
MODEL 2
REMARK VINA RESULT:      -8.4      3.689      5.714
REMARK  Name = 
REMARK  10 active torsions:
REMARK  status: ('A' for Active; 'I' for Inactive)
REMARK    1  A    between atoms: C_1  and  C_2
REMARK    2  A    between atoms: C_5  and  C_6
REMARK    3  A    between atoms: C_8  and  C_9
REMARK    4  A    between atoms: C_9  and  S_10
REMARK    5  A    between atoms: S_10  and  C_13
REMARK    6  A    between atoms: C_13  and  C_14
REMARK    7  A    between atoms: N_16  and  C_17
REMARK    8  A    between atoms: C_17  and  C_18
REMARK    9  A    between atoms: C_18  and  N_19
REMARK   10  A    between atoms: C_25  and  C_26
REMARK                            x       y       z     vdW  Elec       q    Type
REMARK                         _______ _______ _______ _____ _____    ______ ____
ROOT
ATOM      1  S   UNL     1       1.802   4.051  19.690  0.00  0.00    +0.000 S 
ATOM      2  O   UNL     1       2.379   2.832  20.226  0.00  0.00    +0.000 OA
ATOM      3  O   UNL     1       0.483   4.463  20.147  0.00  0.00    +0.000 OA
ENDROOT
BRANCH   1   4
ATOM      4  C   UNL     1       2.942   5.382  20.055  0.00  0.00    +0.000 C 
BRANCH   4   7
ATOM      5  C   UNL     1       1.219   8.438  20.621  0.00  0.00    +0.000 A 
ATOM      6  N   UNL     1       1.642   7.266  21.066  0.00  0.00    +0.000 NA
ATOM      7  C   UNL     1       2.305   6.718  19.976  0.00  0.00    +0.000 A 
ATOM      8  C   UNL     1       2.233   7.590  18.908  0.00  0.00    +0.000 A 
ATOM      9  C   UNL     1       2.701   7.609  17.510  0.00  0.00    +0.000 C 
ATOM     10  O   UNL     1       1.549   8.692  19.319  0.00  0.00    +0.000 OA
BRANCH   5  15
ATOM     11  C   UNL     1      -1.925  12.547  23.198  0.00  0.00    +0.000 C 
ATOM     12  C   UNL     1      -1.094  11.491  22.532  0.00  0.00    +0.000 A 
ATOM     13  C   UNL     1      -0.535  11.713  21.271  0.00  0.00    +0.000 A 
ATOM     14  C   UNL     1       0.223  10.718  20.651  0.00  0.00    +0.000 A 
ATOM     15  C   UNL     1       0.444   9.483  21.279  0.00  0.00    +0.000 A 
ATOM     16  C   UNL     1      -0.106   9.268  22.548  0.00  0.00    +0.000 A 
ATOM     17  C   UNL     1      -0.873  10.262  23.168  0.00  0.00    +0.000 A 
ENDBRANCH   5  15
ENDBRANCH   4   7
ENDBRANCH   1   4
BRANCH   1  18
ATOM     18  C   UNL     1       1.736   3.940  17.917  0.00  0.00    +0.000 C 
BRANCH  18  19
ATOM     19  C   UNL     1       3.018   3.381  17.384  0.00  0.00    +0.000 C 
ATOM     20  O   UNL     1       3.338   2.207  17.539  0.00  0.00    +0.000 OA
ATOM     21  N   UNL     1       3.808   4.284  16.704  0.00  0.00    +0.000 N 
ATOM     22  H   UNL     1       3.532   5.263  16.625  0.00  0.00    +0.000 HD
BRANCH  21  23
ATOM     23  C   UNL     1       5.126   3.879  16.241  0.00  0.00    +0.000 C 
BRANCH  23  24
ATOM     24  C   UNL     1       6.247   4.470  17.106  0.00  0.00    +0.000 C 
BRANCH  24  25
ATOM     25  N   UNL     1       5.831   5.564  18.002  0.00  0.00    +0.000 NA
ATOM     26  C   UNL     1       6.104   6.916  17.461  0.00  0.00    +0.000 C 
ATOM     27  C   UNL     1       7.602   7.260  17.391  0.00  0.00    +0.000 C 
ATOM     28  O   UNL     1       8.229   7.131  18.673  0.00  0.00    +0.000 OA
ATOM     29  C   UNL     1       8.028   5.826  19.226  0.00  0.00    +0.000 C 
ATOM     30  C   UNL     1       6.532   5.466  19.305  0.00  0.00    +0.000 C 
ENDBRANCH  24  25
ENDBRANCH  23  24
ENDBRANCH  21  23
ENDBRANCH  18  19
ENDBRANCH   1  18
TORSDOF 8
ENDMDL
MODEL 3
REMARK VINA RESULT:      -8.0      3.772      5.839
REMARK  Name = 
REMARK  10 active torsions:
REMARK  status: ('A' for Active; 'I' for Inactive)
REMARK    1  A    between atoms: C_1  and  C_2
REMARK    2  A    between atoms: C_5  and  C_6
REMARK    3  A    between atoms: C_8  and  C_9
REMARK    4  A    between atoms: C_9  and  S_10
REMARK    5  A    between atoms: S_10  and  C_13
REMARK    6  A    between atoms: C_13  and  C_14
REMARK    7  A    between atoms: N_16  and  C_17
REMARK    8  A    between atoms: C_17  and  C_18
REMARK    9  A    between atoms: C_18  and  N_19
REMARK   10  A    between atoms: C_25  and  C_26
REMARK                            x       y       z     vdW  Elec       q    Type
REMARK                         _______ _______ _______ _____ _____    ______ ____
ROOT
ATOM      1  S   UNL     1       1.805   3.790  20.010  0.00  0.00    +0.000 S 
ATOM      2  O   UNL     1       2.272   2.705  20.853  0.00  0.00    +0.000 OA
ATOM      3  O   UNL     1       0.510   4.391  20.292  0.00  0.00    +0.000 OA
ENDROOT
BRANCH   1   4
ATOM      4  C   UNL     1       3.035   5.088  20.086  0.00  0.00    +0.000 C 
BRANCH   4   7
ATOM      5  C   UNL     1       1.338   8.168  20.602  0.00  0.00    +0.000 A 
ATOM      6  N   UNL     1       1.686   6.968  21.039  0.00  0.00    +0.000 NA
ATOM      7  C   UNL     1       2.441   6.443  19.998  0.00  0.00    +0.000 A 
ATOM      8  C   UNL     1       2.498   7.357  18.965  0.00  0.00    +0.000 A 
ATOM      9  C   UNL     1       3.105   7.416  17.622  0.00  0.00    +0.000 C 
ATOM     10  O   UNL     1       1.803   8.462  19.350  0.00  0.00    +0.000 OA
BRANCH   5  15
ATOM     11  C   UNL     1      -1.951  12.246  23.043  0.00  0.00    +0.000 C 
ATOM     12  C   UNL     1      -1.083  11.201  22.407  0.00  0.00    +0.000 A 
ATOM     13  C   UNL     1      -0.743  11.280  21.055  0.00  0.00    +0.000 A 
ATOM     14  C   UNL     1       0.049  10.293  20.468  0.00  0.00    +0.000 A 
ATOM     15  C   UNL     1       0.526   9.208  21.221  0.00  0.00    +0.000 A 
ATOM     16  C   UNL     1       0.195   9.138  22.580  0.00  0.00    +0.000 A 
ATOM     17  C   UNL     1      -0.608  10.123  23.167  0.00  0.00    +0.000 A 
ENDBRANCH   5  15
ENDBRANCH   4   7
ENDBRANCH   1   4
BRANCH   1  18
ATOM     18  C   UNL     1       1.776   3.247  18.317  0.00  0.00    +0.000 C 
BRANCH  18  19
ATOM     19  C   UNL     1       3.166   2.964  17.839  0.00  0.00    +0.000 C 
ATOM     20  O   UNL     1       3.816   2.004  18.238  0.00  0.00    +0.000 OA
ATOM     21  N   UNL     1       3.658   3.864  16.915  0.00  0.00    +0.000 N 
ATOM     22  H   UNL     1       3.107   4.674  16.633  0.00  0.00    +0.000 HD
BRANCH  21  23
ATOM     23  C   UNL     1       5.037   3.751  16.468  0.00  0.00    +0.000 C 
BRANCH  23  24
ATOM     24  C   UNL     1       5.657   5.121  16.162  0.00  0.00    +0.000 C 
BRANCH  24  25
ATOM     25  N   UNL     1       7.124   5.184  16.296  0.00  0.00    +0.000 NA
ATOM     26  C   UNL     1       7.635   4.584  17.550  0.00  0.00    +0.000 C 
ATOM     27  C   UNL     1       7.276   5.389  18.810  0.00  0.00    +0.000 C 
ATOM     28  O   UNL     1       7.735   6.743  18.715  0.00  0.00    +0.000 OA
ATOM     29  C   UNL     1       7.235   7.385  17.536  0.00  0.00    +0.000 C 
ATOM     30  C   UNL     1       7.590   6.591  16.264  0.00  0.00    +0.000 C 
ENDBRANCH  24  25
ENDBRANCH  23  24
ENDBRANCH  21  23
ENDBRANCH  18  19
ENDBRANCH   1  18
TORSDOF 8
ENDMDL
MODEL 4
REMARK VINA RESULT:      -7.8      1.105      1.152
REMARK  Name = 
REMARK  10 active torsions:
REMARK  status: ('A' for Active; 'I' for Inactive)
REMARK    1  A    between atoms: C_1  and  C_2
REMARK    2  A    between atoms: C_5  and  C_6
REMARK    3  A    between atoms: C_8  and  C_9
REMARK    4  A    between atoms: C_9  and  S_10
REMARK    5  A    between atoms: S_10  and  C_13
REMARK    6  A    between atoms: C_13  and  C_14
REMARK    7  A    between atoms: N_16  and  C_17
REMARK    8  A    between atoms: C_17  and  C_18
REMARK    9  A    between atoms: C_18  and  N_19
REMARK   10  A    between atoms: C_25  and  C_26
REMARK                            x       y       z     vdW  Elec       q    Type
REMARK                         _______ _______ _______ _____ _____    ______ ____
ROOT
ATOM      1  S   UNL     1       6.808   4.923  18.031  0.00  0.00    +0.000 S 
ATOM      2  O   UNL     1       7.905   5.009  18.978  0.00  0.00    +0.000 OA
ATOM      3  O   UNL     1       7.027   4.244  16.763  0.00  0.00    +0.000 OA
ENDROOT
BRANCH   1   4
ATOM      4  C   UNL     1       5.454   4.098  18.862  0.00  0.00    +0.000 C 
BRANCH   4   7
ATOM      5  C   UNL     1       2.772   6.411  19.148  0.00  0.00    +0.000 A 
ATOM      6  N   UNL     1       4.000   6.040  19.473  0.00  0.00    +0.000 NA
ATOM      7  C   UNL     1       4.183   4.855  18.773  0.00  0.00    +0.000 A 
ATOM      8  C   UNL     1       3.037   4.557  18.065  0.00  0.00    +0.000 A 
ATOM      9  C   UNL     1       2.585   3.480  17.164  0.00  0.00    +0.000 C 
ATOM     10  O   UNL     1       2.137   5.553  18.294  0.00  0.00    +0.000 OA
BRANCH   5  15
ATOM     11  C   UNL     1      -0.283  11.020  20.835  0.00  0.00    +0.000 C 
ATOM     12  C   UNL     1       0.494   9.813  20.398  0.00  0.00    +0.000 A 
ATOM     13  C   UNL     1       0.710   8.747  21.274  0.00  0.00    +0.000 A 
ATOM     14  C   UNL     1       1.449   7.636  20.864  0.00  0.00    +0.000 A 
ATOM     15  C   UNL     1       1.983   7.564  19.567  0.00  0.00    +0.000 A 
ATOM     16  C   UNL     1       1.754   8.628  18.687  0.00  0.00    +0.000 A 
ATOM     17  C   UNL     1       1.020   9.746  19.100  0.00  0.00    +0.000 A 
ENDBRANCH   5  15
ENDBRANCH   4   7
ENDBRANCH   1   4
BRANCH   1  18
ATOM     18  C   UNL     1       6.224   6.560  17.659  0.00  0.00    +0.000 C 
BRANCH  18  19
ATOM     19  C   UNL     1       7.371   7.451  17.296  0.00  0.00    +0.000 C 
ATOM     20  O   UNL     1       8.209   7.135  16.457  0.00  0.00    +0.000 OA
ATOM     21  N   UNL     1       7.412   8.652  17.973  0.00  0.00    +0.000 N 
ATOM     22  H   UNL     1       6.722   8.869  18.693  0.00  0.00    +0.000 HD
BRANCH  21  23
ATOM     23  C   UNL     1       8.544   9.546  17.782  0.00  0.00    +0.000 C 
BRANCH  23  24
ATOM     24  C   UNL     1       9.192   9.947  19.114  0.00  0.00    +0.000 C 
BRANCH  24  25
ATOM     25  N   UNL     1       9.168  11.391  19.408  0.00  0.00    +0.000 NA
ATOM     26  C   UNL     1       9.366  12.246  18.215  0.00  0.00    +0.000 C 
ATOM     27  C   UNL     1      10.788  12.174  17.634  0.00  0.00    +0.000 C 
ATOM     28  O   UNL     1      11.774  12.507  18.620  0.00  0.00    +0.000 OA
ATOM     29  C   UNL     1      11.652  11.680  19.783  0.00  0.00    +0.000 C 
ATOM     30  C   UNL     1      10.232  11.744  20.379  0.00  0.00    +0.000 C 
ENDBRANCH  24  25
ENDBRANCH  23  24
ENDBRANCH  21  23
ENDBRANCH  18  19
ENDBRANCH   1  18
TORSDOF 8
ENDMDL
MODEL 5
REMARK VINA RESULT:      -7.8      4.804      6.389
REMARK  Name = 
REMARK  10 active torsions:
REMARK  status: ('A' for Active; 'I' for Inactive)
REMARK    1  A    between atoms: C_1  and  C_2
REMARK    2  A    between atoms: C_5  and  C_6
REMARK    3  A    between atoms: C_8  and  C_9
REMARK    4  A    between atoms: C_9  and  S_10
REMARK    5  A    between atoms: S_10  and  C_13
REMARK    6  A    between atoms: C_13  and  C_14
REMARK    7  A    between atoms: N_16  and  C_17
REMARK    8  A    between atoms: C_17  and  C_18
REMARK    9  A    between atoms: C_18  and  N_19
REMARK   10  A    between atoms: C_25  and  C_26
REMARK                            x       y       z     vdW  Elec       q    Type
REMARK                         _______ _______ _______ _____ _____    ______ ____
ROOT
ATOM      1  S   UNL     1       1.624   4.222  19.717  0.00  0.00    +0.000 S 
ATOM      2  O   UNL     1       0.529   4.450  20.641  0.00  0.00    +0.000 OA
ATOM      3  O   UNL     1       1.339   4.165  18.291  0.00  0.00    +0.000 OA
ENDROOT
BRANCH   1   4
ATOM      4  C   UNL     1       2.819   5.529  19.979  0.00  0.00    +0.000 C 
BRANCH   4   7
ATOM      5  C   UNL     1       1.093   8.572  20.601  0.00  0.00    +0.000 A 
ATOM      6  N   UNL     1       1.460   7.364  21.000  0.00  0.00    +0.000 NA
ATOM      7  C   UNL     1       2.209   6.878  19.937  0.00  0.00    +0.000 A 
ATOM      8  C   UNL     1       2.243   7.821  18.929  0.00  0.00    +0.000 A 
ATOM      9  C   UNL     1       2.832   7.926  17.581  0.00  0.00    +0.000 C 
ATOM     10  O   UNL     1       1.539   8.906  19.353  0.00  0.00    +0.000 OA
BRANCH   5  15
ATOM     11  C   UNL     1      -2.216  12.543  23.189  0.00  0.00    +0.000 C 
ATOM     12  C   UNL     1      -1.343  11.525  22.517  0.00  0.00    +0.000 A 
ATOM     13  C   UNL     1      -0.933  11.698  21.193  0.00  0.00    +0.000 A 
ATOM     14  C   UNL     1      -0.135  10.736  20.571  0.00  0.00    +0.000 A 
ATOM     15  C   UNL     1       0.276   9.584  21.260  0.00  0.00    +0.000 A 
ATOM     16  C   UNL     1      -0.125   9.419  22.591  0.00  0.00    +0.000 A 
ATOM     17  C   UNL     1      -0.932  10.380  23.213  0.00  0.00    +0.000 A 
ENDBRANCH   5  15
ENDBRANCH   4   7
ENDBRANCH   1   4
BRANCH   1  18
ATOM     18  C   UNL     1       2.454   2.711  20.150  0.00  0.00    +0.000 C 
BRANCH  18  19
ATOM     19  C   UNL     1       3.730   2.580  19.378  0.00  0.00    +0.000 C 
ATOM     20  O   UNL     1       4.829   2.558  19.922  0.00  0.00    +0.000 OA
ATOM     21  N   UNL     1       3.574   2.482  18.010  0.00  0.00    +0.000 N 
ATOM     22  H   UNL     1       2.649   2.542  17.585  0.00  0.00    +0.000 HD
BRANCH  21  23
ATOM     23  C   UNL     1       4.750   2.463  17.154  0.00  0.00    +0.000 C 
BRANCH  23  24
ATOM     24  C   UNL     1       4.702   3.565  16.087  0.00  0.00    +0.000 C 
BRANCH  24  25
ATOM     25  N   UNL     1       4.922   4.932  16.594  0.00  0.00    +0.000 NA
ATOM     26  C   UNL     1       5.271   5.911  15.539  0.00  0.00    +0.000 C 
ATOM     27  C   UNL     1       6.664   5.688  14.927  0.00  0.00    +0.000 C 
ATOM     28  O   UNL     1       7.685   5.697  15.933  0.00  0.00    +0.000 OA
ATOM     29  C   UNL     1       7.416   4.738  16.961  0.00  0.00    +0.000 C 
ATOM     30  C   UNL     1       6.024   4.950  17.586  0.00  0.00    +0.000 C 
ENDBRANCH  24  25
ENDBRANCH  23  24
ENDBRANCH  21  23
ENDBRANCH  18  19
ENDBRANCH   1  18
TORSDOF 8
ENDMDL
MODEL 6
REMARK VINA RESULT:      -7.8      2.987      8.321
REMARK  Name = 
REMARK  10 active torsions:
REMARK  status: ('A' for Active; 'I' for Inactive)
REMARK    1  A    between atoms: C_1  and  C_2
REMARK    2  A    between atoms: C_5  and  C_6
REMARK    3  A    between atoms: C_8  and  C_9
REMARK    4  A    between atoms: C_9  and  S_10
REMARK    5  A    between atoms: S_10  and  C_13
REMARK    6  A    between atoms: C_13  and  C_14
REMARK    7  A    between atoms: N_16  and  C_17
REMARK    8  A    between atoms: C_17  and  C_18
REMARK    9  A    between atoms: C_18  and  N_19
REMARK   10  A    between atoms: C_25  and  C_26
REMARK                            x       y       z     vdW  Elec       q    Type
REMARK                         _______ _______ _______ _____ _____    ______ ____
ROOT
ATOM      1  S   UNL     1       7.131   4.973  15.838  0.00  0.00    +0.000 S 
ATOM      2  O   UNL     1       7.835   5.650  14.765  0.00  0.00    +0.000 OA
ATOM      3  O   UNL     1       7.894   4.173  16.784  0.00  0.00    +0.000 OA
ENDROOT
BRANCH   1   4
ATOM      4  C   UNL     1       6.256   6.226  16.771  0.00  0.00    +0.000 C 
BRANCH   4   7
ATOM      5  C   UNL     1       8.226   8.842  18.152  0.00  0.00    +0.000 A 
ATOM      6  N   UNL     1       7.375   8.416  17.231  0.00  0.00    +0.000 NA
ATOM      7  C   UNL     1       7.164   7.085  17.566  0.00  0.00    +0.000 A 
ATOM      8  C   UNL     1       7.921   6.765  18.675  0.00  0.00    +0.000 A 
ATOM      9  C   UNL     1       8.155   5.565  19.500  0.00  0.00    +0.000 C 
ATOM     10  O   UNL     1       8.592   7.886  19.057  0.00  0.00    +0.000 OA
BRANCH   5  15
ATOM     11  C   UNL     1      10.755  13.993  18.842  0.00  0.00    +0.000 C 
ATOM     12  C   UNL     1      10.090  12.658  18.680  0.00  0.00    +0.000 A 
ATOM     13  C   UNL     1      10.445  11.580  19.493  0.00  0.00    +0.000 A 
ATOM     14  C   UNL     1       9.834  10.337  19.323  0.00  0.00    +0.000 A 
ATOM     15  C   UNL     1       8.849  10.146  18.341  0.00  0.00    +0.000 A 
ATOM     16  C   UNL     1       8.485  11.232  17.536  0.00  0.00    +0.000 A 
ATOM     17  C   UNL     1       9.104  12.477  17.700  0.00  0.00    +0.000 A 
ENDBRANCH   5  15
ENDBRANCH   4   7
ENDBRANCH   1   4
BRANCH   1  18
ATOM     18  C   UNL     1       5.877   3.920  15.146  0.00  0.00    +0.000 C 
BRANCH  18  19
ATOM     19  C   UNL     1       4.773   3.709  16.134  0.00  0.00    +0.000 C 
ATOM     20  O   UNL     1       3.626   4.094  15.931  0.00  0.00    +0.000 OA
ATOM     21  N   UNL     1       5.142   3.046  17.286  0.00  0.00    +0.000 N 
ATOM     22  H   UNL     1       6.113   2.772  17.442  0.00  0.00    +0.000 HD
BRANCH  21  23
ATOM     23  C   UNL     1       4.178   2.884  18.362  0.00  0.00    +0.000 C 
BRANCH  23  24
ATOM     24  C   UNL     1       3.763   4.231  18.970  0.00  0.00    +0.000 C 
BRANCH  24  25
ATOM     25  N   UNL     1       3.440   4.192  20.407  0.00  0.00    +0.000 NA
ATOM     26  C   UNL     1       3.014   2.857  20.888  0.00  0.00    +0.000 C 
ATOM     27  C   UNL     1       1.640   2.419  20.352  0.00  0.00    +0.000 C 
ATOM     28  O   UNL     1       0.624   3.379  20.669  0.00  0.00    +0.000 OA
ATOM     29  C   UNL     1       0.969   4.685  20.191  0.00  0.00    +0.000 C 
ATOM     30  C   UNL     1       2.343   5.139  20.721  0.00  0.00    +0.000 C 
ENDBRANCH  24  25
ENDBRANCH  23  24
ENDBRANCH  21  23
ENDBRANCH  18  19
ENDBRANCH   1  18
TORSDOF 8
ENDMDL
MODEL 7
REMARK VINA RESULT:      -7.7      4.427      6.249
REMARK  Name = 
REMARK  10 active torsions:
REMARK  status: ('A' for Active; 'I' for Inactive)
REMARK    1  A    between atoms: C_1  and  C_2
REMARK    2  A    between atoms: C_5  and  C_6
REMARK    3  A    between atoms: C_8  and  C_9
REMARK    4  A    between atoms: C_9  and  S_10
REMARK    5  A    between atoms: S_10  and  C_13
REMARK    6  A    between atoms: C_13  and  C_14
REMARK    7  A    between atoms: N_16  and  C_17
REMARK    8  A    between atoms: C_17  and  C_18
REMARK    9  A    between atoms: C_18  and  N_19
REMARK   10  A    between atoms: C_25  and  C_26
REMARK                            x       y       z     vdW  Elec       q    Type
REMARK                         _______ _______ _______ _____ _____    ______ ____
ROOT
ATOM      1  S   UNL     1       1.375   3.296  20.436  0.00  0.00    +0.000 S 
ATOM      2  O   UNL     1       1.237   2.638  21.722  0.00  0.00    +0.000 OA
ATOM      3  O   UNL     1       0.225   3.987  19.874  0.00  0.00    +0.000 OA
ENDROOT
BRANCH   1   4
ATOM      4  C   UNL     1       2.702   4.488  20.591  0.00  0.00    +0.000 C 
BRANCH   4   7
ATOM      5  C   UNL     1       1.317   7.754  20.808  0.00  0.00    +0.000 A 
ATOM      6  N   UNL     1       1.544   6.571  21.355  0.00  0.00    +0.000 NA
ATOM      7  C   UNL     1       2.246   5.882  20.375  0.00  0.00    +0.000 A 
ATOM      8  C   UNL     1       2.395   6.688  19.265  0.00  0.00    +0.000 A 
ATOM      9  C   UNL     1       3.008   6.565  17.929  0.00  0.00    +0.000 C 
ATOM     10  O   UNL     1       1.812   7.886  19.540  0.00  0.00    +0.000 OA
BRANCH   5  15
ATOM     11  C   UNL     1      -1.557  12.346  22.823  0.00  0.00    +0.000 C 
ATOM     12  C   UNL     1      -0.795  11.165  22.300  0.00  0.00    +0.000 A 
ATOM     13  C   UNL     1      -0.290  11.161  20.997  0.00  0.00    +0.000 A 
ATOM     14  C   UNL     1       0.402  10.049  20.513  0.00  0.00    +0.000 A 
ATOM     15  C   UNL     1       0.611   8.921  21.322  0.00  0.00    +0.000 A 
ATOM     16  C   UNL     1       0.116   8.933  22.631  0.00  0.00    +0.000 A 
ATOM     17  C   UNL     1      -0.586  10.044  23.115  0.00  0.00    +0.000 A 
ENDBRANCH   5  15
ENDBRANCH   4   7
ENDBRANCH   1   4
BRANCH   1  18
ATOM     18  C   UNL     1       1.924   2.114  19.227  0.00  0.00    +0.000 C 
BRANCH  18  19
ATOM     19  C   UNL     1       2.752   2.790  18.179  0.00  0.00    +0.000 C 
ATOM     20  O   UNL     1       2.263   3.265  17.160  0.00  0.00    +0.000 OA
ATOM     21  N   UNL     1       4.104   2.840  18.449  0.00  0.00    +0.000 N 
ATOM     22  H   UNL     1       4.485   2.401  19.288  0.00  0.00    +0.000 HD
BRANCH  21  23
ATOM     23  C   UNL     1       5.016   3.373  17.450  0.00  0.00    +0.000 C 
BRANCH  23  24
ATOM     24  C   UNL     1       6.133   4.215  18.081  0.00  0.00    +0.000 C 
BRANCH  24  25
ATOM     25  N   UNL     1       7.109   4.771  17.125  0.00  0.00    +0.000 NA
ATOM     26  C   UNL     1       7.358   6.220  17.302  0.00  0.00    +0.000 C 
ATOM     27  C   UNL     1       6.160   7.103  16.916  0.00  0.00    +0.000 C 
ATOM     28  O   UNL     1       5.743   6.859  15.566  0.00  0.00    +0.000 OA
ATOM     29  C   UNL     1       5.451   5.474  15.351  0.00  0.00    +0.000 C 
ATOM     30  C   UNL     1       6.643   4.576  15.731  0.00  0.00    +0.000 C 
ENDBRANCH  24  25
ENDBRANCH  23  24
ENDBRANCH  21  23
ENDBRANCH  18  19
ENDBRANCH   1  18
TORSDOF 8
ENDMDL
MODEL 8
REMARK VINA RESULT:      -7.6      5.581     10.887
REMARK  Name = 
REMARK  10 active torsions:
REMARK  status: ('A' for Active; 'I' for Inactive)
REMARK    1  A    between atoms: C_1  and  C_2
REMARK    2  A    between atoms: C_5  and  C_6
REMARK    3  A    between atoms: C_8  and  C_9
REMARK    4  A    between atoms: C_9  and  S_10
REMARK    5  A    between atoms: S_10  and  C_13
REMARK    6  A    between atoms: C_13  and  C_14
REMARK    7  A    between atoms: N_16  and  C_17
REMARK    8  A    between atoms: C_17  and  C_18
REMARK    9  A    between atoms: C_18  and  N_19
REMARK   10  A    between atoms: C_25  and  C_26
REMARK                            x       y       z     vdW  Elec       q    Type
REMARK                         _______ _______ _______ _____ _____    ______ ____
ROOT
ATOM      1  S   UNL     1      -0.703  10.963  18.729  0.00  0.00    +0.000 S 
ATOM      2  O   UNL     1      -1.388  10.326  19.839  0.00  0.00    +0.000 OA
ATOM      3  O   UNL     1      -1.045  12.335  18.387  0.00  0.00    +0.000 OA
ENDROOT
BRANCH   1   4
ATOM      4  C   UNL     1       1.049  10.914  19.089  0.00  0.00    +0.000 C 
BRANCH   4   7
ATOM      5  C   UNL     1       2.633   7.801  18.429  0.00  0.00    +0.000 A 
ATOM      6  N   UNL     1       2.332   9.033  18.050  0.00  0.00    +0.000 NA
ATOM      7  C   UNL     1       1.590   9.534  19.112  0.00  0.00    +0.000 A 
ATOM      8  C   UNL     1       1.464   8.563  20.084  0.00  0.00    +0.000 A 
ATOM      9  C   UNL     1       0.815   8.447  21.403  0.00  0.00    +0.000 C 
ATOM     10  O   UNL     1       2.135   7.459  19.656  0.00  0.00    +0.000 OA
BRANCH   5  15
ATOM     11  C   UNL     1       5.645   3.629  15.797  0.00  0.00    +0.000 C 
ATOM     12  C   UNL     1       4.857   4.718  16.463  0.00  0.00    +0.000 A 
ATOM     13  C   UNL     1       5.220   6.058  16.310  0.00  0.00    +0.000 A 
ATOM     14  C   UNL     1       4.491   7.063  16.949  0.00  0.00    +0.000 A 
ATOM     15  C   UNL     1       3.380   6.752  17.748  0.00  0.00    +0.000 A 
ATOM     16  C   UNL     1       3.010   5.409  17.889  0.00  0.00    +0.000 A 
ATOM     17  C   UNL     1       3.746   4.400  17.256  0.00  0.00    +0.000 A 
ENDBRANCH   5  15
ENDBRANCH   4   7
ENDBRANCH   1   4
BRANCH   1  18
ATOM     18  C   UNL     1      -0.925   9.983  17.262  0.00  0.00    +0.000 C 
BRANCH  18  19
ATOM     19  C   UNL     1      -2.336  10.093  16.774  0.00  0.00    +0.000 C 
ATOM     20  O   UNL     1      -2.753   9.446  15.819  0.00  0.00    +0.000 OA
ATOM     21  N   UNL     1      -3.130  10.973  17.481  0.00  0.00    +0.000 N 
ATOM     22  H   UNL     1      -2.743  11.525  18.246  0.00  0.00    +0.000 HD
BRANCH  21  23
ATOM     23  C   UNL     1      -4.484  11.242  17.025  0.00  0.00    +0.000 C 
BRANCH  23  24
ATOM     24  C   UNL     1      -5.522  11.001  18.130  0.00  0.00    +0.000 C 
BRANCH  24  25
ATOM     25  N   UNL     1      -6.215  12.211  18.607  0.00  0.00    +0.000 NA
ATOM     26  C   UNL     1      -5.394  13.054  19.508  0.00  0.00    +0.000 C 
ATOM     27  C   UNL     1      -5.127  12.411  20.879  0.00  0.00    +0.000 C 
ATOM     28  O   UNL     1      -6.349  12.066  21.543  0.00  0.00    +0.000 OA
ATOM     29  C   UNL     1      -7.166  11.217  20.729  0.00  0.00    +0.000 C 
ATOM     30  C   UNL     1      -7.445  11.849  19.351  0.00  0.00    +0.000 C 
ENDBRANCH  24  25
ENDBRANCH  23  24
ENDBRANCH  21  23
ENDBRANCH  18  19
ENDBRANCH   1  18
TORSDOF 8
ENDMDL
MODEL 9
REMARK VINA RESULT:      -7.6      1.152      1.498
REMARK  Name = 
REMARK  10 active torsions:
REMARK  status: ('A' for Active; 'I' for Inactive)
REMARK    1  A    between atoms: C_1  and  C_2
REMARK    2  A    between atoms: C_5  and  C_6
REMARK    3  A    between atoms: C_8  and  C_9
REMARK    4  A    between atoms: C_9  and  S_10
REMARK    5  A    between atoms: S_10  and  C_13
REMARK    6  A    between atoms: C_13  and  C_14
REMARK    7  A    between atoms: N_16  and  C_17
REMARK    8  A    between atoms: C_17  and  C_18
REMARK    9  A    between atoms: C_18  and  N_19
REMARK   10  A    between atoms: C_25  and  C_26
REMARK                            x       y       z     vdW  Elec       q    Type
REMARK                         _______ _______ _______ _____ _____    ______ ____
ROOT
ATOM      1  S   UNL     1       6.027   5.564  17.746  0.00  0.00    +0.000 S 
ATOM      2  O   UNL     1       6.139   5.525  19.192  0.00  0.00    +0.000 OA
ATOM      3  O   UNL     1       6.730   4.562  16.959  0.00  0.00    +0.000 OA
ENDROOT
BRANCH   1   4
ATOM      4  C   UNL     1       4.286   5.444  17.347  0.00  0.00    +0.000 C 
BRANCH   4   7
ATOM      5  C   UNL     1       2.238   7.295  19.585  0.00  0.00    +0.000 A 
ATOM      6  N   UNL     1       2.978   7.246  18.489  0.00  0.00    +0.000 NA
ATOM      7  C   UNL     1       3.414   5.928  18.442  0.00  0.00    +0.000 A 
ATOM      8  C   UNL     1       2.922   5.243  19.535  0.00  0.00    +0.000 A 
ATOM      9  C   UNL     1       3.016   3.871  20.068  0.00  0.00    +0.000 C 
ATOM     10  O   UNL     1       2.164   6.109  20.262  0.00  0.00    +0.000 OA
BRANCH   5  15
ATOM     11  C   UNL     1      -0.557  11.731  22.018  0.00  0.00    +0.000 C 
ATOM     12  C   UNL     1       0.153  10.569  21.390  0.00  0.00    +0.000 A 
ATOM     13  C   UNL     1       0.579   9.488  22.166  0.00  0.00    +0.000 A 
ATOM     14  C   UNL     1       1.255   8.419  21.576  0.00  0.00    +0.000 A 
ATOM     15  C   UNL     1       1.514   8.403  20.196  0.00  0.00    +0.000 A 
ATOM     16  C   UNL     1       1.075   9.481  19.418  0.00  0.00    +0.000 A 
ATOM     17  C   UNL     1       0.404  10.558  20.011  0.00  0.00    +0.000 A 
ENDBRANCH   5  15
ENDBRANCH   4   7
ENDBRANCH   1   4
BRANCH   1  18
ATOM     18  C   UNL     1       6.550   7.159  17.160  0.00  0.00    +0.000 C 
BRANCH  18  19
ATOM     19  C   UNL     1       7.675   7.677  18.001  0.00  0.00    +0.000 C 
ATOM     20  O   UNL     1       8.341   6.949  18.730  0.00  0.00    +0.000 OA
ATOM     21  N   UNL     1       7.907   9.032  17.890  0.00  0.00    +0.000 N 
ATOM     22  H   UNL     1       7.311   9.618  17.305  0.00  0.00    +0.000 HD
BRANCH  21  23
ATOM     23  C   UNL     1       8.901   9.662  18.745  0.00  0.00    +0.000 C 
BRANCH  23  24
ATOM     24  C   UNL     1       9.466  10.946  18.122  0.00  0.00    +0.000 C 
BRANCH  24  25
ATOM     25  N   UNL     1       9.077  12.193  18.806  0.00  0.00    +0.000 NA
ATOM     26  C   UNL     1       9.728  13.404  18.255  0.00  0.00    +0.000 C 
ATOM     27  C   UNL     1      11.239  13.473  18.535  0.00  0.00    +0.000 C 
ATOM     28  O   UNL     1      11.516  13.388  19.939  0.00  0.00    +0.000 OA
ATOM     29  C   UNL     1      10.940  12.211  20.516  0.00  0.00    +0.000 C 
ATOM     30  C   UNL     1       9.425  12.128  20.246  0.00  0.00    +0.000 C 
ENDBRANCH  24  25
ENDBRANCH  23  24
ENDBRANCH  21  23
ENDBRANCH  18  19
ENDBRANCH   1  18
TORSDOF 8
ENDMDL
