MODEL 1
REMARK VINA RESULT:      -8.2      0.000      0.000
REMARK  Name = 
REMARK  8 active torsions:
REMARK  status: ('A' for Active; 'I' for Inactive)
REMARK    1  A    between atoms: C_1  and  C_2
REMARK    2  A    between atoms: C_3  and  C_4
REMARK    3  A    between atoms: C_13  and  C_14
REMARK    4  A    between atoms: C_14  and  C_15
REMARK    5  A    between atoms: N_17  and  C_18
REMARK    6  A    between atoms: N_23  and  C_24
REMARK    7  A    between atoms: C_24  and  C_25
REMARK    8  A    between atoms: C_25  and  C_26
REMARK                            x       y       z     vdW  Elec       q    Type
REMARK                         _______ _______ _______ _____ _____    ______ ____
ROOT
ATOM      1  C   UNL     1       7.338   5.311  20.167  0.00  0.00    +0.000 C 
ATOM      2  C   UNL     1       6.529   5.580  18.913  0.00  0.00    +0.000 C 
ATOM      3  C   UNL     1       5.391   4.913  18.574  0.00  0.00    +0.000 C 
ATOM      4  C   UNL     1       4.744   5.253  17.270  0.00  0.00    +0.000 C 
ATOM      5  C   UNL     1       5.731   5.596  16.175  0.00  0.00    +0.000 C 
ATOM      6  C   UNL     1       6.639   6.681  16.686  0.00  0.00    +0.000 C 
ATOM      7  O   UNL     1       7.043   7.530  15.889  0.00  0.00    +0.000 OA
ATOM      8  N   UNL     1       7.033   6.592  18.036  0.00  0.00    +0.000 N 
ENDROOT
BRANCH   3   9
ATOM      9  C   UNL     1       4.798   3.756  19.372  0.00  0.00    +0.000 C 
ATOM     10  O   UNL     1       5.462   2.723  19.492  0.00  0.00    +0.000 OA
ATOM     11  N   UNL     1       3.511   3.844  19.923  0.00  0.00    +0.000 N 
ATOM     12  C   UNL     1       2.485   4.856  19.621  0.00  0.00    +0.000 C 
ATOM     13  C   UNL     1       1.431   5.021  20.709  0.00  0.00    +0.000 C 
ATOM     14  O   UNL     1       0.843   3.766  21.046  0.00  0.00    +0.000 OA
ATOM     15  C   UNL     1       1.855   2.873  21.527  0.00  0.00    +0.000 C 
ATOM     16  C   UNL     1       2.928   2.604  20.464  0.00  0.00    +0.000 C 
ENDBRANCH   3   9
BRANCH   5  17
ATOM     17  C   UNL     1       6.556   4.410  15.675  0.00  0.00    +0.000 C 
BRANCH  17  18
ATOM     18  C   UNL     1       6.681   4.424  14.165  0.00  0.00    +0.000 C 
ATOM     19  O   UNL     1       7.383   5.225  13.559  0.00  0.00    +0.000 OA
ATOM     20  N   UNL     1       5.937   3.435  13.548  0.00  0.00    +0.000 N 
ATOM     21  H   UNL     1       5.374   2.814  14.114  0.00  0.00    +0.000 HD
BRANCH  20  22
ATOM     22  C   UNL     1       5.847   3.326  12.127  0.00  0.00    +0.000 C 
ATOM     23  C   UNL     1       5.548   2.001  11.483  0.00  0.00    +0.000 C 
ATOM     24  C   UNL     1       4.519   3.093  11.461  0.00  0.00    +0.000 C 
ENDBRANCH  20  22
ENDBRANCH  17  18
ENDBRANCH   5  17
BRANCH   8  25
ATOM     25  C   UNL     1       8.103   7.526  18.455  0.00  0.00    +0.000 C 
BRANCH  25  26
ATOM     26  C   UNL     1       8.217   8.821  17.621  0.00  0.00    +0.000 C 
BRANCH  26  27
ATOM     27  C   UNL     1       8.697  10.020  18.415  0.00  0.00    +0.000 C 
ATOM     28  C   UNL     1       9.258   9.869  19.630  0.00  0.00    +0.000 C 
ATOM     29  C   UNL     1       9.774  11.004  20.465  0.00  0.00    +0.000 C 
ATOM     30  C   UNL     1       9.308  12.369  19.964  0.00  0.00    +0.000 C 
ATOM     31  C   UNL     1       9.413  12.459  18.446  0.00  0.00    +0.000 C 
ATOM     32  C   UNL     1       8.570  11.377  17.765  0.00  0.00    +0.000 C 
ENDBRANCH  26  27
ENDBRANCH  25  26
ENDBRANCH   8  25
TORSDOF 7
ENDMDL
MODEL 2
REMARK VINA RESULT:      -8.2      4.106      7.763
REMARK  Name = 
REMARK  8 active torsions:
REMARK  status: ('A' for Active; 'I' for Inactive)
REMARK    1  A    between atoms: C_1  and  C_2
REMARK    2  A    between atoms: C_3  and  C_4
REMARK    3  A    between atoms: C_13  and  C_14
REMARK    4  A    between atoms: C_14  and  C_15
REMARK    5  A    between atoms: N_17  and  C_18
REMARK    6  A    between atoms: N_23  and  C_24
REMARK    7  A    between atoms: C_24  and  C_25
REMARK    8  A    between atoms: C_25  and  C_26
REMARK                            x       y       z     vdW  Elec       q    Type
REMARK                         _______ _______ _______ _____ _____    ______ ____
ROOT
ATOM      1  C   UNL     1       2.489   8.225  17.296  0.00  0.00    +0.000 C 
ATOM      2  C   UNL     1       2.528   7.588  18.671  0.00  0.00    +0.000 C 
ATOM      3  C   UNL     1       3.193   6.437  18.967  0.00  0.00    +0.000 C 
ATOM      4  C   UNL     1       3.082   5.905  20.359  0.00  0.00    +0.000 C 
ATOM      5  C   UNL     1       1.726   6.136  20.991  0.00  0.00    +0.000 C 
ATOM      6  C   UNL     1       1.407   7.603  20.891  0.00  0.00    +0.000 C 
ATOM      7  O   UNL     1       0.770   8.128  21.807  0.00  0.00    +0.000 OA
ATOM      8  N   UNL     1       1.790   8.253  19.701  0.00  0.00    +0.000 N 
ENDROOT
BRANCH   3   9
ATOM      9  C   UNL     1       3.941   5.585  17.947  0.00  0.00    +0.000 C 
ATOM     10  O   UNL     1       3.306   5.098  17.008  0.00  0.00    +0.000 OA
ATOM     11  N   UNL     1       5.312   5.322  18.092  0.00  0.00    +0.000 N 
ATOM     12  C   UNL     1       6.137   5.560  19.287  0.00  0.00    +0.000 C 
ATOM     13  C   UNL     1       7.629   5.683  19.001  0.00  0.00    +0.000 C 
ATOM     14  O   UNL     1       8.101   4.564  18.254  0.00  0.00    +0.000 OA
ATOM     15  C   UNL     1       7.405   4.491  17.004  0.00  0.00    +0.000 C 
ATOM     16  C   UNL     1       5.895   4.303  17.203  0.00  0.00    +0.000 C 
ENDBRANCH   3   9
BRANCH   5  17
ATOM     17  C   UNL     1       0.595   5.309  20.379  0.00  0.00    +0.000 C 
BRANCH  17  18
ATOM     18  C   UNL     1       0.989   3.851  20.251  0.00  0.00    +0.000 C 
ATOM     19  O   UNL     1       1.000   3.075  21.199  0.00  0.00    +0.000 OA
ATOM     20  N   UNL     1       1.316   3.487  18.958  0.00  0.00    +0.000 N 
ATOM     21  H   UNL     1       1.292   4.185  18.226  0.00  0.00    +0.000 HD
BRANCH  20  22
ATOM     22  C   UNL     1       1.796   2.182  18.633  0.00  0.00    +0.000 C 
ATOM     23  C   UNL     1       2.655   1.967  17.418  0.00  0.00    +0.000 C 
ATOM     24  C   UNL     1       3.253   1.842  18.790  0.00  0.00    +0.000 C 
ENDBRANCH  20  22
ENDBRANCH  17  18
ENDBRANCH   5  17
BRANCH   8  25
ATOM     25  C   UNL     1       1.265   9.627  19.522  0.00  0.00    +0.000 C 
BRANCH  25  26
ATOM     26  C   UNL     1      -0.191   9.846  19.989  0.00  0.00    +0.000 C 
BRANCH  26  27
ATOM     27  C   UNL     1      -1.130  10.279  18.880  0.00  0.00    +0.000 C 
ATOM     28  C   UNL     1      -1.169   9.620  17.707  0.00  0.00    +0.000 C 
ATOM     29  C   UNL     1      -2.086   9.975  16.573  0.00  0.00    +0.000 C 
ATOM     30  C   UNL     1      -2.730  11.349  16.740  0.00  0.00    +0.000 C 
ATOM     31  C   UNL     1      -3.210  11.557  18.172  0.00  0.00    +0.000 C 
ATOM     32  C   UNL     1      -2.053  11.440  19.168  0.00  0.00    +0.000 C 
ENDBRANCH  26  27
ENDBRANCH  25  26
ENDBRANCH   8  25
TORSDOF 7
ENDMDL
MODEL 3
REMARK VINA RESULT:      -8.1      7.893     10.896
REMARK  Name = 
REMARK  8 active torsions:
REMARK  status: ('A' for Active; 'I' for Inactive)
REMARK    1  A    between atoms: C_1  and  C_2
REMARK    2  A    between atoms: C_3  and  C_4
REMARK    3  A    between atoms: C_13  and  C_14
REMARK    4  A    between atoms: C_14  and  C_15
REMARK    5  A    between atoms: N_17  and  C_18
REMARK    6  A    between atoms: N_23  and  C_24
REMARK    7  A    between atoms: C_24  and  C_25
REMARK    8  A    between atoms: C_25  and  C_26
REMARK                            x       y       z     vdW  Elec       q    Type
REMARK                         _______ _______ _______ _____ _____    ______ ____
ROOT
ATOM      1  C   UNL     1      -0.809   9.450  19.989  0.00  0.00    +0.000 C 
ATOM      2  C   UNL     1       0.200  10.580  20.035  0.00  0.00    +0.000 C 
ATOM      3  C   UNL     1       0.268  11.511  21.028  0.00  0.00    +0.000 C 
ATOM      4  C   UNL     1       1.282  12.601  20.895  0.00  0.00    +0.000 C 
ATOM      5  C   UNL     1       1.503  13.053  19.467  0.00  0.00    +0.000 C 
ATOM      6  C   UNL     1       1.825  11.841  18.636  0.00  0.00    +0.000 C 
ATOM      7  O   UNL     1       2.622  11.965  17.704  0.00  0.00    +0.000 OA
ATOM      8  N   UNL     1       1.115  10.662  18.938  0.00  0.00    +0.000 N 
ENDROOT
BRANCH   3   9
ATOM      9  C   UNL     1      -0.700  11.591  22.204  0.00  0.00    +0.000 C 
ATOM     10  O   UNL     1      -0.424  10.974  23.236  0.00  0.00    +0.000 OA
ATOM     11  N   UNL     1      -1.897  12.315  22.106  0.00  0.00    +0.000 N 
ATOM     12  C   UNL     1      -2.515  12.842  20.878  0.00  0.00    +0.000 C 
ATOM     13  C   UNL     1      -3.482  13.996  21.111  0.00  0.00    +0.000 C 
ATOM     14  O   UNL     1      -4.466  13.652  22.084  0.00  0.00    +0.000 OA
ATOM     15  C   UNL     1      -3.825  13.340  23.327  0.00  0.00    +0.000 C 
ATOM     16  C   UNL     1      -2.876  12.142  23.193  0.00  0.00    +0.000 C 
ENDBRANCH   3   9
BRANCH   5  17
ATOM     17  C   UNL     1       0.325  13.813  18.857  0.00  0.00    +0.000 C 
BRANCH  17  18
ATOM     18  C   UNL     1       0.617  15.297  18.762  0.00  0.00    +0.000 C 
ATOM     19  O   UNL     1       1.751  15.759  18.806  0.00  0.00    +0.000 OA
ATOM     20  N   UNL     1      -0.520  16.067  18.606  0.00  0.00    +0.000 N 
ATOM     21  H   UNL     1      -1.425  15.614  18.586  0.00  0.00    +0.000 HD
BRANCH  20  22
ATOM     22  C   UNL     1      -0.475  17.494  18.581  0.00  0.00    +0.000 C 
ATOM     23  C   UNL     1      -0.519  18.234  17.273  0.00  0.00    +0.000 C 
ATOM     24  C   UNL     1      -1.694  18.291  18.204  0.00  0.00    +0.000 C 
ENDBRANCH  20  22
ENDBRANCH  17  18
ENDBRANCH   5  17
BRANCH   8  25
ATOM     25  C   UNL     1       1.272   9.553  17.968  0.00  0.00    +0.000 C 
BRANCH  25  26
ATOM     26  C   UNL     1       2.560   8.715  18.122  0.00  0.00    +0.000 C 
BRANCH  26  27
ATOM     27  C   UNL     1       2.321   7.323  18.674  0.00  0.00    +0.000 C 
ATOM     28  C   UNL     1       2.489   6.232  17.902  0.00  0.00    +0.000 C 
ATOM     29  C   UNL     1       2.293   4.824  18.383  0.00  0.00    +0.000 C 
ATOM     30  C   UNL     1       1.567   4.750  19.724  0.00  0.00    +0.000 C 
ATOM     31  C   UNL     1       2.105   5.796  20.695  0.00  0.00    +0.000 C 
ATOM     32  C   UNL     1       1.945   7.211  20.133  0.00  0.00    +0.000 C 
ENDBRANCH  26  27
ENDBRANCH  25  26
ENDBRANCH   8  25
TORSDOF 7
ENDMDL
MODEL 4
REMARK VINA RESULT:      -8.1      4.169      7.678
REMARK  Name = 
REMARK  8 active torsions:
REMARK  status: ('A' for Active; 'I' for Inactive)
REMARK    1  A    between atoms: C_1  and  C_2
REMARK    2  A    between atoms: C_3  and  C_4
REMARK    3  A    between atoms: C_13  and  C_14
REMARK    4  A    between atoms: C_14  and  C_15
REMARK    5  A    between atoms: N_17  and  C_18
REMARK    6  A    between atoms: N_23  and  C_24
REMARK    7  A    between atoms: C_24  and  C_25
REMARK    8  A    between atoms: C_25  and  C_26
REMARK                            x       y       z     vdW  Elec       q    Type
REMARK                         _______ _______ _______ _____ _____    ______ ____
ROOT
ATOM      1  C   UNL     1       2.527   8.096  17.263  0.00  0.00    +0.000 C 
ATOM      2  C   UNL     1       2.548   7.473  18.645  0.00  0.00    +0.000 C 
ATOM      3  C   UNL     1       3.234   6.341  18.968  0.00  0.00    +0.000 C 
ATOM      4  C   UNL     1       3.103   5.818  20.362  0.00  0.00    +0.000 C 
ATOM      5  C   UNL     1       1.726   6.021  20.958  0.00  0.00    +0.000 C 
ATOM      6  C   UNL     1       1.372   7.478  20.837  0.00  0.00    +0.000 C 
ATOM      7  O   UNL     1       0.701   7.994  21.732  0.00  0.00    +0.000 OA
ATOM      8  N   UNL     1       1.769   8.127  19.650  0.00  0.00    +0.000 N 
ENDROOT
BRANCH   3   9
ATOM      9  C   UNL     1       4.029   5.499  17.975  0.00  0.00    +0.000 C 
ATOM     10  O   UNL     1       3.428   4.986  17.027  0.00  0.00    +0.000 OA
ATOM     11  N   UNL     1       5.402   5.276  18.153  0.00  0.00    +0.000 N 
ATOM     12  C   UNL     1       6.194   5.549  19.364  0.00  0.00    +0.000 C 
ATOM     13  C   UNL     1       7.688   5.710  19.110  0.00  0.00    +0.000 C 
ATOM     14  O   UNL     1       8.207   4.597  18.386  0.00  0.00    +0.000 OA
ATOM     15  C   UNL     1       7.542   4.492  17.121  0.00  0.00    +0.000 C 
ATOM     16  C   UNL     1       6.034   4.264  17.289  0.00  0.00    +0.000 C 
ENDBRANCH   3   9
BRANCH   5  17
ATOM     17  C   UNL     1       0.632   5.159  20.327  0.00  0.00    +0.000 C 
BRANCH  17  18
ATOM     18  C   UNL     1       1.065   3.711  20.222  0.00  0.00    +0.000 C 
ATOM     19  O   UNL     1       1.044   2.936  21.172  0.00  0.00    +0.000 OA
ATOM     20  N   UNL     1       1.468   3.353  18.949  0.00  0.00    +0.000 N 
ATOM     21  H   UNL     1       1.466   4.050  18.216  0.00  0.00    +0.000 HD
BRANCH  20  22
ATOM     22  C   UNL     1       1.994   2.059  18.653  0.00  0.00    +0.000 C 
ATOM     23  C   UNL     1       2.870   1.851  17.449  0.00  0.00    +0.000 C 
ATOM     24  C   UNL     1       3.460   1.772  18.827  0.00  0.00    +0.000 C 
ENDBRANCH  20  22
ENDBRANCH  17  18
ENDBRANCH   5  17
BRANCH   8  25
ATOM     25  C   UNL     1       1.214   9.486  19.446  0.00  0.00    +0.000 C 
BRANCH  25  26
ATOM     26  C   UNL     1       0.472   9.705  18.110  0.00  0.00    +0.000 C 
BRANCH  26  27
ATOM     27  C   UNL     1      -0.837  10.456  18.253  0.00  0.00    +0.000 C 
ATOM     28  C   UNL     1      -0.984  11.425  19.177  0.00  0.00    +0.000 C 
ATOM     29  C   UNL     1      -2.240  12.225  19.364  0.00  0.00    +0.000 C 
ATOM     30  C   UNL     1      -3.442  11.621  18.642  0.00  0.00    +0.000 C 
ATOM     31  C   UNL     1      -3.061  11.158  17.240  0.00  0.00    +0.000 C 
ATOM     32  C   UNL     1      -1.944  10.112  17.284  0.00  0.00    +0.000 C 
ENDBRANCH  26  27
ENDBRANCH  25  26
ENDBRANCH   8  25
TORSDOF 7
ENDMDL
MODEL 5
REMARK VINA RESULT:      -8.1      3.588      6.352
REMARK  Name = 
REMARK  8 active torsions:
REMARK  status: ('A' for Active; 'I' for Inactive)
REMARK    1  A    between atoms: C_1  and  C_2
REMARK    2  A    between atoms: C_3  and  C_4
REMARK    3  A    between atoms: C_13  and  C_14
REMARK    4  A    between atoms: C_14  and  C_15
REMARK    5  A    between atoms: N_17  and  C_18
REMARK    6  A    between atoms: N_23  and  C_24
REMARK    7  A    between atoms: C_24  and  C_25
REMARK    8  A    between atoms: C_25  and  C_26
REMARK                            x       y       z     vdW  Elec       q    Type
REMARK                         _______ _______ _______ _____ _____    ______ ____
ROOT
ATOM      1  C   UNL     1       1.431   4.995  17.124  0.00  0.00    +0.000 C 
ATOM      2  C   UNL     1       2.896   5.216  17.447  0.00  0.00    +0.000 C 
ATOM      3  C   UNL     1       3.419   6.397  17.878  0.00  0.00    +0.000 C 
ATOM      4  C   UNL     1       4.897   6.469  18.093  0.00  0.00    +0.000 C 
ATOM      5  C   UNL     1       5.695   5.646  17.104  0.00  0.00    +0.000 C 
ATOM      6  C   UNL     1       5.161   4.240  17.127  0.00  0.00    +0.000 C 
ATOM      7  O   UNL     1       5.953   3.311  16.959  0.00  0.00    +0.000 OA
ATOM      8  N   UNL     1       3.765   4.096  17.255  0.00  0.00    +0.000 N 
ENDROOT
BRANCH   3   9
ATOM      9  C   UNL     1       2.622   7.687  18.038  0.00  0.00    +0.000 C 
ATOM     10  O   UNL     1       2.627   8.501  17.110  0.00  0.00    +0.000 OA
ATOM     11  N   UNL     1       1.932   7.967  19.227  0.00  0.00    +0.000 N 
ATOM     12  C   UNL     1       2.069   7.269  20.516  0.00  0.00    +0.000 C 
ATOM     13  C   UNL     1       0.867   7.421  21.440  0.00  0.00    +0.000 C 
ATOM     14  O   UNL     1       0.532   8.795  21.623  0.00  0.00    +0.000 OA
ATOM     15  C   UNL     1       0.209   9.386  20.358  0.00  0.00    +0.000 C 
ATOM     16  C   UNL     1       1.394   9.330  19.385  0.00  0.00    +0.000 C 
ENDBRANCH   3   9
BRANCH   5  17
ATOM     17  C   UNL     1       5.682   6.191  15.675  0.00  0.00    +0.000 C 
BRANCH  17  18
ATOM     18  C   UNL     1       6.545   5.348  14.758  0.00  0.00    +0.000 C 
ATOM     19  O   UNL     1       7.756   5.504  14.650  0.00  0.00    +0.000 OA
ATOM     20  N   UNL     1       5.832   4.383  14.073  0.00  0.00    +0.000 N 
ATOM     21  H   UNL     1       4.831   4.319  14.208  0.00  0.00    +0.000 HD
BRANCH  20  22
ATOM     22  C   UNL     1       6.439   3.539  13.095  0.00  0.00    +0.000 C 
ATOM     23  C   UNL     1       5.638   3.022  11.932  0.00  0.00    +0.000 C 
ATOM     24  C   UNL     1       6.707   4.050  11.705  0.00  0.00    +0.000 C 
ENDBRANCH  20  22
ENDBRANCH  17  18
ENDBRANCH   5  17
BRANCH   8  25
ATOM     25  C   UNL     1       3.239   2.727  17.042  0.00  0.00    +0.000 C 
BRANCH  25  26
ATOM     26  C   UNL     1       3.376   1.770  18.246  0.00  0.00    +0.000 C 
BRANCH  26  27
ATOM     27  C   UNL     1       2.636   2.236  19.485  0.00  0.00    +0.000 C 
ATOM     28  C   UNL     1       3.302   2.555  20.612  0.00  0.00    +0.000 C 
ATOM     29  C   UNL     1       2.642   3.044  21.868  0.00  0.00    +0.000 C 
ATOM     30  C   UNL     1       1.130   2.831  21.865  0.00  0.00    +0.000 C 
ATOM     31  C   UNL     1       0.527   3.211  20.516  0.00  0.00    +0.000 C 
ATOM     32  C   UNL     1       1.137   2.381  19.383  0.00  0.00    +0.000 C 
ENDBRANCH  26  27
ENDBRANCH  25  26
ENDBRANCH   8  25
TORSDOF 7
ENDMDL
MODEL 6
REMARK VINA RESULT:      -7.9      7.248     10.487
REMARK  Name = 
REMARK  8 active torsions:
REMARK  status: ('A' for Active; 'I' for Inactive)
REMARK    1  A    between atoms: C_1  and  C_2
REMARK    2  A    between atoms: C_3  and  C_4
REMARK    3  A    between atoms: C_13  and  C_14
REMARK    4  A    between atoms: C_14  and  C_15
REMARK    5  A    between atoms: N_17  and  C_18
REMARK    6  A    between atoms: N_23  and  C_24
REMARK    7  A    between atoms: C_24  and  C_25
REMARK    8  A    between atoms: C_25  and  C_26
REMARK                            x       y       z     vdW  Elec       q    Type
REMARK                         _______ _______ _______ _____ _____    ______ ____
ROOT
ATOM      1  C   UNL     1      -0.757   9.192  20.127  0.00  0.00    +0.000 C 
ATOM      2  C   UNL     1       0.239  10.335  20.141  0.00  0.00    +0.000 C 
ATOM      3  C   UNL     1       0.327  11.267  21.131  0.00  0.00    +0.000 C 
ATOM      4  C   UNL     1       1.323  12.369  20.966  0.00  0.00    +0.000 C 
ATOM      5  C   UNL     1       1.492  12.824  19.532  0.00  0.00    +0.000 C 
ATOM      6  C   UNL     1       1.803  11.615  18.691  0.00  0.00    +0.000 C 
ATOM      7  O   UNL     1       2.568  11.749  17.734  0.00  0.00    +0.000 OA
ATOM      8  N   UNL     1       1.117  10.427  19.015  0.00  0.00    +0.000 N 
ENDROOT
BRANCH   3   9
ATOM      9  C   UNL     1      -0.604  11.336  22.337  0.00  0.00    +0.000 C 
ATOM     10  O   UNL     1      -0.307  10.692  23.347  0.00  0.00    +0.000 OA
ATOM     11  N   UNL     1      -1.793  12.079  22.290  0.00  0.00    +0.000 N 
ATOM     12  C   UNL     1      -2.439  12.641  21.093  0.00  0.00    +0.000 C 
ATOM     13  C   UNL     1      -3.382  13.804  21.379  0.00  0.00    +0.000 C 
ATOM     14  O   UNL     1      -4.340  13.453  22.375  0.00  0.00    +0.000 OA
ATOM     15  C   UNL     1      -3.668  13.105  23.591  0.00  0.00    +0.000 C 
ATOM     16  C   UNL     1      -2.741  11.896  23.402  0.00  0.00    +0.000 C 
ENDBRANCH   3   9
BRANCH   5  17
ATOM     17  C   UNL     1       0.286  13.568  18.959  0.00  0.00    +0.000 C 
BRANCH  17  18
ATOM     18  C   UNL     1       0.604  15.031  18.721  0.00  0.00    +0.000 C 
ATOM     19  O   UNL     1      -0.260  15.885  18.558  0.00  0.00    +0.000 OA
ATOM     20  N   UNL     1       1.960  15.301  18.725  0.00  0.00    +0.000 N 
ATOM     21  H   UNL     1       2.615  14.542  18.858  0.00  0.00    +0.000 HD
BRANCH  20  22
ATOM     22  C   UNL     1       2.477  16.600  18.435  0.00  0.00    +0.000 C 
ATOM     23  C   UNL     1       3.951  16.801  18.218  0.00  0.00    +0.000 C 
ATOM     24  C   UNL     1       3.001  16.926  17.063  0.00  0.00    +0.000 C 
ENDBRANCH  20  22
ENDBRANCH  17  18
ENDBRANCH   5  17
BRANCH   8  25
ATOM     25  C   UNL     1       1.257   9.320  18.041  0.00  0.00    +0.000 C 
BRANCH  25  26
ATOM     26  C   UNL     1       2.535   8.465  18.188  0.00  0.00    +0.000 C 
BRANCH  26  27
ATOM     27  C   UNL     1       2.278   7.065  18.709  0.00  0.00    +0.000 C 
ATOM     28  C   UNL     1       2.350   5.996  17.892  0.00  0.00    +0.000 C 
ATOM     29  C   UNL     1       2.130   4.581  18.339  0.00  0.00    +0.000 C 
ATOM     30  C   UNL     1       1.491   4.487  19.723  0.00  0.00    +0.000 C 
ATOM     31  C   UNL     1       2.135   5.477  20.688  0.00  0.00    +0.000 C 
ATOM     32  C   UNL     1       1.995   6.916  20.185  0.00  0.00    +0.000 C 
ENDBRANCH  26  27
ENDBRANCH  25  26
ENDBRANCH   8  25
TORSDOF 7
ENDMDL
MODEL 7
REMARK VINA RESULT:      -7.9      6.782      9.710
REMARK  Name = 
REMARK  8 active torsions:
REMARK  status: ('A' for Active; 'I' for Inactive)
REMARK    1  A    between atoms: C_1  and  C_2
REMARK    2  A    between atoms: C_3  and  C_4
REMARK    3  A    between atoms: C_13  and  C_14
REMARK    4  A    between atoms: C_14  and  C_15
REMARK    5  A    between atoms: N_17  and  C_18
REMARK    6  A    between atoms: N_23  and  C_24
REMARK    7  A    between atoms: C_24  and  C_25
REMARK    8  A    between atoms: C_25  and  C_26
REMARK                            x       y       z     vdW  Elec       q    Type
REMARK                         _______ _______ _______ _____ _____    ______ ____
ROOT
ATOM      1  C   UNL     1       0.961   8.215  21.970  0.00  0.00    +0.000 C 
ATOM      2  C   UNL     1       0.904   9.248  20.862  0.00  0.00    +0.000 C 
ATOM      3  C   UNL     1       0.303  10.465  20.974  0.00  0.00    +0.000 C 
ATOM      4  C   UNL     1       0.279  11.347  19.767  0.00  0.00    +0.000 C 
ATOM      5  C   UNL     1       0.133  10.588  18.465  0.00  0.00    +0.000 C 
ATOM      6  C   UNL     1       1.210   9.539  18.410  0.00  0.00    +0.000 C 
ATOM      7  O   UNL     1       1.703   9.263  17.316  0.00  0.00    +0.000 OA
ATOM      8  N   UNL     1       1.513   8.882  19.620  0.00  0.00    +0.000 N 
ENDROOT
BRANCH   3   9
ATOM      9  C   UNL     1      -0.457  10.942  22.207  0.00  0.00    +0.000 C 
ATOM     10  O   UNL     1      -0.137  10.486  23.308  0.00  0.00    +0.000 OA
ATOM     11  N   UNL     1      -1.524  11.847  22.093  0.00  0.00    +0.000 N 
ATOM     12  C   UNL     1      -2.221  12.243  20.859  0.00  0.00    +0.000 C 
ATOM     13  C   UNL     1      -2.944  13.581  20.952  0.00  0.00    +0.000 C 
ATOM     14  O   UNL     1      -3.818  13.614  22.078  0.00  0.00    +0.000 OA
ATOM     15  C   UNL     1      -3.062  13.423  23.280  0.00  0.00    +0.000 C 
ATOM     16  C   UNL     1      -2.348  12.065  23.294  0.00  0.00    +0.000 C 
ENDBRANCH   3   9
BRANCH   5  17
ATOM     17  C   UNL     1      -1.239   9.946  18.260  0.00  0.00    +0.000 C 
BRANCH  17  18
ATOM     18  C   UNL     1      -2.062  10.717  17.248  0.00  0.00    +0.000 C 
ATOM     19  O   UNL     1      -2.620  11.777  17.509  0.00  0.00    +0.000 OA
ATOM     20  N   UNL     1      -2.103  10.113  16.005  0.00  0.00    +0.000 N 
ATOM     21  H   UNL     1      -1.624   9.233  15.867  0.00  0.00    +0.000 HD
BRANCH  20  22
ATOM     22  C   UNL     1      -2.893  10.631  14.934  0.00  0.00    +0.000 C 
ATOM     23  C   UNL     1      -3.013   9.872  13.641  0.00  0.00    +0.000 C 
ATOM     24  C   UNL     1      -4.195   9.978  14.560  0.00  0.00    +0.000 C 
ENDBRANCH  20  22
ENDBRANCH  17  18
ENDBRANCH   5  17
BRANCH   8  25
ATOM     25  C   UNL     1       2.400   7.701  19.504  0.00  0.00    +0.000 C 
BRANCH  25  26
ATOM     26  C   UNL     1       1.991   6.668  18.431  0.00  0.00    +0.000 C 
BRANCH  26  27
ATOM     27  C   UNL     1       1.789   5.268  18.977  0.00  0.00    +0.000 C 
ATOM     28  C   UNL     1       1.537   4.231  18.155  0.00  0.00    +0.000 C 
ATOM     29  C   UNL     1       1.348   2.817  18.618  0.00  0.00    +0.000 C 
ATOM     30  C   UNL     1       1.136   2.710  20.127  0.00  0.00    +0.000 C 
ATOM     31  C   UNL     1       2.108   3.613  20.880  0.00  0.00    +0.000 C 
ATOM     32  C   UNL     1       1.939   5.078  20.468  0.00  0.00    +0.000 C 
ENDBRANCH  26  27
ENDBRANCH  25  26
ENDBRANCH   8  25
TORSDOF 7
ENDMDL
MODEL 8
REMARK VINA RESULT:      -7.9      8.093     11.410
REMARK  Name = 
REMARK  8 active torsions:
REMARK  status: ('A' for Active; 'I' for Inactive)
REMARK    1  A    between atoms: C_1  and  C_2
REMARK    2  A    between atoms: C_3  and  C_4
REMARK    3  A    between atoms: C_13  and  C_14
REMARK    4  A    between atoms: C_14  and  C_15
REMARK    5  A    between atoms: N_17  and  C_18
REMARK    6  A    between atoms: N_23  and  C_24
REMARK    7  A    between atoms: C_24  and  C_25
REMARK    8  A    between atoms: C_25  and  C_26
REMARK                            x       y       z     vdW  Elec       q    Type
REMARK                         _______ _______ _______ _____ _____    ______ ____
ROOT
ATOM      1  C   UNL     1       1.429  11.707  20.847  0.00  0.00    +0.000 C 
ATOM      2  C   UNL     1       0.568  11.914  19.617  0.00  0.00    +0.000 C 
ATOM      3  C   UNL     1       0.078  13.120  19.214  0.00  0.00    +0.000 C 
ATOM      4  C   UNL     1      -0.809  13.147  18.011  0.00  0.00    +0.000 C 
ATOM      5  C   UNL     1      -1.700  11.930  17.887  0.00  0.00    +0.000 C 
ATOM      6  C   UNL     1      -0.831  10.704  17.954  0.00  0.00    +0.000 C 
ATOM      7  O   UNL     1      -1.151   9.723  17.280  0.00  0.00    +0.000 OA
ATOM      8  N   UNL     1       0.247  10.743  18.860  0.00  0.00    +0.000 N 
ENDROOT
BRANCH   3   9
ATOM      9  C   UNL     1       0.269  14.427  19.975  0.00  0.00    +0.000 C 
ATOM     10  O   UNL     1      -0.554  14.728  20.844  0.00  0.00    +0.000 OA
ATOM     11  N   UNL     1       1.331  15.292  19.671  0.00  0.00    +0.000 N 
ATOM     12  C   UNL     1       2.203  15.240  18.486  0.00  0.00    +0.000 C 
ATOM     13  C   UNL     1       3.548  15.933  18.669  0.00  0.00    +0.000 C 
ATOM     14  O   UNL     1       3.376  17.270  19.133  0.00  0.00    +0.000 OA
ATOM     15  C   UNL     1       2.696  17.260  20.394  0.00  0.00    +0.000 C 
ATOM     16  C   UNL     1       1.301  16.632  20.283  0.00  0.00    +0.000 C 
ENDBRANCH   3   9
BRANCH   5  17
ATOM     17  C   UNL     1      -2.807  11.849  18.939  0.00  0.00    +0.000 C 
BRANCH  17  18
ATOM     18  C   UNL     1      -4.134  11.467  18.314  0.00  0.00    +0.000 C 
ATOM     19  O   UNL     1      -4.405  10.323  17.969  0.00  0.00    +0.000 OA
ATOM     20  N   UNL     1      -5.004  12.534  18.190  0.00  0.00    +0.000 N 
ATOM     21  H   UNL     1      -4.707  13.453  18.490  0.00  0.00    +0.000 HD
BRANCH  20  22
ATOM     22  C   UNL     1      -6.274  12.408  17.549  0.00  0.00    +0.000 C 
ATOM     23  C   UNL     1      -7.504  13.009  18.172  0.00  0.00    +0.000 C 
ATOM     24  C   UNL     1      -6.933  13.604  16.917  0.00  0.00    +0.000 C 
ENDBRANCH  20  22
ENDBRANCH  17  18
ENDBRANCH   5  17
BRANCH   8  25
ATOM     25  C   UNL     1       0.945   9.455  19.082  0.00  0.00    +0.000 C 
BRANCH  25  26
ATOM     26  C   UNL     1       2.103   9.151  18.106  0.00  0.00    +0.000 C 
BRANCH  26  27
ATOM     27  C   UNL     1       2.688   7.762  18.264  0.00  0.00    +0.000 C 
ATOM     28  C   UNL     1       3.612   7.295  17.403  0.00  0.00    +0.000 C 
ATOM     29  C   UNL     1       4.251   5.941  17.508  0.00  0.00    +0.000 C 
ATOM     30  C   UNL     1       3.523   5.015  18.478  0.00  0.00    +0.000 C 
ATOM     31  C   UNL     1       3.141   5.754  19.756  0.00  0.00    +0.000 C 
ATOM     32  C   UNL     1       2.235   6.951  19.456  0.00  0.00    +0.000 C 
ENDBRANCH  26  27
ENDBRANCH  25  26
ENDBRANCH   8  25
TORSDOF 7
ENDMDL
MODEL 9
REMARK VINA RESULT:      -7.9      7.127      9.061
REMARK  Name = 
REMARK  8 active torsions:
REMARK  status: ('A' for Active; 'I' for Inactive)
REMARK    1  A    between atoms: C_1  and  C_2
REMARK    2  A    between atoms: C_3  and  C_4
REMARK    3  A    between atoms: C_13  and  C_14
REMARK    4  A    between atoms: C_14  and  C_15
REMARK    5  A    between atoms: N_17  and  C_18
REMARK    6  A    between atoms: N_23  and  C_24
REMARK    7  A    between atoms: C_24  and  C_25
REMARK    8  A    between atoms: C_25  and  C_26
REMARK                            x       y       z     vdW  Elec       q    Type
REMARK                         _______ _______ _______ _____ _____    ______ ____
ROOT
ATOM      1  C   UNL     1       1.433  13.188  21.225  0.00  0.00    +0.000 C 
ATOM      2  C   UNL     1       0.911  11.987  20.461  0.00  0.00    +0.000 C 
ATOM      3  C   UNL     1      -0.135  11.213  20.864  0.00  0.00    +0.000 C 
ATOM      4  C   UNL     1      -0.488  10.025  20.030  0.00  0.00    +0.000 C 
ATOM      5  C   UNL     1       0.712   9.345  19.404  0.00  0.00    +0.000 C 
ATOM      6  C   UNL     1       1.500  10.383  18.653  0.00  0.00    +0.000 C 
ATOM      7  O   UNL     1       2.071  10.047  17.614  0.00  0.00    +0.000 OA
ATOM      8  N   UNL     1       1.598  11.656  19.250  0.00  0.00    +0.000 N 
ENDROOT
BRANCH   3   9
ATOM      9  C   UNL     1      -0.894  11.401  22.174  0.00  0.00    +0.000 C 
ATOM     10  O   UNL     1      -0.494  10.803  23.177  0.00  0.00    +0.000 OA
ATOM     11  N   UNL     1      -2.044  12.202  22.234  0.00  0.00    +0.000 N 
ATOM     12  C   UNL     1      -2.818  12.726  21.097  0.00  0.00    +0.000 C 
ATOM     13  C   UNL     1      -3.662  13.951  21.427  0.00  0.00    +0.000 C 
ATOM     14  O   UNL     1      -4.494  13.710  22.559  0.00  0.00    +0.000 OA
ATOM     15  C   UNL     1      -3.682  13.398  23.698  0.00  0.00    +0.000 C 
ATOM     16  C   UNL     1      -2.843  12.134  23.470  0.00  0.00    +0.000 C 
ENDBRANCH   3   9
BRANCH   5  17
ATOM     17  C   UNL     1       1.615   8.618  20.401  0.00  0.00    +0.000 C 
BRANCH  17  18
ATOM     18  C   UNL     1       2.061   7.274  19.860  0.00  0.00    +0.000 C 
ATOM     19  O   UNL     1       2.522   7.128  18.734  0.00  0.00    +0.000 OA
ATOM     20  N   UNL     1       1.911   6.244  20.768  0.00  0.00    +0.000 N 
ATOM     21  H   UNL     1       1.516   6.440  21.678  0.00  0.00    +0.000 HD
BRANCH  20  22
ATOM     22  C   UNL     1       2.193   4.885  20.430  0.00  0.00    +0.000 C 
ATOM     23  C   UNL     1       2.081   3.804  21.469  0.00  0.00    +0.000 C 
ATOM     24  C   UNL     1       1.083   3.872  20.349  0.00  0.00    +0.000 C 
ENDBRANCH  20  22
ENDBRANCH  17  18
ENDBRANCH   5  17
BRANCH   8  25
ATOM     25  C   UNL     1       2.562  12.588  18.621  0.00  0.00    +0.000 C 
BRANCH  25  26
ATOM     26  C   UNL     1       1.935  13.762  17.837  0.00  0.00    +0.000 C 
BRANCH  26  27
ATOM     27  C   UNL     1       2.124  15.111  18.502  0.00  0.00    +0.000 C 
ATOM     28  C   UNL     1       3.356  15.592  18.759  0.00  0.00    +0.000 C 
ATOM     29  C   UNL     1       3.622  16.926  19.394  0.00  0.00    +0.000 C 
ATOM     30  C   UNL     1       2.376  17.542  20.025  0.00  0.00    +0.000 C 
ATOM     31  C   UNL     1       1.166  17.386  19.110  0.00  0.00    +0.000 C 
ATOM     32  C   UNL     1       0.881  15.911  18.811  0.00  0.00    +0.000 C 
ENDBRANCH  26  27
ENDBRANCH  25  26
ENDBRANCH   8  25
TORSDOF 7
ENDMDL
