MODEL 1
REMARK VINA RESULT:      -9.0      0.000      0.000
REMARK  Name = 
REMARK  4 active torsions:
REMARK  status: ('A' for Active; 'I' for Inactive)
REMARK    1  A    between atoms: O_1  and  C_2
REMARK    2  A    between atoms: C_8  and  C_9
REMARK    3  A    between atoms: N_20  and  C_21
REMARK    4  A    between atoms: C_21  and  C_22
REMARK                            x       y       z     vdW  Elec       q    Type
REMARK                         _______ _______ _______ _____ _____    ______ ____
ROOT
ATOM      1  C   UNL     1       3.630   3.787  19.168  0.00  0.00    +0.000 A 
ATOM      2  N   UNL     1       2.918   4.467  19.996  0.00  0.00    +0.000 NA
ATOM      3  C   UNL     1       2.613   5.764  19.600  0.00  0.00    +0.000 A 
ATOM      4  C   UNL     1       3.016   6.348  18.439  0.00  0.00    +0.000 A 
ATOM      5  C   UNL     1       3.829   5.557  17.559  0.00  0.00    +0.000 A 
ATOM      6  N   UNL     1       4.406   5.817  16.399  0.00  0.00    +0.000 NA
ATOM      7  C   UNL     1       5.019   4.636  16.019  0.00  0.00    +0.000 A 
ATOM      8  C   UNL     1       4.853   3.673  16.988  0.00  0.00    +0.000 A 
ATOM      9  N   UNL     1       4.097   4.268  17.960  0.00  0.00    +0.000 N 
ATOM     10  C   UNL     1       2.607   7.778  18.113  0.00  0.00    +0.000 C 
ATOM     11  N   UNL     1       1.527   8.342  18.959  0.00  0.00    +0.000 NA
ATOM     12  C   UNL     1       1.799   8.044  20.370  0.00  0.00    +0.000 C 
ATOM     13  C   UNL     1       1.780   6.531  20.598  0.00  0.00    +0.000 C 
ENDROOT
BRANCH   7  14
ATOM     14  C   UNL     1       5.767   4.463  14.788  0.00  0.00    +0.000 A 
ATOM     15  C   UNL     1       5.226   3.694  13.749  0.00  0.00    +0.000 A 
ATOM     16  C   UNL     1       5.925   3.558  12.549  0.00  0.00    +0.000 A 
ATOM     17  F   UNL     1       5.391   2.839  11.554  0.00  0.00    +0.000 F 
ATOM     18  C   UNL     1       7.164   4.161  12.361  0.00  0.00    +0.000 A 
ATOM     19  C   UNL     1       7.719   4.914  13.393  0.00  0.00    +0.000 A 
ATOM     20  C   UNL     1       7.021   5.060  14.591  0.00  0.00    +0.000 A 
ATOM     21  F   UNL     1       7.599   5.787  15.561  0.00  0.00    +0.000 F 
ENDBRANCH   7  14
BRANCH   1  22
ATOM     22  O   UNL     1       4.000   2.519  19.417  0.00  0.00    +0.000 OA
ATOM     23  H   UNL     1       4.740   2.311  18.822  0.00  0.00    +0.000 HD
ENDBRANCH   1  22
BRANCH  11  24
ATOM     24  C   UNL     1       1.409   9.791  18.709  0.00  0.00    +0.000 C 
BRANCH  24  25
ATOM     25  C   UNL     1      -0.012  10.301  18.558  0.00  0.00    +0.000 A 
ATOM     26  C   UNL     1      -0.871   9.731  17.604  0.00  0.00    +0.000 A 
ATOM     27  C   UNL     1      -2.191  10.169  17.481  0.00  0.00    +0.000 A 
ATOM     28  C   UNL     1      -2.670  11.182  18.309  0.00  0.00    +0.000 A 
ATOM     29  C   UNL     1      -1.826  11.762  19.255  0.00  0.00    +0.000 A 
ATOM     30  C   UNL     1      -0.504  11.326  19.380  0.00  0.00    +0.000 A 
ENDBRANCH  24  25
ENDBRANCH  11  24
TORSDOF 4
ENDMDL
MODEL 2
REMARK VINA RESULT:      -8.8      0.545      1.048
REMARK  Name = 
REMARK  4 active torsions:
REMARK  status: ('A' for Active; 'I' for Inactive)
REMARK    1  A    between atoms: O_1  and  C_2
REMARK    2  A    between atoms: C_8  and  C_9
REMARK    3  A    between atoms: N_20  and  C_21
REMARK    4  A    between atoms: C_21  and  C_22
REMARK                            x       y       z     vdW  Elec       q    Type
REMARK                         _______ _______ _______ _____ _____    ______ ____
ROOT
ATOM      1  C   UNL     1       3.399   4.123  19.654  0.00  0.00    +0.000 A 
ATOM      2  N   UNL     1       2.651   4.822  20.434  0.00  0.00    +0.000 NA
ATOM      3  C   UNL     1       2.339   6.098  19.980  0.00  0.00    +0.000 A 
ATOM      4  C   UNL     1       2.769   6.645  18.810  0.00  0.00    +0.000 A 
ATOM      5  C   UNL     1       3.620   5.835  17.986  0.00  0.00    +0.000 A 
ATOM      6  N   UNL     1       4.228   6.060  16.834  0.00  0.00    +0.000 NA
ATOM      7  C   UNL     1       4.870   4.876  16.518  0.00  0.00    +0.000 A 
ATOM      8  C   UNL     1       4.689   3.947  17.517  0.00  0.00    +0.000 A 
ATOM      9  N   UNL     1       3.895   4.566  18.443  0.00  0.00    +0.000 N 
ATOM     10  C   UNL     1       2.349   8.055  18.418  0.00  0.00    +0.000 C 
ATOM     11  N   UNL     1       1.235   8.632  19.209  0.00  0.00    +0.000 NA
ATOM     12  C   UNL     1       1.468   8.392  20.638  0.00  0.00    +0.000 C 
ATOM     13  C   UNL     1       1.465   6.888  20.923  0.00  0.00    +0.000 C 
ENDROOT
BRANCH   7  14
ATOM     14  C   UNL     1       5.658   4.668  15.317  0.00  0.00    +0.000 A 
ATOM     15  C   UNL     1       5.145   3.882  14.277  0.00  0.00    +0.000 A 
ATOM     16  C   UNL     1       5.883   3.713  13.106  0.00  0.00    +0.000 A 
ATOM     17  F   UNL     1       5.376   2.978  12.108  0.00  0.00    +0.000 F 
ATOM     18  C   UNL     1       7.134   4.301  12.947  0.00  0.00    +0.000 A 
ATOM     19  C   UNL     1       7.662   5.071  13.981  0.00  0.00    +0.000 A 
ATOM     20  C   UNL     1       6.925   5.250  15.151  0.00  0.00    +0.000 A 
ATOM     21  F   UNL     1       7.476   5.993  16.124  0.00  0.00    +0.000 F 
ENDBRANCH   7  14
BRANCH   1  22
ATOM     22  O   UNL     1       3.780   2.871  19.962  0.00  0.00    +0.000 OA
ATOM     23  H   UNL     1       4.658   2.929  20.375  0.00  0.00    +0.000 HD
ENDBRANCH   1  22
BRANCH  11  24
ATOM     24  C   UNL     1       1.103  10.069  18.901  0.00  0.00    +0.000 C 
BRANCH  24  25
ATOM     25  C   UNL     1      -0.316  10.541  18.642  0.00  0.00    +0.000 A 
ATOM     26  C   UNL     1      -0.861  11.591  19.399  0.00  0.00    +0.000 A 
ATOM     27  C   UNL     1      -2.153  12.056  19.146  0.00  0.00    +0.000 A 
ATOM     28  C   UNL     1      -2.917  11.479  18.134  0.00  0.00    +0.000 A 
ATOM     29  C   UNL     1      -2.391  10.430  17.381  0.00  0.00    +0.000 A 
ATOM     30  C   UNL     1      -1.099   9.962  17.632  0.00  0.00    +0.000 A 
ENDBRANCH  24  25
ENDBRANCH  11  24
TORSDOF 4
ENDMDL
MODEL 3
REMARK VINA RESULT:      -8.6      0.790      1.831
REMARK  Name = 
REMARK  4 active torsions:
REMARK  status: ('A' for Active; 'I' for Inactive)
REMARK    1  A    between atoms: O_1  and  C_2
REMARK    2  A    between atoms: C_8  and  C_9
REMARK    3  A    between atoms: N_20  and  C_21
REMARK    4  A    between atoms: C_21  and  C_22
REMARK                            x       y       z     vdW  Elec       q    Type
REMARK                         _______ _______ _______ _____ _____    ______ ____
ROOT
ATOM      1  C   UNL     1       4.014   3.816  18.857  0.00  0.00    +0.000 A 
ATOM      2  N   UNL     1       3.279   4.436  19.712  0.00  0.00    +0.000 NA
ATOM      3  C   UNL     1       2.902   5.725  19.354  0.00  0.00    +0.000 A 
ATOM      4  C   UNL     1       3.258   6.360  18.204  0.00  0.00    +0.000 A 
ATOM      5  C   UNL     1       4.098   5.636  17.294  0.00  0.00    +0.000 A 
ATOM      6  N   UNL     1       4.644   5.955  16.133  0.00  0.00    +0.000 NA
ATOM      7  C   UNL     1       5.313   4.818  15.715  0.00  0.00    +0.000 A 
ATOM      8  C   UNL     1       5.210   3.823  16.659  0.00  0.00    +0.000 A 
ATOM      9  N   UNL     1       4.438   4.352  17.656  0.00  0.00    +0.000 N 
ATOM     10  C   UNL     1       2.771   7.775  17.922  0.00  0.00    +0.000 C 
ATOM     11  N   UNL     1       1.675   8.259  18.796  0.00  0.00    +0.000 NA
ATOM     12  C   UNL     1       1.981   7.939  20.195  0.00  0.00    +0.000 C 
ATOM     13  C   UNL     1       2.045   6.421  20.383  0.00  0.00    +0.000 C 
ENDROOT
BRANCH   7  14
ATOM     14  C   UNL     1       6.051   4.716  14.469  0.00  0.00    +0.000 A 
ATOM     15  C   UNL     1       7.269   5.394  14.326  0.00  0.00    +0.000 A 
ATOM     16  C   UNL     1       8.000   5.266  13.145  0.00  0.00    +0.000 A 
ATOM     17  F   UNL     1       9.173   5.900  13.025  0.00  0.00    +0.000 F 
ATOM     18  C   UNL     1       7.539   4.486  12.089  0.00  0.00    +0.000 A 
ATOM     19  C   UNL     1       6.322   3.821  12.214  0.00  0.00    +0.000 A 
ATOM     20  C   UNL     1       5.591   3.939  13.395  0.00  0.00    +0.000 A 
ATOM     21  F   UNL     1       4.420   3.287  13.467  0.00  0.00    +0.000 F 
ENDBRANCH   7  14
BRANCH   1  22
ATOM     22  O   UNL     1       4.452   2.563  19.067  0.00  0.00    +0.000 OA
ATOM     23  H   UNL     1       5.236   2.623  19.639  0.00  0.00    +0.000 HD
ENDBRANCH   1  22
BRANCH  11  24
ATOM     24  C   UNL     1       1.479   9.706  18.586  0.00  0.00    +0.000 C 
BRANCH  24  25
ATOM     25  C   UNL     1       0.031  10.146  18.472  0.00  0.00    +0.000 A 
ATOM     26  C   UNL     1      -0.495  11.087  19.372  0.00  0.00    +0.000 A 
ATOM     27  C   UNL     1      -1.816  11.525  19.255  0.00  0.00    +0.000 A 
ATOM     28  C   UNL     1      -2.628  11.029  18.237  0.00  0.00    +0.000 A 
ATOM     29  C   UNL     1      -2.121  10.088  17.342  0.00  0.00    +0.000 A 
ATOM     30  C   UNL     1      -0.800   9.647  17.458  0.00  0.00    +0.000 A 
ENDBRANCH  24  25
ENDBRANCH  11  24
TORSDOF 4
ENDMDL
MODEL 4
REMARK VINA RESULT:      -8.2      1.094      1.311
REMARK  Name = 
REMARK  4 active torsions:
REMARK  status: ('A' for Active; 'I' for Inactive)
REMARK    1  A    between atoms: O_1  and  C_2
REMARK    2  A    between atoms: C_8  and  C_9
REMARK    3  A    between atoms: N_20  and  C_21
REMARK    4  A    between atoms: C_21  and  C_22
REMARK                            x       y       z     vdW  Elec       q    Type
REMARK                         _______ _______ _______ _____ _____    ______ ____
ROOT
ATOM      1  C   UNL     1       2.942   4.596  20.105  0.00  0.00    +0.000 A 
ATOM      2  N   UNL     1       2.184   5.347  20.824  0.00  0.00    +0.000 NA
ATOM      3  C   UNL     1       1.951   6.621  20.319  0.00  0.00    +0.000 A 
ATOM      4  C   UNL     1       2.466   7.116  19.161  0.00  0.00    +0.000 A 
ATOM      5  C   UNL     1       3.325   6.249  18.406  0.00  0.00    +0.000 A 
ATOM      6  N   UNL     1       4.003   6.416  17.284  0.00  0.00    +0.000 NA
ATOM      7  C   UNL     1       4.610   5.198  17.036  0.00  0.00    +0.000 A 
ATOM      8  C   UNL     1       4.337   4.306  18.047  0.00  0.00    +0.000 A 
ATOM      9  N   UNL     1       3.521   4.984  18.912  0.00  0.00    +0.000 N 
ATOM     10  C   UNL     1       2.128   8.530  18.710  0.00  0.00    +0.000 C 
ATOM     11  N   UNL     1       0.998   9.175  19.422  0.00  0.00    +0.000 NA
ATOM     12  C   UNL     1       1.144   8.967  20.868  0.00  0.00    +0.000 C 
ATOM     13  C   UNL     1       1.062   7.473  21.192  0.00  0.00    +0.000 C 
ENDROOT
BRANCH   7  14
ATOM     14  C   UNL     1       5.452   4.924  15.885  0.00  0.00    +0.000 A 
ATOM     15  C   UNL     1       4.907   4.292  14.760  0.00  0.00    +0.000 A 
ATOM     16  C   UNL     1       5.703   4.063  13.638  0.00  0.00    +0.000 A 
ATOM     17  F   UNL     1       5.169   3.478  12.559  0.00  0.00    +0.000 F 
ATOM     18  C   UNL     1       7.043   4.438  13.613  0.00  0.00    +0.000 A 
ATOM     19  C   UNL     1       7.600   5.051  14.732  0.00  0.00    +0.000 A 
ATOM     20  C   UNL     1       6.806   5.290  15.853  0.00  0.00    +0.000 A 
ATOM     21  F   UNL     1       7.388   5.876  16.911  0.00  0.00    +0.000 F 
ENDBRANCH   7  14
BRANCH   1  22
ATOM     22  O   UNL     1       3.253   3.339  20.467  0.00  0.00    +0.000 OA
ATOM     23  H   UNL     1       3.976   3.395  21.113  0.00  0.00    +0.000 HD
ENDBRANCH   1  22
BRANCH  11  24
ATOM     24  C   UNL     1       0.944  10.606  19.069  0.00  0.00    +0.000 C 
BRANCH  24  25
ATOM     25  C   UNL     1      -0.426  11.246  19.198  0.00  0.00    +0.000 A 
ATOM     26  C   UNL     1      -1.470  10.861  18.341  0.00  0.00    +0.000 A 
ATOM     27  C   UNL     1      -2.743  11.418  18.474  0.00  0.00    +0.000 A 
ATOM     28  C   UNL     1      -2.991  12.367  19.464  0.00  0.00    +0.000 A 
ATOM     29  C   UNL     1      -1.962  12.764  20.316  0.00  0.00    +0.000 A 
ATOM     30  C   UNL     1      -0.686  12.209  20.185  0.00  0.00    +0.000 A 
ENDBRANCH  24  25
ENDBRANCH  11  24
TORSDOF 4
ENDMDL
MODEL 5
REMARK VINA RESULT:      -8.2      0.881      1.297
REMARK  Name = 
REMARK  4 active torsions:
REMARK  status: ('A' for Active; 'I' for Inactive)
REMARK    1  A    between atoms: O_1  and  C_2
REMARK    2  A    between atoms: C_8  and  C_9
REMARK    3  A    between atoms: N_20  and  C_21
REMARK    4  A    between atoms: C_21  and  C_22
REMARK                            x       y       z     vdW  Elec       q    Type
REMARK                         _______ _______ _______ _____ _____    ______ ____
ROOT
ATOM      1  C   UNL     1       3.088   2.742  18.579  0.00  0.00    +0.000 A 
ATOM      2  N   UNL     1       2.383   3.270  19.517  0.00  0.00    +0.000 NA
ATOM      3  C   UNL     1       2.304   4.658  19.498  0.00  0.00    +0.000 A 
ATOM      4  C   UNL     1       2.913   5.469  18.592  0.00  0.00    +0.000 A 
ATOM      5  C   UNL     1       3.708   4.834  17.580  0.00  0.00    +0.000 A 
ATOM      6  N   UNL     1       4.445   5.310  16.591  0.00  0.00    +0.000 NA
ATOM      7  C   UNL     1       4.933   4.199  15.927  0.00  0.00    +0.000 A 
ATOM      8  C   UNL     1       4.528   3.044  16.555  0.00  0.00    +0.000 A 
ATOM      9  N   UNL     1       3.752   3.459  17.603  0.00  0.00    +0.000 N 
ATOM     10  C   UNL     1       2.742   6.980  18.672  0.00  0.00    +0.000 C 
ATOM     11  N   UNL     1       1.657   7.452  19.566  0.00  0.00    +0.000 NA
ATOM     12  C   UNL     1       1.721   6.733  20.843  0.00  0.00    +0.000 C 
ATOM     13  C   UNL     1       1.472   5.240  20.615  0.00  0.00    +0.000 C 
ENDROOT
BRANCH   7  14
ATOM     14  C   UNL     1       5.788   4.257  14.755  0.00  0.00    +0.000 A 
ATOM     15  C   UNL     1       5.459   3.510  13.617  0.00  0.00    +0.000 A 
ATOM     16  C   UNL     1       6.257   3.595  12.476  0.00  0.00    +0.000 A 
ATOM     17  F   UNL     1       5.923   2.895  11.385  0.00  0.00    +0.000 F 
ATOM     18  C   UNL     1       7.392   4.400  12.445  0.00  0.00    +0.000 A 
ATOM     19  C   UNL     1       7.739   5.134  13.576  0.00  0.00    +0.000 A 
ATOM     20  C   UNL     1       6.940   5.059  14.716  0.00  0.00    +0.000 A 
ATOM     21  F   UNL     1       7.317   5.777  15.786  0.00  0.00    +0.000 F 
ENDBRANCH   7  14
BRANCH   1  22
ATOM     22  O   UNL     1       3.252   1.412  18.471  0.00  0.00    +0.000 OA
ATOM     23  H   UNL     1       2.368   1.018  18.383  0.00  0.00    +0.000 HD
ENDBRANCH   1  22
BRANCH  11  24
ATOM     24  C   UNL     1       1.765   8.913  19.744  0.00  0.00    +0.000 C 
BRANCH  24  25
ATOM     25  C   UNL     1       0.515   9.696  19.390  0.00  0.00    +0.000 A 
ATOM     26  C   UNL     1      -0.093  10.528  20.345  0.00  0.00    +0.000 A 
ATOM     27  C   UNL     1      -1.223  11.280  20.019  0.00  0.00    +0.000 A 
ATOM     28  C   UNL     1      -1.762  11.210  18.736  0.00  0.00    +0.000 A 
ATOM     29  C   UNL     1      -1.174  10.382  17.781  0.00  0.00    +0.000 A 
ATOM     30  C   UNL     1      -0.043   9.628  18.105  0.00  0.00    +0.000 A 
ENDBRANCH  24  25
ENDBRANCH  11  24
TORSDOF 4
ENDMDL
MODEL 6
REMARK VINA RESULT:      -8.1      1.101      1.413
REMARK  Name = 
REMARK  4 active torsions:
REMARK  status: ('A' for Active; 'I' for Inactive)
REMARK    1  A    between atoms: O_1  and  C_2
REMARK    2  A    between atoms: C_8  and  C_9
REMARK    3  A    between atoms: N_20  and  C_21
REMARK    4  A    between atoms: C_21  and  C_22
REMARK                            x       y       z     vdW  Elec       q    Type
REMARK                         _______ _______ _______ _____ _____    ______ ____
ROOT
ATOM      1  C   UNL     1       4.246   4.095  19.119  0.00  0.00    +0.000 A 
ATOM      2  N   UNL     1       3.520   4.785  19.925  0.00  0.00    +0.000 NA
ATOM      3  C   UNL     1       3.031   5.983  19.415  0.00  0.00    +0.000 A 
ATOM      4  C   UNL     1       3.274   6.464  18.166  0.00  0.00    +0.000 A 
ATOM      5  C   UNL     1       4.109   5.669  17.312  0.00  0.00    +0.000 A 
ATOM      6  N   UNL     1       4.563   5.850  16.084  0.00  0.00    +0.000 NA
ATOM      7  C   UNL     1       5.286   4.708  15.786  0.00  0.00    +0.000 A 
ATOM      8  C   UNL     1       5.310   3.856  16.867  0.00  0.00    +0.000 A 
ATOM      9  N   UNL     1       4.561   4.476  17.829  0.00  0.00    +0.000 N 
ATOM     10  C   UNL     1       2.672   7.790  17.720  0.00  0.00    +0.000 C 
ATOM     11  N   UNL     1       1.596   8.327  18.589  0.00  0.00    +0.000 NA
ATOM     12  C   UNL     1       2.005   8.234  19.995  0.00  0.00    +0.000 C 
ATOM     13  C   UNL     1       2.188   6.767  20.391  0.00  0.00    +0.000 C 
ENDROOT
BRANCH   7  14
ATOM     14  C   UNL     1       5.956   4.472  14.521  0.00  0.00    +0.000 A 
ATOM     15  C   UNL     1       5.377   3.614  13.577  0.00  0.00    +0.000 A 
ATOM     16  C   UNL     1       5.999   3.416  12.344  0.00  0.00    +0.000 A 
ATOM     17  F   UNL     1       5.428   2.613  11.439  0.00  0.00    +0.000 F 
ATOM     18  C   UNL     1       7.201   4.045  12.031  0.00  0.00    +0.000 A 
ATOM     19  C   UNL     1       7.795   4.886  12.968  0.00  0.00    +0.000 A 
ATOM     20  C   UNL     1       7.173   5.094  14.198  0.00  0.00    +0.000 A 
ATOM     21  F   UNL     1       7.786   5.906  15.074  0.00  0.00    +0.000 F 
ENDBRANCH   7  14
BRANCH   1  22
ATOM     22  O   UNL     1       4.785   2.915  19.475  0.00  0.00    +0.000 OA
ATOM     23  H   UNL     1       4.272   2.218  19.032  0.00  0.00    +0.000 HD
ENDBRANCH   1  22
BRANCH  11  24
ATOM     24  C   UNL     1       1.285   9.712  18.190  0.00  0.00    +0.000 C 
BRANCH  24  25
ATOM     25  C   UNL     1       0.738  10.591  19.300  0.00  0.00    +0.000 A 
ATOM     26  C   UNL     1      -0.447  10.236  19.965  0.00  0.00    +0.000 A 
ATOM     27  C   UNL     1      -0.940  11.018  21.011  0.00  0.00    +0.000 A 
ATOM     28  C   UNL     1      -0.255  12.165  21.407  0.00  0.00    +0.000 A 
ATOM     29  C   UNL     1       0.918  12.534  20.751  0.00  0.00    +0.000 A 
ATOM     30  C   UNL     1       1.413  11.753  19.704  0.00  0.00    +0.000 A 
ENDBRANCH  24  25
ENDBRANCH  11  24
TORSDOF 4
ENDMDL
MODEL 7
REMARK VINA RESULT:      -8.0      1.516      2.089
REMARK  Name = 
REMARK  4 active torsions:
REMARK  status: ('A' for Active; 'I' for Inactive)
REMARK    1  A    between atoms: O_1  and  C_2
REMARK    2  A    between atoms: C_8  and  C_9
REMARK    3  A    between atoms: N_20  and  C_21
REMARK    4  A    between atoms: C_21  and  C_22
REMARK                            x       y       z     vdW  Elec       q    Type
REMARK                         _______ _______ _______ _____ _____    ______ ____
ROOT
ATOM      1  C   UNL     1       3.158   2.696  18.614  0.00  0.00    +0.000 A 
ATOM      2  N   UNL     1       2.448   3.208  19.557  0.00  0.00    +0.000 NA
ATOM      3  C   UNL     1       2.348   4.594  19.546  0.00  0.00    +0.000 A 
ATOM      4  C   UNL     1       2.941   5.420  18.642  0.00  0.00    +0.000 A 
ATOM      5  C   UNL     1       3.742   4.803  17.623  0.00  0.00    +0.000 A 
ATOM      6  N   UNL     1       4.467   5.295  16.634  0.00  0.00    +0.000 NA
ATOM      7  C   UNL     1       4.970   4.195  15.962  0.00  0.00    +0.000 A 
ATOM      8  C   UNL     1       4.584   3.031  16.586  0.00  0.00    +0.000 A 
ATOM      9  N   UNL     1       3.806   3.428  17.639  0.00  0.00    +0.000 N 
ATOM     10  C   UNL     1       2.747   6.927  18.732  0.00  0.00    +0.000 C 
ATOM     11  N   UNL     1       1.659   7.379  19.632  0.00  0.00    +0.000 NA
ATOM     12  C   UNL     1       1.739   6.653  20.905  0.00  0.00    +0.000 C 
ATOM     13  C   UNL     1       1.512   5.158  20.670  0.00  0.00    +0.000 C 
ENDROOT
BRANCH   7  14
ATOM     14  C   UNL     1       5.819   4.273  14.788  0.00  0.00    +0.000 A 
ATOM     15  C   UNL     1       5.487   3.540  13.641  0.00  0.00    +0.000 A 
ATOM     16  C   UNL     1       6.279   3.643  12.497  0.00  0.00    +0.000 A 
ATOM     17  F   UNL     1       5.943   2.956  11.399  0.00  0.00    +0.000 F 
ATOM     18  C   UNL     1       7.411   4.454  12.471  0.00  0.00    +0.000 A 
ATOM     19  C   UNL     1       7.759   5.174  13.611  0.00  0.00    +0.000 A 
ATOM     20  C   UNL     1       6.966   5.081  14.754  0.00  0.00    +0.000 A 
ATOM     21  F   UNL     1       7.346   5.786  15.831  0.00  0.00    +0.000 F 
ENDBRANCH   7  14
BRANCH   1  22
ATOM     22  O   UNL     1       3.341   1.369  18.498  0.00  0.00    +0.000 OA
ATOM     23  H   UNL     1       2.478   0.945  18.633  0.00  0.00    +0.000 HD
ENDBRANCH   1  22
BRANCH  11  24
ATOM     24  C   UNL     1       1.746   8.840  19.819  0.00  0.00    +0.000 C 
BRANCH  24  25
ATOM     25  C   UNL     1       0.830   9.404  20.888  0.00  0.00    +0.000 A 
ATOM     26  C   UNL     1       0.945   8.970  22.219  0.00  0.00    +0.000 A 
ATOM     27  C   UNL     1       0.131   9.509  23.217  0.00  0.00    +0.000 A 
ATOM     28  C   UNL     1      -0.808  10.488  22.900  0.00  0.00    +0.000 A 
ATOM     29  C   UNL     1      -0.939  10.922  21.582  0.00  0.00    +0.000 A 
ATOM     30  C   UNL     1      -0.126  10.384  20.580  0.00  0.00    +0.000 A 
ENDBRANCH  24  25
ENDBRANCH  11  24
TORSDOF 4
ENDMDL
MODEL 8
REMARK VINA RESULT:      -7.8      5.995     10.690
REMARK  Name = 
REMARK  4 active torsions:
REMARK  status: ('A' for Active; 'I' for Inactive)
REMARK    1  A    between atoms: O_1  and  C_2
REMARK    2  A    between atoms: C_8  and  C_9
REMARK    3  A    between atoms: N_20  and  C_21
REMARK    4  A    between atoms: C_21  and  C_22
REMARK                            x       y       z     vdW  Elec       q    Type
REMARK                         _______ _______ _______ _____ _____    ______ ____
ROOT
ATOM      1  C   UNL     1       1.027  11.559  18.636  0.00  0.00    +0.000 A 
ATOM      2  N   UNL     1       1.654  10.546  18.151  0.00  0.00    +0.000 NA
ATOM      3  C   UNL     1       1.625   9.395  18.931  0.00  0.00    +0.000 A 
ATOM      4  C   UNL     1       1.010   9.276  20.138  0.00  0.00    +0.000 A 
ATOM      5  C   UNL     1       0.344  10.441  20.647  0.00  0.00    +0.000 A 
ATOM      6  N   UNL     1      -0.307  10.680  21.773  0.00  0.00    +0.000 NA
ATOM      7  C   UNL     1      -0.764  11.982  21.665  0.00  0.00    +0.000 A 
ATOM      8  C   UNL     1      -0.339  12.547  20.485  0.00  0.00    +0.000 A 
ATOM      9  N   UNL     1       0.364  11.562  19.848  0.00  0.00    +0.000 N 
ATOM     10  C   UNL     1       1.041   7.955  20.893  0.00  0.00    +0.000 C 
ATOM     11  N   UNL     1       1.490   6.781  20.107  0.00  0.00    +0.000 NA
ATOM     12  C   UNL     1       2.695   7.128  19.345  0.00  0.00    +0.000 C 
ATOM     13  C   UNL     1       2.374   8.229  18.332  0.00  0.00    +0.000 C 
ENDROOT
BRANCH   7  14
ATOM     14  C   UNL     1      -1.548  12.659  22.682  0.00  0.00    +0.000 A 
ATOM     15  C   UNL     1      -2.743  12.086  23.135  0.00  0.00    +0.000 A 
ATOM     16  C   UNL     1      -3.478  12.714  24.140  0.00  0.00    +0.000 A 
ATOM     17  F   UNL     1      -4.608  12.149  24.582  0.00  0.00    +0.000 F 
ATOM     18  C   UNL     1      -3.057  13.917  24.700  0.00  0.00    +0.000 A 
ATOM     19  C   UNL     1      -1.880  14.505  24.246  0.00  0.00    +0.000 A 
ATOM     20  C   UNL     1      -1.137  13.876  23.247  0.00  0.00    +0.000 A 
ATOM     21  F   UNL     1      -0.013  14.484  22.835  0.00  0.00    +0.000 F 
ENDBRANCH   7  14
BRANCH   1  22
ATOM     22  O   UNL     1       0.968  12.738  17.992  0.00  0.00    +0.000 OA
ATOM     23  H   UNL     1       0.085  12.806  17.592  0.00  0.00    +0.000 HD
ENDBRANCH   1  22
BRANCH  11  24
ATOM     24  C   UNL     1       1.714   5.636  21.010  0.00  0.00    +0.000 C 
BRANCH  24  25
ATOM     25  C   UNL     1       1.891   4.298  20.318  0.00  0.00    +0.000 A 
ATOM     26  C   UNL     1       0.792   3.662  19.717  0.00  0.00    +0.000 A 
ATOM     27  C   UNL     1       0.950   2.447  19.047  0.00  0.00    +0.000 A 
ATOM     28  C   UNL     1       2.208   1.852  18.968  0.00  0.00    +0.000 A 
ATOM     29  C   UNL     1       3.305   2.468  19.567  0.00  0.00    +0.000 A 
ATOM     30  C   UNL     1       3.149   3.684  20.239  0.00  0.00    +0.000 A 
ENDBRANCH  24  25
ENDBRANCH  11  24
TORSDOF 4
ENDMDL
MODEL 9
REMARK VINA RESULT:      -7.8      1.031      1.857
REMARK  Name = 
REMARK  4 active torsions:
REMARK  status: ('A' for Active; 'I' for Inactive)
REMARK    1  A    between atoms: O_1  and  C_2
REMARK    2  A    between atoms: C_8  and  C_9
REMARK    3  A    between atoms: N_20  and  C_21
REMARK    4  A    between atoms: C_21  and  C_22
REMARK                            x       y       z     vdW  Elec       q    Type
REMARK                         _______ _______ _______ _____ _____    ______ ____
ROOT
ATOM      1  C   UNL     1       4.022   3.986  18.769  0.00  0.00    +0.000 A 
ATOM      2  N   UNL     1       3.291   4.641  19.601  0.00  0.00    +0.000 NA
ATOM      3  C   UNL     1       2.940   5.927  19.206  0.00  0.00    +0.000 A 
ATOM      4  C   UNL     1       3.317   6.525  18.043  0.00  0.00    +0.000 A 
ATOM      5  C   UNL     1       4.153   5.763  17.160  0.00  0.00    +0.000 A 
ATOM      6  N   UNL     1       4.715   6.042  15.997  0.00  0.00    +0.000 NA
ATOM      7  C   UNL     1       5.367   4.883  15.614  0.00  0.00    +0.000 A 
ATOM      8  C   UNL     1       5.238   3.915  16.583  0.00  0.00    +0.000 A 
ATOM      9  N   UNL     1       4.467   4.484  17.559  0.00  0.00    +0.000 N 
ATOM     10  C   UNL     1       2.859   7.940  17.720  0.00  0.00    +0.000 C 
ATOM     11  N   UNL     1       1.763   8.467  18.570  0.00  0.00    +0.000 NA
ATOM     12  C   UNL     1       2.051   8.178  19.980  0.00  0.00    +0.000 C 
ATOM     13  C   UNL     1       2.086   6.665  20.208  0.00  0.00    +0.000 C 
ENDROOT
BRANCH   7  14
ATOM     14  C   UNL     1       6.115   4.735  14.379  0.00  0.00    +0.000 A 
ATOM     15  C   UNL     1       7.345   5.387  14.230  0.00  0.00    +0.000 A 
ATOM     16  C   UNL     1       8.085   5.216  13.060  0.00  0.00    +0.000 A 
ATOM     17  F   UNL     1       9.270   5.825  12.934  0.00  0.00    +0.000 F 
ATOM     18  C   UNL     1       7.620   4.416  12.020  0.00  0.00    +0.000 A 
ATOM     19  C   UNL     1       6.390   3.776  12.151  0.00  0.00    +0.000 A 
ATOM     20  C   UNL     1       5.650   3.938  13.322  0.00  0.00    +0.000 A 
ATOM     21  F   UNL     1       4.467   3.309  13.399  0.00  0.00    +0.000 F 
ENDBRANCH   7  14
BRANCH   1  22
ATOM     22  O   UNL     1       4.436   2.732  19.017  0.00  0.00    +0.000 OA
ATOM     23  H   UNL     1       4.959   2.756  19.836  0.00  0.00    +0.000 HD
ENDBRANCH   1  22
BRANCH  11  24
ATOM     24  C   UNL     1       1.595   9.911  18.321  0.00  0.00    +0.000 C 
BRANCH  24  25
ATOM     25  C   UNL     1       0.502  10.578  19.135  0.00  0.00    +0.000 A 
ATOM     26  C   UNL     1      -0.778  10.759  18.586  0.00  0.00    +0.000 A 
ATOM     27  C   UNL     1      -1.801  11.340  19.338  0.00  0.00    +0.000 A 
ATOM     28  C   UNL     1      -1.559  11.747  20.648  0.00  0.00    +0.000 A 
ATOM     29  C   UNL     1      -0.291  11.581  21.203  0.00  0.00    +0.000 A 
ATOM     30  C   UNL     1       0.734  11.001  20.452  0.00  0.00    +0.000 A 
ENDBRANCH  24  25
ENDBRANCH  11  24
TORSDOF 4
ENDMDL
