MODEL 1
REMARK VINA RESULT:      -7.2      0.000      0.000
REMARK  Name = 
REMARK  12 active torsions:
REMARK  status: ('A' for Active; 'I' for Inactive)
REMARK    1  A    between atoms: C_2  and  C_3
REMARK    2  A    between atoms: C_3  and  C_4
REMARK    3  A    between atoms: C_8  and  O_9
REMARK    4  A    between atoms: O_9  and  C_10
REMARK    5  A    between atoms: C_11  and  O_12
REMARK    6  A    between atoms: O_12  and  C_13
REMARK    7  A    between atoms: C_13  and  C_14
REMARK    8  A    between atoms: C_14  and  C_15
REMARK    9  A    between atoms: C_15  and  O_16
REMARK   10  A    between atoms: O_16  and  N_17
REMARK   11  A    between atoms: C_24  and  C_25
REMARK   12  A    between atoms: C_24  and  C_26
REMARK                            x       y       z     vdW  Elec       q    Type
REMARK                         _______ _______ _______ _____ _____    ______ ____
ROOT
ATOM      1  C   UNL     1       3.187   7.104  18.230  0.00  0.00    +0.000 C 
ENDROOT
BRANCH   1   2
ATOM      2  C   UNL     1       1.968   7.897  17.705  0.00  0.00    +0.000 C 
BRANCH   2   3
ATOM      3  C   UNL     1       1.839   9.149  18.584  0.00  0.00    +0.000 C 
BRANCH   3   4
ATOM      4  O   UNL     1       0.778   9.139  19.464  0.00  0.00    +0.000 OA
BRANCH   4  10
ATOM      5  C   UNL     1      -1.169  10.547  18.710  0.00  0.00    +0.000 A 
ATOM      6  C   UNL     1      -2.048  11.588  19.066  0.00  0.00    +0.000 A 
ATOM      7  C   UNL     1      -1.955  12.232  20.287  0.00  0.00    +0.000 A 
ATOM      8  C   UNL     1      -0.975  11.867  21.193  0.00  0.00    +0.000 A 
ATOM      9  C   UNL     1      -0.065  10.832  20.896  0.00  0.00    +0.000 A 
ATOM     10  C   UNL     1      -0.145  10.144  19.656  0.00  0.00    +0.000 A 
BRANCH   9  11
ATOM     11  O   UNL     1       0.905  10.480  21.784  0.00  0.00    +0.000 OA
ATOM     12  C   UNL     1       0.891   9.346  22.578  0.00  0.00    +0.000 C 
ENDBRANCH   9  11
BRANCH   5  13
ATOM     13  C   UNL     1      -1.429   9.968  17.323  0.00  0.00    +0.000 C 
BRANCH  13  15
ATOM     14  C   UNL     1      -2.892  10.313  15.372  0.00  0.00    +0.000 C 
ATOM     15  C   UNL     1      -2.608  10.607  16.645  0.00  0.00    +0.000 C 
ENDBRANCH  13  15
ENDBRANCH   5  13
ENDBRANCH   4  10
ENDBRANCH   3   4
ENDBRANCH   2   3
ENDBRANCH   1   2
BRANCH   1  16
ATOM     16  O   UNL     1       2.877   6.361  19.392  0.00  0.00    +0.000 OA
BRANCH  16  17
ATOM     17  N   UNL     1       3.191   5.056  19.161  0.00  0.00    +0.000 N 
ATOM     18  C   UNL     1       4.560   4.624  19.278  0.00  0.00    +0.000 C 
ATOM     19  N   UNL     1       5.513   5.458  19.503  0.00  0.00    +0.000 NA
ATOM     20  N   UNL     1       4.888   3.250  19.169  0.00  0.00    +0.000 NA
ATOM     21  C   UNL     1       3.997   2.347  18.995  0.00  0.00    +0.000 C 
ATOM     22  N   UNL     1       4.378   0.987  18.909  0.00  0.00    +0.000 N 
ATOM     23  N   UNL     1       2.623   2.698  18.891  0.00  0.00    +0.000 N 
ATOM     24  C   UNL     1       2.113   4.063  18.975  0.00  0.00    +0.000 C 
ATOM     25  C   UNL     1       1.162   4.124  20.178  0.00  0.00    +0.000 C 
ATOM     26  C   UNL     1       1.337   4.335  17.676  0.00  0.00    +0.000 C 
ATOM     27  H   UNL     1       5.363   6.468  19.612  0.00  0.00    +0.000 HD
ATOM     28  H   UNL     1       5.365   0.713  18.995  0.00  0.00    +0.000 HD
ATOM     29  H   UNL     1       3.666   0.253  18.781  0.00  0.00    +0.000 HD
ATOM     30  H   UNL     1       1.942   1.932  18.763  0.00  0.00    +0.000 HD
ENDBRANCH  16  17
ENDBRANCH   1  16
TORSDOF 9
ENDMDL
MODEL 2
REMARK VINA RESULT:      -7.2      1.142      2.013
REMARK  Name = 
REMARK  12 active torsions:
REMARK  status: ('A' for Active; 'I' for Inactive)
REMARK    1  A    between atoms: C_2  and  C_3
REMARK    2  A    between atoms: C_3  and  C_4
REMARK    3  A    between atoms: C_8  and  O_9
REMARK    4  A    between atoms: O_9  and  C_10
REMARK    5  A    between atoms: C_11  and  O_12
REMARK    6  A    between atoms: O_12  and  C_13
REMARK    7  A    between atoms: C_13  and  C_14
REMARK    8  A    between atoms: C_14  and  C_15
REMARK    9  A    between atoms: C_15  and  O_16
REMARK   10  A    between atoms: O_16  and  N_17
REMARK   11  A    between atoms: C_24  and  C_25
REMARK   12  A    between atoms: C_24  and  C_26
REMARK                            x       y       z     vdW  Elec       q    Type
REMARK                         _______ _______ _______ _____ _____    ______ ____
ROOT
ATOM      1  C   UNL     1       2.943   7.302  18.409  0.00  0.00    +0.000 C 
ENDROOT
BRANCH   1   2
ATOM      2  C   UNL     1       1.831   8.266  17.935  0.00  0.00    +0.000 C 
BRANCH   2   3
ATOM      3  C   UNL     1       1.657   9.322  19.036  0.00  0.00    +0.000 C 
BRANCH   3   4
ATOM      4  O   UNL     1       0.452   9.279  19.704  0.00  0.00    +0.000 OA
BRANCH   4  10
ATOM      5  C   UNL     1      -1.399  10.646  18.683  0.00  0.00    +0.000 A 
ATOM      6  C   UNL     1      -2.327  11.682  18.905  0.00  0.00    +0.000 A 
ATOM      7  C   UNL     1      -2.395  12.352  20.114  0.00  0.00    +0.000 A 
ATOM      8  C   UNL     1      -1.531  12.017  21.142  0.00  0.00    +0.000 A 
ATOM      9  C   UNL     1      -0.581  10.989  20.983  0.00  0.00    +0.000 A 
ATOM     10  C   UNL     1      -0.498  10.275  19.758  0.00  0.00    +0.000 A 
BRANCH   9  11
ATOM     11  O   UNL     1       0.275  10.667  21.993  0.00  0.00    +0.000 OA
ATOM     12  C   UNL     1       0.005   9.775  23.017  0.00  0.00    +0.000 C 
ENDBRANCH   9  11
BRANCH   5  13
ATOM     13  C   UNL     1      -1.477  10.037  17.287  0.00  0.00    +0.000 C 
BRANCH  13  15
ATOM     14  C   UNL     1      -3.026  10.584  15.451  0.00  0.00    +0.000 C 
ATOM     15  C   UNL     1      -2.856  10.128  16.696  0.00  0.00    +0.000 C 
ENDBRANCH  13  15
ENDBRANCH   5  13
ENDBRANCH   4  10
ENDBRANCH   3   4
ENDBRANCH   2   3
ENDBRANCH   1   2
BRANCH   1  16
ATOM     16  O   UNL     1       3.048   6.163  17.579  0.00  0.00    +0.000 OA
BRANCH  16  17
ATOM     17  N   UNL     1       3.642   5.167  18.294  0.00  0.00    +0.000 N 
ATOM     18  C   UNL     1       2.877   4.445  19.276  0.00  0.00    +0.000 C 
ATOM     19  N   UNL     1       1.669   4.777  19.568  0.00  0.00    +0.000 NA
ATOM     20  N   UNL     1       3.437   3.324  19.937  0.00  0.00    +0.000 NA
ATOM     21  C   UNL     1       4.614   2.894  19.673  0.00  0.00    +0.000 C 
ATOM     22  N   UNL     1       5.119   1.759  20.351  0.00  0.00    +0.000 N 
ATOM     23  N   UNL     1       5.420   3.545  18.699  0.00  0.00    +0.000 N 
ATOM     24  C   UNL     1       5.001   4.714  17.932  0.00  0.00    +0.000 C 
ATOM     25  C   UNL     1       5.020   4.319  16.449  0.00  0.00    +0.000 C 
ATOM     26  C   UNL     1       6.035   5.821  18.196  0.00  0.00    +0.000 C 
ATOM     27  H   UNL     1       1.180   5.565  19.126  0.00  0.00    +0.000 HD
ATOM     28  H   UNL     1       4.547   1.268  21.049  0.00  0.00    +0.000 HD
ATOM     29  H   UNL     1       6.062   1.400  20.136  0.00  0.00    +0.000 HD
ATOM     30  H   UNL     1       6.357   3.153  18.514  0.00  0.00    +0.000 HD
ENDBRANCH  16  17
ENDBRANCH   1  16
TORSDOF 9
ENDMDL
MODEL 3
REMARK VINA RESULT:      -7.2      1.128      1.234
REMARK  Name = 
REMARK  12 active torsions:
REMARK  status: ('A' for Active; 'I' for Inactive)
REMARK    1  A    between atoms: C_2  and  C_3
REMARK    2  A    between atoms: C_3  and  C_4
REMARK    3  A    between atoms: C_8  and  O_9
REMARK    4  A    between atoms: O_9  and  C_10
REMARK    5  A    between atoms: C_11  and  O_12
REMARK    6  A    between atoms: O_12  and  C_13
REMARK    7  A    between atoms: C_13  and  C_14
REMARK    8  A    between atoms: C_14  and  C_15
REMARK    9  A    between atoms: C_15  and  O_16
REMARK   10  A    between atoms: O_16  and  N_17
REMARK   11  A    between atoms: C_24  and  C_25
REMARK   12  A    between atoms: C_24  and  C_26
REMARK                            x       y       z     vdW  Elec       q    Type
REMARK                         _______ _______ _______ _____ _____    ______ ____
ROOT
ATOM      1  C   UNL     1       2.395   6.647  18.248  0.00  0.00    +0.000 C 
ENDROOT
BRANCH   1   2
ATOM      2  C   UNL     1       2.527   8.162  17.968  0.00  0.00    +0.000 C 
BRANCH   2   3
ATOM      3  C   UNL     1       1.601   8.881  18.959  0.00  0.00    +0.000 C 
BRANCH   3   4
ATOM      4  O   UNL     1       1.227  10.157  18.592  0.00  0.00    +0.000 OA
BRANCH   4  10
ATOM      5  C   UNL     1      -1.223  10.617  18.242  0.00  0.00    +0.000 A 
ATOM      6  C   UNL     1      -2.340  11.338  18.704  0.00  0.00    +0.000 A 
ATOM      7  C   UNL     1      -2.251  12.211  19.773  0.00  0.00    +0.000 A 
ATOM      8  C   UNL     1      -1.040  12.403  20.414  0.00  0.00    +0.000 A 
ATOM      9  C   UNL     1       0.116  11.709  19.999  0.00  0.00    +0.000 A 
ATOM     10  C   UNL     1       0.050  10.797  18.913  0.00  0.00    +0.000 A 
BRANCH   9  11
ATOM     11  O   UNL     1       1.310  11.906  20.625  0.00  0.00    +0.000 OA
ATOM     12  C   UNL     1       2.069  13.061  20.555  0.00  0.00    +0.000 C 
ENDBRANCH   9  11
BRANCH   5  13
ATOM     13  C   UNL     1      -1.523   9.711  17.051  0.00  0.00    +0.000 C 
BRANCH  13  15
ATOM     14  C   UNL     1      -2.903  10.244  15.081  0.00  0.00    +0.000 C 
ATOM     15  C   UNL     1      -2.839  10.034  16.399  0.00  0.00    +0.000 C 
ENDBRANCH  13  15
ENDBRANCH   5  13
ENDBRANCH   4  10
ENDBRANCH   3   4
ENDBRANCH   2   3
ENDBRANCH   1   2
BRANCH   1  16
ATOM     16  O   UNL     1       2.816   6.310  19.555  0.00  0.00    +0.000 OA
BRANCH  16  17
ATOM     17  N   UNL     1       3.286   5.032  19.536  0.00  0.00    +0.000 N 
ATOM     18  C   UNL     1       4.698   4.797  19.376  0.00  0.00    +0.000 C 
ATOM     19  N   UNL     1       5.521   5.762  19.154  0.00  0.00    +0.000 NA
ATOM     20  N   UNL     1       5.222   3.485  19.482  0.00  0.00    +0.000 NA
ATOM     21  C   UNL     1       4.483   2.475  19.749  0.00  0.00    +0.000 C 
ATOM     22  N   UNL     1       5.060   1.188  19.860  0.00  0.00    +0.000 N 
ATOM     23  N   UNL     1       3.083   2.634  19.940  0.00  0.00    +0.000 N 
ATOM     24  C   UNL     1       2.380   3.912  19.860  0.00  0.00    +0.000 C 
ATOM     25  C   UNL     1       1.737   4.167  21.230  0.00  0.00    +0.000 C 
ATOM     26  C   UNL     1       1.290   3.760  18.786  0.00  0.00    +0.000 C 
ATOM     27  H   UNL     1       5.230   6.744  19.079  0.00  0.00    +0.000 HD
ATOM     28  H   UNL     1       6.072   1.055  19.738  0.00  0.00    +0.000 HD
ATOM     29  H   UNL     1       4.473   0.371  20.086  0.00  0.00    +0.000 HD
ATOM     30  H   UNL     1       2.531   1.790  20.165  0.00  0.00    +0.000 HD
ENDBRANCH  16  17
ENDBRANCH   1  16
TORSDOF 9
ENDMDL
MODEL 4
REMARK VINA RESULT:      -7.0      1.502      2.215
REMARK  Name = 
REMARK  12 active torsions:
REMARK  status: ('A' for Active; 'I' for Inactive)
REMARK    1  A    between atoms: C_2  and  C_3
REMARK    2  A    between atoms: C_3  and  C_4
REMARK    3  A    between atoms: C_8  and  O_9
REMARK    4  A    between atoms: O_9  and  C_10
REMARK    5  A    between atoms: C_11  and  O_12
REMARK    6  A    between atoms: O_12  and  C_13
REMARK    7  A    between atoms: C_13  and  C_14
REMARK    8  A    between atoms: C_14  and  C_15
REMARK    9  A    between atoms: C_15  and  O_16
REMARK   10  A    between atoms: O_16  and  N_17
REMARK   11  A    between atoms: C_24  and  C_25
REMARK   12  A    between atoms: C_24  and  C_26
REMARK                            x       y       z     vdW  Elec       q    Type
REMARK                         _______ _______ _______ _____ _____    ______ ____
ROOT
ATOM      1  C   UNL     1       2.581   7.037  18.741  0.00  0.00    +0.000 C 
ENDROOT
BRANCH   1   2
ATOM      2  C   UNL     1       2.319   8.279  17.859  0.00  0.00    +0.000 C 
BRANCH   2   3
ATOM      3  C   UNL     1       1.468   9.246  18.694  0.00  0.00    +0.000 C 
BRANCH   3   4
ATOM      4  O   UNL     1       0.551   9.987  17.978  0.00  0.00    +0.000 OA
BRANCH   4  10
ATOM      5  C   UNL     1      -1.836  10.781  18.076  0.00  0.00    +0.000 A 
ATOM      6  C   UNL     1      -2.738  11.653  18.716  0.00  0.00    +0.000 A 
ATOM      7  C   UNL     1      -2.331  12.510  19.723  0.00  0.00    +0.000 A 
ATOM      8  C   UNL     1      -1.006  12.534  20.121  0.00  0.00    +0.000 A 
ATOM      9  C   UNL     1      -0.054  11.685  19.520  0.00  0.00    +0.000 A 
ATOM     10  C   UNL     1      -0.447  10.785  18.493  0.00  0.00    +0.000 A 
BRANCH   9  11
ATOM     11  O   UNL     1       1.251  11.717  19.906  0.00  0.00    +0.000 OA
ATOM     12  C   UNL     1       1.872  12.777  20.544  0.00  0.00    +0.000 C 
ENDBRANCH   9  11
BRANCH   5  13
ATOM     13  C   UNL     1      -2.476   9.921  16.990  0.00  0.00    +0.000 C 
BRANCH  13  15
ATOM     14  C   UNL     1      -3.079  10.037  14.605  0.00  0.00    +0.000 C 
ATOM     15  C   UNL     1      -2.708  10.682  15.716  0.00  0.00    +0.000 C 
ENDBRANCH  13  15
ENDBRANCH   5  13
ENDBRANCH   4  10
ENDBRANCH   3   4
ENDBRANCH   2   3
ENDBRANCH   1   2
BRANCH   1  16
ATOM     16  O   UNL     1       2.444   5.831  18.015  0.00  0.00    +0.000 OA
BRANCH  16  17
ATOM     17  N   UNL     1       3.193   4.874  18.630  0.00  0.00    +0.000 N 
ATOM     18  C   UNL     1       2.593   4.050  19.647  0.00  0.00    +0.000 C 
ATOM     19  N   UNL     1       1.392   4.255  20.061  0.00  0.00    +0.000 NA
ATOM     20  N   UNL     1       3.315   2.966  20.207  0.00  0.00    +0.000 NA
ATOM     21  C   UNL     1       4.496   2.660  19.820  0.00  0.00    +0.000 C 
ATOM     22  N   UNL     1       5.166   1.557  20.401  0.00  0.00    +0.000 N 
ATOM     23  N   UNL     1       5.142   3.417  18.804  0.00  0.00    +0.000 N 
ATOM     24  C   UNL     1       4.547   4.566  18.128  0.00  0.00    +0.000 C 
ATOM     25  C   UNL     1       4.462   4.224  16.634  0.00  0.00    +0.000 C 
ATOM     26  C   UNL     1       5.495   5.757  18.343  0.00  0.00    +0.000 C 
ATOM     27  H   UNL     1       0.793   5.007  19.698  0.00  0.00    +0.000 HD
ATOM     28  H   UNL     1       4.710   0.991  21.127  0.00  0.00    +0.000 HD
ATOM     29  H   UNL     1       6.112   1.298  20.086  0.00  0.00    +0.000 HD
ATOM     30  H   UNL     1       6.090   3.123  18.519  0.00  0.00    +0.000 HD
ENDBRANCH  16  17
ENDBRANCH   1  16
TORSDOF 9
ENDMDL
MODEL 5
REMARK VINA RESULT:      -7.0      1.146      2.141
REMARK  Name = 
REMARK  12 active torsions:
REMARK  status: ('A' for Active; 'I' for Inactive)
REMARK    1  A    between atoms: C_2  and  C_3
REMARK    2  A    between atoms: C_3  and  C_4
REMARK    3  A    between atoms: C_8  and  O_9
REMARK    4  A    between atoms: O_9  and  C_10
REMARK    5  A    between atoms: C_11  and  O_12
REMARK    6  A    between atoms: O_12  and  C_13
REMARK    7  A    between atoms: C_13  and  C_14
REMARK    8  A    between atoms: C_14  and  C_15
REMARK    9  A    between atoms: C_15  and  O_16
REMARK   10  A    between atoms: O_16  and  N_17
REMARK   11  A    between atoms: C_24  and  C_25
REMARK   12  A    between atoms: C_24  and  C_26
REMARK                            x       y       z     vdW  Elec       q    Type
REMARK                         _______ _______ _______ _____ _____    ______ ____
ROOT
ATOM      1  C   UNL     1       2.883   7.035  18.520  0.00  0.00    +0.000 C 
ENDROOT
BRANCH   1   2
ATOM      2  C   UNL     1       2.029   8.290  18.229  0.00  0.00    +0.000 C 
BRANCH   2   3
ATOM      3  C   UNL     1       1.713   8.938  19.584  0.00  0.00    +0.000 C 
BRANCH   3   4
ATOM      4  O   UNL     1       0.373   9.005  19.903  0.00  0.00    +0.000 OA
BRANCH   4  10
ATOM      5  C   UNL     1      -1.219  10.599  18.779  0.00  0.00    +0.000 A 
ATOM      6  C   UNL     1      -1.991  11.766  18.940  0.00  0.00    +0.000 A 
ATOM      7  C   UNL     1      -2.004  12.471  20.129  0.00  0.00    +0.000 A 
ATOM      8  C   UNL     1      -1.237  12.043  21.199  0.00  0.00    +0.000 A 
ATOM      9  C   UNL     1      -0.443  10.883  21.101  0.00  0.00    +0.000 A 
ATOM     10  C   UNL     1      -0.421  10.131  19.897  0.00  0.00    +0.000 A 
BRANCH   9  11
ATOM     11  O   UNL     1       0.318  10.468  22.151  0.00  0.00    +0.000 OA
ATOM     12  C   UNL     1      -0.136   9.719  23.223  0.00  0.00    +0.000 C 
ENDBRANCH   9  11
BRANCH   5  13
ATOM     13  C   UNL     1      -1.335   9.969  17.394  0.00  0.00    +0.000 C 
BRANCH  13  15
ATOM     14  C   UNL     1      -3.171   9.959  15.753  0.00  0.00    +0.000 C 
ATOM     15  C   UNL     1      -2.344  10.668  16.527  0.00  0.00    +0.000 C 
ENDBRANCH  13  15
ENDBRANCH   5  13
ENDBRANCH   4  10
ENDBRANCH   3   4
ENDBRANCH   2   3
ENDBRANCH   1   2
BRANCH   1  16
ATOM     16  O   UNL     1       3.153   6.292  17.348  0.00  0.00    +0.000 OA
BRANCH  16  17
ATOM     17  N   UNL     1       3.406   5.003  17.707  0.00  0.00    +0.000 N 
ATOM     18  C   UNL     1       2.332   4.044  17.714  0.00  0.00    +0.000 C 
ATOM     19  N   UNL     1       1.115   4.393  17.481  0.00  0.00    +0.000 NA
ATOM     20  N   UNL     1       2.597   2.674  17.959  0.00  0.00    +0.000 NA
ATOM     21  C   UNL     1       3.783   2.233  18.152  0.00  0.00    +0.000 C 
ATOM     22  N   UNL     1       3.994   0.852  18.376  0.00  0.00    +0.000 N 
ATOM     23  N   UNL     1       4.895   3.119  18.138  0.00  0.00    +0.000 N 
ATOM     24  C   UNL     1       4.800   4.557  17.908  0.00  0.00    +0.000 C 
ATOM     25  C   UNL     1       5.614   4.873  16.646  0.00  0.00    +0.000 C 
ATOM     26  C   UNL     1       5.427   5.252  19.128  0.00  0.00    +0.000 C 
ATOM     27  H   UNL     1       0.836   5.360  17.277  0.00  0.00    +0.000 HD
ATOM     28  H   UNL     1       3.204   0.194  18.376  0.00  0.00    +0.000 HD
ATOM     29  H   UNL     1       4.947   0.486  18.520  0.00  0.00    +0.000 HD
ATOM     30  H   UNL     1       5.833   2.712  18.287  0.00  0.00    +0.000 HD
ENDBRANCH  16  17
ENDBRANCH   1  16
TORSDOF 9
ENDMDL
MODEL 6
REMARK VINA RESULT:      -7.0      1.487      2.373
REMARK  Name = 
REMARK  12 active torsions:
REMARK  status: ('A' for Active; 'I' for Inactive)
REMARK    1  A    between atoms: C_2  and  C_3
REMARK    2  A    between atoms: C_3  and  C_4
REMARK    3  A    between atoms: C_8  and  O_9
REMARK    4  A    between atoms: O_9  and  C_10
REMARK    5  A    between atoms: C_11  and  O_12
REMARK    6  A    between atoms: O_12  and  C_13
REMARK    7  A    between atoms: C_13  and  C_14
REMARK    8  A    between atoms: C_14  and  C_15
REMARK    9  A    between atoms: C_15  and  O_16
REMARK   10  A    between atoms: O_16  and  N_17
REMARK   11  A    between atoms: C_24  and  C_25
REMARK   12  A    between atoms: C_24  and  C_26
REMARK                            x       y       z     vdW  Elec       q    Type
REMARK                         _______ _______ _______ _____ _____    ______ ____
ROOT
ATOM      1  C   UNL     1       2.731   6.879  18.331  0.00  0.00    +0.000 C 
ENDROOT
BRANCH   1   2
ATOM      2  C   UNL     1       2.570   8.363  17.930  0.00  0.00    +0.000 C 
BRANCH   2   3
ATOM      3  C   UNL     1       1.169   8.798  18.383  0.00  0.00    +0.000 C 
BRANCH   3   4
ATOM      4  O   UNL     1       0.882  10.134  18.198  0.00  0.00    +0.000 OA
BRANCH   4  10
ATOM      5  C   UNL     1      -1.559  10.724  18.009  0.00  0.00    +0.000 A 
ATOM      6  C   UNL     1      -2.616  11.462  18.576  0.00  0.00    +0.000 A 
ATOM      7  C   UNL     1      -2.431  12.256  19.694  0.00  0.00    +0.000 A 
ATOM      8  C   UNL     1      -1.181  12.350  20.280  0.00  0.00    +0.000 A 
ATOM      9  C   UNL     1      -0.083  11.635  19.760  0.00  0.00    +0.000 A 
ATOM     10  C   UNL     1      -0.246  10.802  18.622  0.00  0.00    +0.000 A 
BRANCH   9  11
ATOM     11  O   UNL     1       1.149  11.736  20.333  0.00  0.00    +0.000 OA
ATOM     12  C   UNL     1       1.830  12.920  20.564  0.00  0.00    +0.000 C 
ENDBRANCH   9  11
BRANCH   5  13
ATOM     13  C   UNL     1      -1.961   9.915  16.779  0.00  0.00    +0.000 C 
BRANCH  13  15
ATOM     14  C   UNL     1      -3.756  10.281  15.132  0.00  0.00    +0.000 C 
ATOM     15  C   UNL     1      -2.665  10.750  15.747  0.00  0.00    +0.000 C 
ENDBRANCH  13  15
ENDBRANCH   5  13
ENDBRANCH   4  10
ENDBRANCH   3   4
ENDBRANCH   2   3
ENDBRANCH   1   2
BRANCH   1  16
ATOM     16  O   UNL     1       3.357   6.118  17.317  0.00  0.00    +0.000 OA
BRANCH  16  17
ATOM     17  N   UNL     1       3.517   4.846  17.774  0.00  0.00    +0.000 N 
ATOM     18  C   UNL     1       2.393   3.945  17.773  0.00  0.00    +0.000 C 
ATOM     19  N   UNL     1       1.214   4.338  17.441  0.00  0.00    +0.000 NA
ATOM     20  N   UNL     1       2.568   2.583  18.123  0.00  0.00    +0.000 NA
ATOM     21  C   UNL     1       3.714   2.096  18.419  0.00  0.00    +0.000 C 
ATOM     22  N   UNL     1       3.836   0.724  18.744  0.00  0.00    +0.000 N 
ATOM     23  N   UNL     1       4.872   2.922  18.420  0.00  0.00    +0.000 N 
ATOM     24  C   UNL     1       4.869   4.344  18.092  0.00  0.00    +0.000 C 
ATOM     25  C   UNL     1       5.775   4.533  16.867  0.00  0.00    +0.000 C 
ATOM     26  C   UNL     1       5.458   5.088  19.302  0.00  0.00    +0.000 C 
ATOM     27  H   UNL     1       1.001   5.302  17.158  0.00  0.00    +0.000 HD
ATOM     28  H   UNL     1       3.013   0.109  18.736  0.00  0.00    +0.000 HD
ATOM     29  H   UNL     1       4.757   0.322  18.973  0.00  0.00    +0.000 HD
ATOM     30  H   UNL     1       5.775   2.480  18.655  0.00  0.00    +0.000 HD
ENDBRANCH  16  17
ENDBRANCH   1  16
TORSDOF 9
ENDMDL
MODEL 7
REMARK VINA RESULT:      -6.9      1.238      2.090
REMARK  Name = 
REMARK  12 active torsions:
REMARK  status: ('A' for Active; 'I' for Inactive)
REMARK    1  A    between atoms: C_2  and  C_3
REMARK    2  A    between atoms: C_3  and  C_4
REMARK    3  A    between atoms: C_8  and  O_9
REMARK    4  A    between atoms: O_9  and  C_10
REMARK    5  A    between atoms: C_11  and  O_12
REMARK    6  A    between atoms: O_12  and  C_13
REMARK    7  A    between atoms: C_13  and  C_14
REMARK    8  A    between atoms: C_14  and  C_15
REMARK    9  A    between atoms: C_15  and  O_16
REMARK   10  A    between atoms: O_16  and  N_17
REMARK   11  A    between atoms: C_24  and  C_25
REMARK   12  A    between atoms: C_24  and  C_26
REMARK                            x       y       z     vdW  Elec       q    Type
REMARK                         _______ _______ _______ _____ _____    ______ ____
ROOT
ATOM      1  C   UNL     1       2.723   7.318  18.726  0.00  0.00    +0.000 C 
ENDROOT
BRANCH   1   2
ATOM      2  C   UNL     1       2.367   8.604  17.946  0.00  0.00    +0.000 C 
BRANCH   2   3
ATOM      3  C   UNL     1       1.049   9.131  18.532  0.00  0.00    +0.000 C 
BRANCH   3   4
ATOM      4  O   UNL     1       1.117  10.392  19.085  0.00  0.00    +0.000 OA
BRANCH   4  10
ATOM      5  C   UNL     1      -0.998  11.745  19.275  0.00  0.00    +0.000 A 
ATOM      6  C   UNL     1      -1.921  12.326  20.165  0.00  0.00    +0.000 A 
ATOM      7  C   UNL     1      -1.769  12.229  21.537  0.00  0.00    +0.000 A 
ATOM      8  C   UNL     1      -0.683  11.557  22.069  0.00  0.00    +0.000 A 
ATOM      9  C   UNL     1       0.276  10.954  21.231  0.00  0.00    +0.000 A 
ATOM     10  C   UNL     1       0.138  11.025  19.819  0.00  0.00    +0.000 A 
BRANCH   9  11
ATOM     11  O   UNL     1       1.350  10.301  21.756  0.00  0.00    +0.000 OA
ATOM     12  C   UNL     1       1.324   9.031  22.308  0.00  0.00    +0.000 C 
ENDBRANCH   9  11
BRANCH   5  13
ATOM     13  C   UNL     1      -1.337  11.965  17.804  0.00  0.00    +0.000 C 
BRANCH  13  15
ATOM     14  C   UNL     1      -2.495   9.831  17.385  0.00  0.00    +0.000 C 
ATOM     15  C   UNL     1      -2.532  11.167  17.363  0.00  0.00    +0.000 C 
ENDBRANCH  13  15
ENDBRANCH   5  13
ENDBRANCH   4  10
ENDBRANCH   3   4
ENDBRANCH   2   3
ENDBRANCH   1   2
BRANCH   1  16
ATOM     16  O   UNL     1       2.643   6.164  17.914  0.00  0.00    +0.000 OA
BRANCH  16  17
ATOM     17  N   UNL     1       3.334   5.162  18.525  0.00  0.00    +0.000 N 
ATOM     18  C   UNL     1       2.688   4.373  19.542  0.00  0.00    +0.000 C 
ATOM     19  N   UNL     1       1.503   4.650  19.960  0.00  0.00    +0.000 NA
ATOM     20  N   UNL     1       3.344   3.247  20.098  0.00  0.00    +0.000 NA
ATOM     21  C   UNL     1       4.503   2.870  19.707  0.00  0.00    +0.000 C 
ATOM     22  N   UNL     1       5.107   1.728  20.284  0.00  0.00    +0.000 N 
ATOM     23  N   UNL     1       5.192   3.589  18.691  0.00  0.00    +0.000 N 
ATOM     24  C   UNL     1       4.665   4.773  18.018  0.00  0.00    +0.000 C 
ATOM     25  C   UNL     1       4.556   4.440  16.525  0.00  0.00    +0.000 C 
ATOM     26  C   UNL     1       5.684   5.904  18.233  0.00  0.00    +0.000 C 
ATOM     27  H   UNL     1       0.949   5.437  19.600  0.00  0.00    +0.000 HD
ATOM     28  H   UNL     1       4.619   1.188  21.010  0.00  0.00    +0.000 HD
ATOM     29  H   UNL     1       6.035   1.412  19.967  0.00  0.00    +0.000 HD
ATOM     30  H   UNL     1       6.119   3.239  18.403  0.00  0.00    +0.000 HD
ENDBRANCH  16  17
ENDBRANCH   1  16
TORSDOF 9
ENDMDL
MODEL 8
REMARK VINA RESULT:      -6.9      6.774      8.608
REMARK  Name = 
REMARK  12 active torsions:
REMARK  status: ('A' for Active; 'I' for Inactive)
REMARK    1  A    between atoms: C_2  and  C_3
REMARK    2  A    between atoms: C_3  and  C_4
REMARK    3  A    between atoms: C_8  and  O_9
REMARK    4  A    between atoms: O_9  and  C_10
REMARK    5  A    between atoms: C_11  and  O_12
REMARK    6  A    between atoms: O_12  and  C_13
REMARK    7  A    between atoms: C_13  and  C_14
REMARK    8  A    between atoms: C_14  and  C_15
REMARK    9  A    between atoms: C_15  and  O_16
REMARK   10  A    between atoms: O_16  and  N_17
REMARK   11  A    between atoms: C_24  and  C_25
REMARK   12  A    between atoms: C_24  and  C_26
REMARK                            x       y       z     vdW  Elec       q    Type
REMARK                         _______ _______ _______ _____ _____    ______ ____
ROOT
ATOM      1  C   UNL     1       7.474   8.113  17.630  0.00  0.00    +0.000 C 
ENDROOT
BRANCH   1   2
ATOM      2  C   UNL     1       8.581   8.739  18.509  0.00  0.00    +0.000 C 
BRANCH   2   3
ATOM      3  C   UNL     1       8.625  10.236  18.170  0.00  0.00    +0.000 C 
BRANCH   3   4
ATOM      4  O   UNL     1       9.787  10.884  18.530  0.00  0.00    +0.000 OA
BRANCH   4  10
ATOM      5  C   UNL     1       9.532  12.293  20.601  0.00  0.00    +0.000 A 
ATOM      6  C   UNL     1       9.711  13.574  21.155  0.00  0.00    +0.000 A 
ATOM      7  C   UNL     1      10.215  14.625  20.410  0.00  0.00    +0.000 A 
ATOM      8  C   UNL     1      10.548  14.437  19.080  0.00  0.00    +0.000 A 
ATOM      9  C   UNL     1      10.392  13.177  18.467  0.00  0.00    +0.000 A 
ATOM     10  C   UNL     1       9.890  12.077  19.212  0.00  0.00    +0.000 A 
BRANCH   9  11
ATOM     11  O   UNL     1      10.711  12.995  17.155  0.00  0.00    +0.000 OA
ATOM     12  C   UNL     1      11.908  13.361  16.564  0.00  0.00    +0.000 C 
ENDBRANCH   9  11
BRANCH   5  13
ATOM     13  C   UNL     1       8.961  11.271  21.581  0.00  0.00    +0.000 C 
BRANCH  13  15
ATOM     14  C   UNL     1       7.138  11.886  23.119  0.00  0.00    +0.000 C 
ATOM     15  C   UNL     1       8.445  11.909  22.840  0.00  0.00    +0.000 C 
ENDBRANCH  13  15
ENDBRANCH   5  13
ENDBRANCH   4  10
ENDBRANCH   3   4
ENDBRANCH   2   3
ENDBRANCH   1   2
BRANCH   1  16
ATOM     16  O   UNL     1       7.918   6.946  16.967  0.00  0.00    +0.000 OA
BRANCH  16  17
ATOM     17  N   UNL     1       7.098   5.917  17.316  0.00  0.00    +0.000 N 
ATOM     18  C   UNL     1       7.201   5.342  18.632  0.00  0.00    +0.000 C 
ATOM     19  N   UNL     1       8.116   5.710  19.459  0.00  0.00    +0.000 NA
ATOM     20  N   UNL     1       6.274   4.359  19.059  0.00  0.00    +0.000 NA
ATOM     21  C   UNL     1       5.304   3.970  18.319  0.00  0.00    +0.000 C 
ATOM     22  N   UNL     1       4.396   2.998  18.800  0.00  0.00    +0.000 N 
ATOM     23  N   UNL     1       5.127   4.509  17.015  0.00  0.00    +0.000 N 
ATOM     24  C   UNL     1       5.993   5.522  16.418  0.00  0.00    +0.000 C 
ATOM     25  C   UNL     1       5.124   6.751  16.122  0.00  0.00    +0.000 C 
ATOM     26  C   UNL     1       6.538   4.933  15.106  0.00  0.00    +0.000 C 
ATOM     27  H   UNL     1       8.818   6.427  19.239  0.00  0.00    +0.000 HD
ATOM     28  H   UNL     1       4.500   2.605  19.745  0.00  0.00    +0.000 HD
ATOM     29  H   UNL     1       3.606   2.687  18.215  0.00  0.00    +0.000 HD
ATOM     30  H   UNL     1       4.324   4.171  16.462  0.00  0.00    +0.000 HD
ENDBRANCH  16  17
ENDBRANCH   1  16
TORSDOF 9
ENDMDL
MODEL 9
REMARK VINA RESULT:      -6.9      2.261      3.657
REMARK  Name = 
REMARK  12 active torsions:
REMARK  status: ('A' for Active; 'I' for Inactive)
REMARK    1  A    between atoms: C_2  and  C_3
REMARK    2  A    between atoms: C_3  and  C_4
REMARK    3  A    between atoms: C_8  and  O_9
REMARK    4  A    between atoms: O_9  and  C_10
REMARK    5  A    between atoms: C_11  and  O_12
REMARK    6  A    between atoms: O_12  and  C_13
REMARK    7  A    between atoms: C_13  and  C_14
REMARK    8  A    between atoms: C_14  and  C_15
REMARK    9  A    between atoms: C_15  and  O_16
REMARK   10  A    between atoms: O_16  and  N_17
REMARK   11  A    between atoms: C_24  and  C_25
REMARK   12  A    between atoms: C_24  and  C_26
REMARK                            x       y       z     vdW  Elec       q    Type
REMARK                         _______ _______ _______ _____ _____    ______ ____
ROOT
ATOM      1  C   UNL     1       3.253   4.960  20.236  0.00  0.00    +0.000 C 
ENDROOT
BRANCH   1   2
ATOM      2  C   UNL     1       1.831   4.602  20.726  0.00  0.00    +0.000 C 
BRANCH   2   3
ATOM      3  C   UNL     1       1.003   5.894  20.671  0.00  0.00    +0.000 C 
BRANCH   3   4
ATOM      4  O   UNL     1       1.721   7.058  20.846  0.00  0.00    +0.000 OA
BRANCH   4  10
ATOM      5  C   UNL     1       1.717   8.553  18.820  0.00  0.00    +0.000 A 
ATOM      6  C   UNL     1       1.423   9.842  18.337  0.00  0.00    +0.000 A 
ATOM      7  C   UNL     1       0.937  10.837  19.166  0.00  0.00    +0.000 A 
ATOM      8  C   UNL     1       0.736  10.582  20.511  0.00  0.00    +0.000 A 
ATOM      9  C   UNL     1       1.010   9.311  21.056  0.00  0.00    +0.000 A 
ATOM     10  C   UNL     1       1.497   8.267  20.225  0.00  0.00    +0.000 A 
BRANCH   9  11
ATOM     11  O   UNL     1       0.820   9.065  22.382  0.00  0.00    +0.000 OA
ATOM     12  C   UNL     1      -0.153   9.650  23.174  0.00  0.00    +0.000 C 
ENDBRANCH   9  11
BRANCH   5  13
ATOM     13  C   UNL     1       2.247   7.600  17.753  0.00  0.00    +0.000 C 
BRANCH  13  15
ATOM     14  C   UNL     1       4.401   7.130  16.654  0.00  0.00    +0.000 C 
ATOM     15  C   UNL     1       3.747   7.510  17.756  0.00  0.00    +0.000 C 
ENDBRANCH  13  15
ENDBRANCH   5  13
ENDBRANCH   4  10
ENDBRANCH   3   4
ENDBRANCH   2   3
ENDBRANCH   1   2
BRANCH   1  16
ATOM     16  O   UNL     1       4.042   3.809  20.009  0.00  0.00    +0.000 OA
BRANCH  16  17
ATOM     17  N   UNL     1       4.601   3.912  18.771  0.00  0.00    +0.000 N 
ATOM     18  C   UNL     1       5.896   4.526  18.626  0.00  0.00    +0.000 C 
ATOM     19  N   UNL     1       6.501   5.068  19.624  0.00  0.00    +0.000 NA
ATOM     20  N   UNL     1       6.551   4.528  17.370  0.00  0.00    +0.000 NA
ATOM     21  C   UNL     1       6.043   3.968  16.336  0.00  0.00    +0.000 C 
ATOM     22  N   UNL     1       6.747   3.984  15.108  0.00  0.00    +0.000 N 
ATOM     23  N   UNL     1       4.777   3.325  16.409  0.00  0.00    +0.000 N 
ATOM     24  C   UNL     1       3.968   3.237  17.621  0.00  0.00    +0.000 C 
ATOM     25  C   UNL     1       3.793   1.747  17.948  0.00  0.00    +0.000 C 
ATOM     26  C   UNL     1       2.603   3.869  17.298  0.00  0.00    +0.000 C 
ATOM     27  H   UNL     1       6.108   5.096  20.573  0.00  0.00    +0.000 HD
ATOM     28  H   UNL     1       7.669   4.433  15.038  0.00  0.00    +0.000 HD
ATOM     29  H   UNL     1       6.351   3.527  14.274  0.00  0.00    +0.000 HD
ATOM     30  H   UNL     1       4.417   2.879  15.551  0.00  0.00    +0.000 HD
ENDBRANCH  16  17
ENDBRANCH   1  16
TORSDOF 9
ENDMDL
