MODEL 1
REMARK VINA RESULT:      -6.5      0.000      0.000
REMARK  Name = 
REMARK  3 active torsions:
REMARK  status: ('A' for Active; 'I' for Inactive)
REMARK    1  A    between atoms: C_2  and  C_3
REMARK    2  A    between atoms: C_6  and  C_7
REMARK    3  A    between atoms: C_21  and  C_22
REMARK                            x       y       z     vdW  Elec       q    Type
REMARK                         _______ _______ _______ _____ _____    ______ ____
ROOT
ATOM      1  O   UNL     1       3.062   8.393  16.999  0.00  0.00    +0.000 OA
ATOM      2  C   UNL     1       2.340   8.286  17.990  0.00  0.00    +0.000 C 
ATOM      3  N   UNL     1       2.627   7.308  18.941  0.00  0.00    +0.000 N 
ATOM      4  C   UNL     1       3.736   6.370  18.557  0.00  0.00    +0.000 C 
ATOM      5  C   UNL     1       4.180   5.383  19.684  0.00  0.00    +0.000 C 
ATOM      6  C   UNL     1       2.916   4.665  20.066  0.00  0.00    +0.000 A 
ATOM      7  S   UNL     1       2.735   2.993  20.118  0.00  0.00    +0.000 S 
ATOM      8  C   UNL     1       1.045   3.168  19.885  0.00  0.00    +0.000 A 
ATOM      9  C   UNL     1       0.634   4.492  19.927  0.00  0.00    +0.000 A 
ATOM     10  C   UNL     1       1.730   5.383  20.163  0.00  0.00    +0.000 A 
ATOM     11  C   UNL     1       1.884   6.901  20.155  0.00  0.00    +0.000 C 
ENDROOT
BRANCH  11  12
ATOM     12  C   UNL     1       1.283   7.726  21.281  0.00  0.00    +0.000 A 
ATOM     13  C   UNL     1      -0.128   7.843  21.328  0.00  0.00    +0.000 A 
ATOM     14  C   UNL     1      -0.757   8.846  22.056  0.00  0.00    +0.000 A 
ATOM     15  C   UNL     1       0.003   9.768  22.770  0.00  0.00    +0.000 A 
ATOM     16  C   UNL     1       1.391   9.651  22.781  0.00  0.00    +0.000 A 
ATOM     17  C   UNL     1       2.028   8.637  22.052  0.00  0.00    +0.000 A 
ENDBRANCH  11  12
BRANCH   2  18
ATOM     18  C   UNL     1       1.246   9.253  18.162  0.00  0.00    +0.000 A 
ATOM     19  C   UNL     1       1.376  10.302  19.057  0.00  0.00    +0.000 A 
ATOM     20  S   UNL     1      -0.044  11.242  19.103  0.00  0.00    +0.000 S 
ATOM     21  C   UNL     1      -0.742  10.230  17.897  0.00  0.00    +0.000 A 
ATOM     22  N   UNL     1       0.039   9.251  17.468  0.00  0.00    +0.000 NA
BRANCH  21  23
ATOM     23  C   UNL     1      -2.081  10.466  17.404  0.00  0.00    +0.000 A 
ATOM     24  C   UNL     1      -2.664   9.998  16.236  0.00  0.00    +0.000 A 
ATOM     25  C   UNL     1      -4.022  10.411  16.086  0.00  0.00    +0.000 A 
ATOM     26  C   UNL     1      -4.436  11.194  17.136  0.00  0.00    +0.000 A 
ATOM     27  S   UNL     1      -3.196  11.434  18.288  0.00  0.00    +0.000 S 
ENDBRANCH  21  23
ENDBRANCH   2  18
TORSDOF 3
ENDMDL
MODEL 2
REMARK VINA RESULT:      -6.1      3.897      8.120
REMARK  Name = 
REMARK  3 active torsions:
REMARK  status: ('A' for Active; 'I' for Inactive)
REMARK    1  A    between atoms: C_2  and  C_3
REMARK    2  A    between atoms: C_6  and  C_7
REMARK    3  A    between atoms: C_21  and  C_22
REMARK                            x       y       z     vdW  Elec       q    Type
REMARK                         _______ _______ _______ _____ _____    ______ ____
ROOT
ATOM      1  O   UNL     1       0.804  13.500  21.982  0.00  0.00    +0.000 OA
ATOM      2  C   UNL     1      -0.101  12.878  21.424  0.00  0.00    +0.000 C 
ATOM      3  N   UNL     1      -1.225  13.569  20.973  0.00  0.00    +0.000 N 
ATOM      4  C   UNL     1      -1.267  15.018  21.366  0.00  0.00    +0.000 C 
ATOM      5  C   UNL     1      -2.430  15.839  20.722  0.00  0.00    +0.000 C 
ATOM      6  C   UNL     1      -3.673  15.092  21.118  0.00  0.00    +0.000 A 
ATOM      7  S   UNL     1      -5.009  15.777  21.876  0.00  0.00    +0.000 S 
ATOM      8  C   UNL     1      -5.429  14.245  22.523  0.00  0.00    +0.000 A 
ATOM      9  C   UNL     1      -4.638  13.221  22.026  0.00  0.00    +0.000 A 
ATOM     10  C   UNL     1      -3.669  13.703  21.087  0.00  0.00    +0.000 A 
ATOM     11  C   UNL     1      -2.480  13.069  20.369  0.00  0.00    +0.000 C 
ENDROOT
BRANCH  11  12
ATOM     12  C   UNL     1      -2.721  12.075  19.245  0.00  0.00    +0.000 A 
ATOM     13  C   UNL     1      -1.696  11.913  18.280  0.00  0.00    +0.000 A 
ATOM     14  C   UNL     1      -1.941  11.339  17.039  0.00  0.00    +0.000 A 
ATOM     15  C   UNL     1      -3.222  10.900  16.717  0.00  0.00    +0.000 A 
ATOM     16  C   UNL     1      -4.241  11.004  17.661  0.00  0.00    +0.000 A 
ATOM     17  C   UNL     1      -3.995  11.577  18.917  0.00  0.00    +0.000 A 
ENDBRANCH  11  12
BRANCH   2  18
ATOM     18  C   UNL     1       0.083  11.439  21.192  0.00  0.00    +0.000 A 
ATOM     19  C   UNL     1      -0.580  10.513  21.982  0.00  0.00    +0.000 A 
ATOM     20  S   UNL     1      -0.157   8.923  21.541  0.00  0.00    +0.000 S 
ATOM     21  C   UNL     1       0.853   9.548  20.292  0.00  0.00    +0.000 A 
ATOM     22  N   UNL     1       0.869  10.867  20.194  0.00  0.00    +0.000 NA
BRANCH  21  23
ATOM     23  C   UNL     1       1.606   8.666  19.428  0.00  0.00    +0.000 A 
ATOM     24  C   UNL     1       2.029   8.892  18.126  0.00  0.00    +0.000 A 
ATOM     25  C   UNL     1       2.779   7.804  17.587  0.00  0.00    +0.000 A 
ATOM     26  C   UNL     1       2.897   6.771  18.485  0.00  0.00    +0.000 A 
ATOM     27  S   UNL     1       2.105   7.110  19.962  0.00  0.00    +0.000 S 
ENDBRANCH  21  23
ENDBRANCH   2  18
TORSDOF 3
ENDMDL
MODEL 3
REMARK VINA RESULT:      -6.0      1.724      2.414
REMARK  Name = 
REMARK  3 active torsions:
REMARK  status: ('A' for Active; 'I' for Inactive)
REMARK    1  A    between atoms: C_2  and  C_3
REMARK    2  A    between atoms: C_6  and  C_7
REMARK    3  A    between atoms: C_21  and  C_22
REMARK                            x       y       z     vdW  Elec       q    Type
REMARK                         _______ _______ _______ _____ _____    ______ ____
ROOT
ATOM      1  O   UNL     1       2.811   8.519  16.963  0.00  0.00    +0.000 OA
ATOM      2  C   UNL     1       2.148   8.373  17.991  0.00  0.00    +0.000 C 
ATOM      3  N   UNL     1       2.529   7.404  18.917  0.00  0.00    +0.000 N 
ATOM      4  C   UNL     1       3.658   6.520  18.468  0.00  0.00    +0.000 C 
ATOM      5  C   UNL     1       4.206   5.549  19.562  0.00  0.00    +0.000 C 
ATOM      6  C   UNL     1       2.998   4.771  20.003  0.00  0.00    +0.000 A 
ATOM      7  S   UNL     1       2.897   3.092  20.051  0.00  0.00    +0.000 S 
ATOM      8  C   UNL     1       1.190   3.190  19.908  0.00  0.00    +0.000 A 
ATOM      9  C   UNL     1       0.722   4.493  19.983  0.00  0.00    +0.000 A 
ATOM     10  C   UNL     1       1.787   5.432  20.169  0.00  0.00    +0.000 A 
ATOM     11  C   UNL     1       1.871   6.957  20.165  0.00  0.00    +0.000 C 
ENDROOT
BRANCH  11  12
ATOM     12  C   UNL     1       1.293   7.746  21.328  0.00  0.00    +0.000 A 
ATOM     13  C   UNL     1      -0.118   7.828  21.430  0.00  0.00    +0.000 A 
ATOM     14  C   UNL     1      -0.743   8.802  22.199  0.00  0.00    +0.000 A 
ATOM     15  C   UNL     1       0.022   9.729  22.901  0.00  0.00    +0.000 A 
ATOM     16  C   UNL     1       1.412   9.646  22.859  0.00  0.00    +0.000 A 
ATOM     17  C   UNL     1       2.045   8.661  22.088  0.00  0.00    +0.000 A 
ENDBRANCH  11  12
BRANCH   2  18
ATOM     18  C   UNL     1       1.021   9.288  18.228  0.00  0.00    +0.000 A 
ATOM     19  C   UNL     1      -0.154   9.149  17.506  0.00  0.00    +0.000 A 
ATOM     20  S   UNL     1      -1.276  10.358  17.934  0.00  0.00    +0.000 S 
ATOM     21  C   UNL     1      -0.156  10.975  19.089  0.00  0.00    +0.000 A 
ATOM     22  N   UNL     1       0.987  10.315  19.167  0.00  0.00    +0.000 NA
BRANCH  21  23
ATOM     23  C   UNL     1      -0.479  12.127  19.903  0.00  0.00    +0.000 A 
ATOM     24  C   UNL     1       0.373  12.898  20.680  0.00  0.00    +0.000 A 
ATOM     25  C   UNL     1      -0.292  13.981  21.329  0.00  0.00    +0.000 A 
ATOM     26  C   UNL     1      -1.636  14.000  21.043  0.00  0.00    +0.000 A 
ATOM     27  S   UNL     1      -2.090  12.720  20.005  0.00  0.00    +0.000 S 
ENDBRANCH  21  23
ENDBRANCH   2  18
TORSDOF 3
ENDMDL
MODEL 4
REMARK VINA RESULT:      -5.9      4.858      7.390
REMARK  Name = 
REMARK  3 active torsions:
REMARK  status: ('A' for Active; 'I' for Inactive)
REMARK    1  A    between atoms: C_2  and  C_3
REMARK    2  A    between atoms: C_6  and  C_7
REMARK    3  A    between atoms: C_21  and  C_22
REMARK                            x       y       z     vdW  Elec       q    Type
REMARK                         _______ _______ _______ _____ _____    ______ ____
ROOT
ATOM      1  O   UNL     1      -0.621  10.503  23.546  0.00  0.00    +0.000 OA
ATOM      2  C   UNL     1      -1.107  11.293  22.736  0.00  0.00    +0.000 C 
ATOM      3  N   UNL     1      -0.810  11.150  21.382  0.00  0.00    +0.000 N 
ATOM      4  C   UNL     1       0.222  10.103  21.076  0.00  0.00    +0.000 C 
ATOM      5  C   UNL     1       0.435   9.816  19.555  0.00  0.00    +0.000 C 
ATOM      6  C   UNL     1       0.776  11.157  18.969  0.00  0.00    +0.000 A 
ATOM      7  S   UNL     1       2.131  11.482  18.027  0.00  0.00    +0.000 S 
ATOM      8  C   UNL     1       2.055  13.134  18.484  0.00  0.00    +0.000 A 
ATOM      9  C   UNL     1       0.915  13.433  19.216  0.00  0.00    +0.000 A 
ATOM     10  C   UNL     1       0.083  12.282  19.400  0.00  0.00    +0.000 A 
ATOM     11  C   UNL     1      -1.171  12.000  20.224  0.00  0.00    +0.000 C 
ENDROOT
BRANCH  11  12
ATOM     12  C   UNL     1      -2.502  12.599  19.802  0.00  0.00    +0.000 A 
ATOM     13  C   UNL     1      -2.836  13.880  20.307  0.00  0.00    +0.000 A 
ATOM     14  C   UNL     1      -4.143  14.352  20.302  0.00  0.00    +0.000 A 
ATOM     15  C   UNL     1      -5.165  13.563  19.785  0.00  0.00    +0.000 A 
ATOM     16  C   UNL     1      -4.863  12.317  19.239  0.00  0.00    +0.000 A 
ATOM     17  C   UNL     1      -3.544  11.840  19.238  0.00  0.00    +0.000 A 
ENDBRANCH  11  12
BRANCH   2  18
ATOM     18  C   UNL     1      -2.046  12.310  23.232  0.00  0.00    +0.000 A 
ATOM     19  C   UNL     1      -1.570  13.468  23.826  0.00  0.00    +0.000 A 
ATOM     20  S   UNL     1      -2.856  14.452  24.356  0.00  0.00    +0.000 S 
ATOM     21  C   UNL     1      -3.979  13.306  23.729  0.00  0.00    +0.000 A 
ATOM     22  N   UNL     1      -3.434  12.252  23.143  0.00  0.00    +0.000 NA
BRANCH  21  23
ATOM     23  C   UNL     1      -5.406  13.516  23.843  0.00  0.00    +0.000 A 
ATOM     24  C   UNL     1      -6.395  12.580  24.109  0.00  0.00    +0.000 A 
ATOM     25  C   UNL     1      -7.700  13.154  24.178  0.00  0.00    +0.000 A 
ATOM     26  C   UNL     1      -7.675  14.508  23.950  0.00  0.00    +0.000 A 
ATOM     27  S   UNL     1      -6.092  15.081  23.650  0.00  0.00    +0.000 S 
ENDBRANCH  21  23
ENDBRANCH   2  18
TORSDOF 3
ENDMDL
MODEL 5
REMARK VINA RESULT:      -5.8      5.096      7.940
REMARK  Name = 
REMARK  3 active torsions:
REMARK  status: ('A' for Active; 'I' for Inactive)
REMARK    1  A    between atoms: C_2  and  C_3
REMARK    2  A    between atoms: C_6  and  C_7
REMARK    3  A    between atoms: C_21  and  C_22
REMARK                            x       y       z     vdW  Elec       q    Type
REMARK                         _______ _______ _______ _____ _____    ______ ____
ROOT
ATOM      1  O   UNL     1      -4.880  15.165  22.342  0.00  0.00    +0.000 OA
ATOM      2  C   UNL     1      -4.000  14.393  21.960  0.00  0.00    +0.000 C 
ATOM      3  N   UNL     1      -2.725  14.482  22.517  0.00  0.00    +0.000 N 
ATOM      4  C   UNL     1      -2.529  15.647  23.445  0.00  0.00    +0.000 C 
ATOM      5  C   UNL     1      -1.165  15.657  24.206  0.00  0.00    +0.000 C 
ATOM      6  C   UNL     1      -0.132  15.601  23.116  0.00  0.00    +0.000 A 
ATOM      7  S   UNL     1       1.149  16.678  22.944  0.00  0.00    +0.000 S 
ATOM      8  C   UNL     1       1.218  16.330  21.266  0.00  0.00    +0.000 A 
ATOM      9  C   UNL     1       0.373  15.293  20.900  0.00  0.00    +0.000 A 
ATOM     10  C   UNL     1      -0.342  14.767  22.024  0.00  0.00    +0.000 A 
ATOM     11  C   UNL     1      -1.478  13.759  22.182  0.00  0.00    +0.000 C 
ENDROOT
BRANCH  11  12
ATOM     12  C   UNL     1      -1.208  12.279  21.965  0.00  0.00    +0.000 A 
ATOM     13  C   UNL     1      -1.412  11.406  23.063  0.00  0.00    +0.000 A 
ATOM     14  C   UNL     1      -0.855  10.134  23.101  0.00  0.00    +0.000 A 
ATOM     15  C   UNL     1      -0.077   9.683  22.039  0.00  0.00    +0.000 A 
ATOM     16  C   UNL     1       0.104  10.500  20.925  0.00  0.00    +0.000 A 
ATOM     17  C   UNL     1      -0.462  11.783  20.881  0.00  0.00    +0.000 A 
ENDBRANCH  11  12
BRANCH   2  18
ATOM     18  C   UNL     1      -4.360  13.357  20.981  0.00  0.00    +0.000 A 
ATOM     19  C   UNL     1      -5.584  12.714  21.064  0.00  0.00    +0.000 A 
ATOM     20  S   UNL     1      -5.732  11.529  19.849  0.00  0.00    +0.000 S 
ATOM     21  C   UNL     1      -4.177  11.963  19.249  0.00  0.00    +0.000 A 
ATOM     22  N   UNL     1      -3.579  12.946  19.904  0.00  0.00    +0.000 NA
BRANCH  21  23
ATOM     23  C   UNL     1      -3.600  11.289  18.106  0.00  0.00    +0.000 A 
ATOM     24  C   UNL     1      -2.441  10.530  18.049  0.00  0.00    +0.000 A 
ATOM     25  C   UNL     1      -2.192   9.990  16.752  0.00  0.00    +0.000 A 
ATOM     26  C   UNL     1      -3.159  10.362  15.850  0.00  0.00    +0.000 A 
ATOM     27  S   UNL     1      -4.352  11.358  16.561  0.00  0.00    +0.000 S 
ENDBRANCH  21  23
ENDBRANCH   2  18
TORSDOF 3
ENDMDL
MODEL 6
REMARK VINA RESULT:      -5.8      3.606      7.817
REMARK  Name = 
REMARK  3 active torsions:
REMARK  status: ('A' for Active; 'I' for Inactive)
REMARK    1  A    between atoms: C_2  and  C_3
REMARK    2  A    between atoms: C_6  and  C_7
REMARK    3  A    between atoms: C_21  and  C_22
REMARK                            x       y       z     vdW  Elec       q    Type
REMARK                         _______ _______ _______ _____ _____    ______ ____
ROOT
ATOM      1  O   UNL     1       1.865  12.954  21.223  0.00  0.00    +0.000 OA
ATOM      2  C   UNL     1       0.811  12.410  20.893  0.00  0.00    +0.000 C 
ATOM      3  N   UNL     1      -0.254  13.194  20.453  0.00  0.00    +0.000 N 
ATOM      4  C   UNL     1      -0.032  14.675  20.577  0.00  0.00    +0.000 C 
ATOM      5  C   UNL     1      -1.143  15.562  19.929  0.00  0.00    +0.000 C 
ATOM      6  C   UNL     1      -2.413  15.107  20.591  0.00  0.00    +0.000 A 
ATOM      7  S   UNL     1      -3.517  16.118  21.357  0.00  0.00    +0.000 S 
ATOM      8  C   UNL     1      -4.059  14.803  22.316  0.00  0.00    +0.000 A 
ATOM      9  C   UNL     1      -3.500  13.594  21.928  0.00  0.00    +0.000 A 
ATOM     10  C   UNL     1      -2.613  13.750  20.814  0.00  0.00    +0.000 A 
ATOM     11  C   UNL     1      -1.640  12.819  20.094  0.00  0.00    +0.000 C 
ENDROOT
BRANCH  11  12
ATOM     12  C   UNL     1      -2.176  11.710  19.205  0.00  0.00    +0.000 A 
ATOM     13  C   UNL     1      -1.254  11.037  18.365  0.00  0.00    +0.000 A 
ATOM     14  C   UNL     1      -1.669  10.292  17.269  0.00  0.00    +0.000 A 
ATOM     15  C   UNL     1      -3.025  10.186  16.973  0.00  0.00    +0.000 A 
ATOM     16  C   UNL     1      -3.960  10.798  17.806  0.00  0.00    +0.000 A 
ATOM     17  C   UNL     1      -3.544  11.546  18.917  0.00  0.00    +0.000 A 
ENDBRANCH  11  12
BRANCH   2  18
ATOM     18  C   UNL     1       0.751  10.941  20.907  0.00  0.00    +0.000 A 
ATOM     19  C   UNL     1      -0.073  10.285  21.808  0.00  0.00    +0.000 A 
ATOM     20  S   UNL     1       0.081   8.595  21.652  0.00  0.00    +0.000 S 
ATOM     21  C   UNL     1       1.203   8.825  20.365  0.00  0.00    +0.000 A 
ATOM     22  N   UNL     1       1.445  10.088  20.053  0.00  0.00    +0.000 NA
BRANCH  21  23
ATOM     23  C   UNL     1       1.810   7.698  19.691  0.00  0.00    +0.000 A 
ATOM     24  C   UNL     1       2.400   7.661  18.436  0.00  0.00    +0.000 A 
ATOM     25  C   UNL     1       2.923   6.376  18.104  0.00  0.00    +0.000 A 
ATOM     26  C   UNL     1       2.708   5.462  19.107  0.00  0.00    +0.000 A 
ATOM     27  S   UNL     1       1.877   6.148  20.434  0.00  0.00    +0.000 S 
ENDBRANCH  21  23
ENDBRANCH   2  18
TORSDOF 3
ENDMDL
MODEL 7
REMARK VINA RESULT:      -5.8      3.901      8.052
REMARK  Name = 
REMARK  3 active torsions:
REMARK  status: ('A' for Active; 'I' for Inactive)
REMARK    1  A    between atoms: C_2  and  C_3
REMARK    2  A    between atoms: C_6  and  C_7
REMARK    3  A    between atoms: C_21  and  C_22
REMARK                            x       y       z     vdW  Elec       q    Type
REMARK                         _______ _______ _______ _____ _____    ______ ____
ROOT
ATOM      1  O   UNL     1      -0.334  13.191  23.204  0.00  0.00    +0.000 OA
ATOM      2  C   UNL     1      -0.925  12.649  22.270  0.00  0.00    +0.000 C 
ATOM      3  N   UNL     1      -1.897  13.363  21.571  0.00  0.00    +0.000 N 
ATOM      4  C   UNL     1      -2.224  14.708  22.155  0.00  0.00    +0.000 C 
ATOM      5  C   UNL     1      -3.181  15.585  21.285  0.00  0.00    +0.000 C 
ATOM      6  C   UNL     1      -4.397  14.724  21.091  0.00  0.00    +0.000 A 
ATOM      7  S   UNL     1      -5.976  15.194  21.431  0.00  0.00    +0.000 S 
ATOM      8  C   UNL     1      -6.424  13.550  21.630  0.00  0.00    +0.000 A 
ATOM      9  C   UNL     1      -5.407  12.674  21.284  0.00  0.00    +0.000 A 
ATOM     10  C   UNL     1      -4.235  13.367  20.838  0.00  0.00    +0.000 A 
ATOM     11  C   UNL     1      -2.813  12.934  20.491  0.00  0.00    +0.000 C 
ENDROOT
BRANCH  11  12
ATOM     12  C   UNL     1      -2.552  12.161  19.209  0.00  0.00    +0.000 A 
ATOM     13  C   UNL     1      -3.302  10.979  18.990  0.00  0.00    +0.000 A 
ATOM     14  C   UNL     1      -2.900  10.015  18.073  0.00  0.00    +0.000 A 
ATOM     15  C   UNL     1      -1.734  10.199  17.336  0.00  0.00    +0.000 A 
ATOM     16  C   UNL     1      -1.000  11.373  17.495  0.00  0.00    +0.000 A 
ATOM     17  C   UNL     1      -1.406  12.350  18.415  0.00  0.00    +0.000 A 
ENDBRANCH  11  12
BRANCH   2  18
ATOM     18  C   UNL     1      -0.521  11.288  21.886  0.00  0.00    +0.000 A 
ATOM     19  C   UNL     1      -0.924  10.200  22.644  0.00  0.00    +0.000 A 
ATOM     20  S   UNL     1      -0.283   8.752  22.017  0.00  0.00    +0.000 S 
ATOM     21  C   UNL     1       0.462   9.644  20.745  0.00  0.00    +0.000 A 
ATOM     22  N   UNL     1       0.239  10.947  20.770  0.00  0.00    +0.000 NA
BRANCH  21  23
ATOM     23  C   UNL     1       1.259   8.982  19.734  0.00  0.00    +0.000 A 
ATOM     24  C   UNL     1       1.590   9.437  18.466  0.00  0.00    +0.000 A 
ATOM     25  C   UNL     1       2.421   8.526  17.747  0.00  0.00    +0.000 A 
ATOM     26  C   UNL     1       2.690   7.395  18.478  0.00  0.00    +0.000 A 
ATOM     27  S   UNL     1       1.943   7.430  20.015  0.00  0.00    +0.000 S 
ENDBRANCH  21  23
ENDBRANCH   2  18
TORSDOF 3
ENDMDL
MODEL 8
REMARK VINA RESULT:      -5.7      5.243      7.910
REMARK  Name = 
REMARK  3 active torsions:
REMARK  status: ('A' for Active; 'I' for Inactive)
REMARK    1  A    between atoms: C_2  and  C_3
REMARK    2  A    between atoms: C_6  and  C_7
REMARK    3  A    between atoms: C_21  and  C_22
REMARK                            x       y       z     vdW  Elec       q    Type
REMARK                         _______ _______ _______ _____ _____    ______ ____
ROOT
ATOM      1  O   UNL     1       2.267  11.887  18.217  0.00  0.00    +0.000 OA
ATOM      2  C   UNL     1       1.594  12.819  18.658  0.00  0.00    +0.000 C 
ATOM      3  N   UNL     1       2.088  14.119  18.570  0.00  0.00    +0.000 N 
ATOM      4  C   UNL     1       3.498  14.219  18.062  0.00  0.00    +0.000 C 
ATOM      5  C   UNL     1       3.999  15.674  17.796  0.00  0.00    +0.000 C 
ATOM      6  C   UNL     1       3.803  16.379  19.109  0.00  0.00    +0.000 A 
ATOM      7  S   UNL     1       4.994  17.237  19.930  0.00  0.00    +0.000 S 
ATOM      8  C   UNL     1       4.163  16.978  21.408  0.00  0.00    +0.000 A 
ATOM      9  C   UNL     1       2.924  16.381  21.227  0.00  0.00    +0.000 A 
ATOM     10  C   UNL     1       2.648  16.137  19.843  0.00  0.00    +0.000 A 
ATOM     11  C   UNL     1       1.544  15.391  19.096  0.00  0.00    +0.000 C 
ENDROOT
BRANCH  11  12
ATOM     12  C   UNL     1       0.148  15.987  19.023  0.00  0.00    +0.000 A 
ATOM     13  C   UNL     1      -0.087  16.993  18.053  0.00  0.00    +0.000 A 
ATOM     14  C   UNL     1      -1.174  17.854  18.138  0.00  0.00    +0.000 A 
ATOM     15  C   UNL     1      -2.072  17.737  19.195  0.00  0.00    +0.000 A 
ATOM     16  C   UNL     1      -1.894  16.728  20.140  0.00  0.00    +0.000 A 
ATOM     17  C   UNL     1      -0.801  15.855  20.053  0.00  0.00    +0.000 A 
ENDBRANCH  11  12
BRANCH   2  18
ATOM     18  C   UNL     1       0.257  12.520  19.193  0.00  0.00    +0.000 A 
ATOM     19  C   UNL     1       0.083  12.291  20.548  0.00  0.00    +0.000 A 
ATOM     20  S   UNL     1      -1.542  11.920  20.898  0.00  0.00    +0.000 S 
ATOM     21  C   UNL     1      -1.938  12.127  19.234  0.00  0.00    +0.000 A 
ATOM     22  N   UNL     1      -0.923  12.467  18.456  0.00  0.00    +0.000 NA
BRANCH  21  23
ATOM     23  C   UNL     1      -3.292  11.944  18.758  0.00  0.00    +0.000 A 
ATOM     24  C   UNL     1      -3.715  11.377  17.565  0.00  0.00    +0.000 A 
ATOM     25  C   UNL     1      -5.136  11.335  17.441  0.00  0.00    +0.000 A 
ATOM     26  C   UNL     1      -5.760  11.883  18.536  0.00  0.00    +0.000 A 
ATOM     27  S   UNL     1      -4.641  12.447  19.698  0.00  0.00    +0.000 S 
ENDBRANCH  21  23
ENDBRANCH   2  18
TORSDOF 3
ENDMDL
MODEL 9
REMARK VINA RESULT:      -5.7      3.737      7.854
REMARK  Name = 
REMARK  3 active torsions:
REMARK  status: ('A' for Active; 'I' for Inactive)
REMARK    1  A    between atoms: C_2  and  C_3
REMARK    2  A    between atoms: C_6  and  C_7
REMARK    3  A    between atoms: C_21  and  C_22
REMARK                            x       y       z     vdW  Elec       q    Type
REMARK                         _______ _______ _______ _____ _____    ______ ____
ROOT
ATOM      1  O   UNL     1       1.496  13.197  21.620  0.00  0.00    +0.000 OA
ATOM      2  C   UNL     1       0.525  12.672  21.075  0.00  0.00    +0.000 C 
ATOM      3  N   UNL     1      -0.509  13.477  20.601  0.00  0.00    +0.000 N 
ATOM      4  C   UNL     1      -0.381  14.932  20.955  0.00  0.00    +0.000 C 
ATOM      5  C   UNL     1      -1.438  15.866  20.284  0.00  0.00    +0.000 C 
ATOM      6  C   UNL     1      -2.761  15.282  20.695  0.00  0.00    +0.000 A 
ATOM      7  S   UNL     1      -4.008  16.140  21.429  0.00  0.00    +0.000 S 
ATOM      8  C   UNL     1      -4.606  14.686  22.114  0.00  0.00    +0.000 A 
ATOM      9  C   UNL     1      -3.940  13.562  21.648  0.00  0.00    +0.000 A 
ATOM     10  C   UNL     1      -2.921  13.901  20.702  0.00  0.00    +0.000 A 
ATOM     11  C   UNL     1      -1.814  13.113  20.005  0.00  0.00    +0.000 C 
ENDROOT
BRANCH  11  12
ATOM     12  C   UNL     1      -2.169  12.124  18.907  0.00  0.00    +0.000 A 
ATOM     13  C   UNL     1      -3.517  11.693  18.821  0.00  0.00    +0.000 A 
ATOM     14  C   UNL     1      -3.876  10.543  18.130  0.00  0.00    +0.000 A 
ATOM     15  C   UNL     1      -2.901   9.782  17.492  0.00  0.00    +0.000 A 
ATOM     16  C   UNL     1      -1.574  10.205  17.518  0.00  0.00    +0.000 A 
ATOM     17  C   UNL     1      -1.209  11.368  18.211  0.00  0.00    +0.000 A 
ENDBRANCH  11  12
BRANCH   2  18
ATOM     18  C   UNL     1       0.538  11.215  20.882  0.00  0.00    +0.000 A 
ATOM     19  C   UNL     1      -0.324  10.407  21.606  0.00  0.00    +0.000 A 
ATOM     20  S   UNL     1      -0.073   8.763  21.233  0.00  0.00    +0.000 S 
ATOM     21  C   UNL     1       1.139   9.216  20.096  0.00  0.00    +0.000 A 
ATOM     22  N   UNL     1       1.343  10.518  19.984  0.00  0.00    +0.000 NA
BRANCH  21  23
ATOM     23  C   UNL     1       1.856   8.219  19.330  0.00  0.00    +0.000 A 
ATOM     24  C   UNL     1       2.350   8.319  18.037  0.00  0.00    +0.000 A 
ATOM     25  C   UNL     1       3.034   7.141  17.611  0.00  0.00    +0.000 A 
ATOM     26  C   UNL     1       3.032   6.169  18.581  0.00  0.00    +0.000 A 
ATOM     27  S   UNL     1       2.208   6.672  19.992  0.00  0.00    +0.000 S 
ENDBRANCH  21  23
ENDBRANCH   2  18
TORSDOF 3
ENDMDL
