MODEL 1
REMARK VINA RESULT:      -7.0      0.000      0.000
REMARK  Name = 
REMARK  8 active torsions:
REMARK  status: ('A' for Active; 'I' for Inactive)
REMARK    1  A    between atoms: C_1  and  C_2
REMARK    2  A    between atoms: N_4  and  C_5
REMARK    3  A    between atoms: C_8  and  N_9
REMARK    4  A    between atoms: C_10  and  C_12
REMARK    5  A    between atoms: C_12  and  O_13
REMARK    6  A    between atoms: O_13  and  C_14
REMARK    7  A    between atoms: C_14  and  C_16
REMARK    8  A    between atoms: C_16  and  C_17
REMARK                            x       y       z     vdW  Elec       q    Type
REMARK                         _______ _______ _______ _____ _____    ______ ____
ROOT
ATOM      1  N   UNL     1       2.696   5.705  20.382  0.00  0.00    +0.000 N 
ATOM      2  C   UNL     1       1.988   4.517  20.498  0.00  0.00    +0.000 C 
ATOM      3  O   UNL     1       0.778   4.366  20.336  0.00  0.00    +0.000 OA
ATOM      4  H   UNL     1       3.676   5.691  20.646  0.00  0.00    +0.000 HD
ENDROOT
BRANCH   1   8
ATOM      5  C   UNL     1       1.062   9.503  19.407  0.00  0.00    +0.000 A 
ATOM      6  C   UNL     1       1.771   8.774  18.457  0.00  0.00    +0.000 A 
ATOM      7  C   UNL     1       2.320   7.526  18.765  0.00  0.00    +0.000 A 
ATOM      8  C   UNL     1       2.166   6.967  20.030  0.00  0.00    +0.000 A 
ATOM      9  C   UNL     1       1.458   7.696  20.995  0.00  0.00    +0.000 A 
ATOM     10  C   UNL     1       0.925   8.963  20.689  0.00  0.00    +0.000 A 
BRANCH   5  14
ATOM     11  C   UNL     1      -0.993  12.452  18.258  0.00  0.00    +0.000 C 
ATOM     12  C   UNL     1      -0.723  10.992  18.509  0.00  0.00    +0.000 C 
ATOM     13  O   UNL     1      -1.546  10.147  18.174  0.00  0.00    +0.000 OA
ATOM     14  N   UNL     1       0.498  10.767  19.129  0.00  0.00    +0.000 N 
ATOM     15  H   UNL     1       0.995  11.574  19.481  0.00  0.00    +0.000 HD
ENDBRANCH   5  14
ENDBRANCH   1   8
BRANCH   2  16
ATOM     16  C   UNL     1       2.847   3.306  20.869  0.00  0.00    +0.000 C 
BRANCH  16  17
ATOM     17  O   UNL     1       3.232   2.559  19.717  0.00  0.00    +0.000 OA
BRANCH  17  18
ATOM     18  C   UNL     1       4.214   3.144  18.973  0.00  0.00    +0.000 C 
ATOM     19  O   UNL     1       5.258   3.580  19.442  0.00  0.00    +0.000 OA
BRANCH  18  20
ATOM     20  C   UNL     1       3.788   3.227  17.525  0.00  0.00    +0.000 C 
BRANCH  20  21
ATOM     21  C   UNL     1       4.563   4.272  16.783  0.00  0.00    +0.000 A 
ATOM     22  C   UNL     1       4.440   5.647  16.853  0.00  0.00    +0.000 A 
ATOM     23  C   UNL     1       5.414   6.319  16.058  0.00  0.00    +0.000 A 
ATOM     24  C   UNL     1       6.245   5.437  15.405  0.00  0.00    +0.000 A 
ATOM     25  S   UNL     1       5.839   3.810  15.737  0.00  0.00    +0.000 S 
ENDBRANCH  20  21
ENDBRANCH  18  20
ENDBRANCH  17  18
ENDBRANCH  16  17
ENDBRANCH   2  16
TORSDOF 7
ENDMDL
MODEL 2
REMARK VINA RESULT:      -7.0      1.100      1.485
REMARK  Name = 
REMARK  8 active torsions:
REMARK  status: ('A' for Active; 'I' for Inactive)
REMARK    1  A    between atoms: C_1  and  C_2
REMARK    2  A    between atoms: N_4  and  C_5
REMARK    3  A    between atoms: C_8  and  N_9
REMARK    4  A    between atoms: C_10  and  C_12
REMARK    5  A    between atoms: C_12  and  O_13
REMARK    6  A    between atoms: O_13  and  C_14
REMARK    7  A    between atoms: C_14  and  C_16
REMARK    8  A    between atoms: C_16  and  C_17
REMARK                            x       y       z     vdW  Elec       q    Type
REMARK                         _______ _______ _______ _____ _____    ______ ____
ROOT
ATOM      1  N   UNL     1       2.725   6.144  20.267  0.00  0.00    +0.000 N 
ATOM      2  C   UNL     1       2.080   4.940  20.510  0.00  0.00    +0.000 C 
ATOM      3  O   UNL     1       0.870   4.731  20.446  0.00  0.00    +0.000 OA
ATOM      4  H   UNL     1       3.722   6.187  20.460  0.00  0.00    +0.000 HD
ENDROOT
BRANCH   1   8
ATOM      5  C   UNL     1       0.944   9.790  19.012  0.00  0.00    +0.000 A 
ATOM      6  C   UNL     1       0.754   9.321  20.308  0.00  0.00    +0.000 A 
ATOM      7  C   UNL     1       1.328   8.120  20.733  0.00  0.00    +0.000 A 
ATOM      8  C   UNL     1       2.117   7.359  19.876  0.00  0.00    +0.000 A 
ATOM      9  C   UNL     1       2.310   7.821  18.567  0.00  0.00    +0.000 A 
ATOM     10  C   UNL     1       1.712   9.021  18.135  0.00  0.00    +0.000 A 
BRANCH   5  14
ATOM     11  C   UNL     1      -0.042  13.358  18.275  0.00  0.00    +0.000 C 
ATOM     12  C   UNL     1       0.848  12.273  18.823  0.00  0.00    +0.000 C 
ATOM     13  O   UNL     1       1.870  12.566  19.434  0.00  0.00    +0.000 OA
ATOM     14  N   UNL     1       0.375  10.997  18.550  0.00  0.00    +0.000 N 
ATOM     15  H   UNL     1      -0.399  10.918  17.904  0.00  0.00    +0.000 HD
ENDBRANCH   5  14
ENDBRANCH   1   8
BRANCH   2  16
ATOM     16  C   UNL     1       3.017   3.792  20.893  0.00  0.00    +0.000 C 
BRANCH  16  17
ATOM     17  O   UNL     1       3.210   2.884  19.810  0.00  0.00    +0.000 OA
BRANCH  17  18
ATOM     18  C   UNL     1       4.289   3.172  19.026  0.00  0.00    +0.000 C 
ATOM     19  O   UNL     1       5.394   3.465  19.466  0.00  0.00    +0.000 OA
BRANCH  18  20
ATOM     20  C   UNL     1       3.893   3.138  17.567  0.00  0.00    +0.000 C 
BRANCH  20  21
ATOM     21  C   UNL     1       4.569   4.225  16.790  0.00  0.00    +0.000 A 
ATOM     22  C   UNL     1       4.415   5.593  16.910  0.00  0.00    +0.000 A 
ATOM     23  C   UNL     1       5.294   6.315  16.051  0.00  0.00    +0.000 A 
ATOM     24  C   UNL     1       6.085   5.476  15.300  0.00  0.00    +0.000 A 
ATOM     25  S   UNL     1       5.756   3.830  15.619  0.00  0.00    +0.000 S 
ENDBRANCH  20  21
ENDBRANCH  18  20
ENDBRANCH  17  18
ENDBRANCH  16  17
ENDBRANCH   2  16
TORSDOF 7
ENDMDL
MODEL 3
REMARK VINA RESULT:      -6.9      0.954      1.236
REMARK  Name = 
REMARK  8 active torsions:
REMARK  status: ('A' for Active; 'I' for Inactive)
REMARK    1  A    between atoms: C_1  and  C_2
REMARK    2  A    between atoms: N_4  and  C_5
REMARK    3  A    between atoms: C_8  and  N_9
REMARK    4  A    between atoms: C_10  and  C_12
REMARK    5  A    between atoms: C_12  and  O_13
REMARK    6  A    between atoms: O_13  and  C_14
REMARK    7  A    between atoms: C_14  and  C_16
REMARK    8  A    between atoms: C_16  and  C_17
REMARK                            x       y       z     vdW  Elec       q    Type
REMARK                         _______ _______ _______ _____ _____    ______ ____
ROOT
ATOM      1  N   UNL     1       2.938   5.818  19.967  0.00  0.00    +0.000 N 
ATOM      2  C   UNL     1       2.311   4.582  20.020  0.00  0.00    +0.000 C 
ATOM      3  O   UNL     1       1.112   4.361  19.856  0.00  0.00    +0.000 OA
ATOM      4  H   UNL     1       3.920   5.854  20.225  0.00  0.00    +0.000 HD
ENDROOT
BRANCH   1   8
ATOM      5  C   UNL     1       1.056   9.551  19.219  0.00  0.00    +0.000 A 
ATOM      6  C   UNL     1       1.729   8.883  18.200  0.00  0.00    +0.000 A 
ATOM      7  C   UNL     1       2.359   7.657  18.433  0.00  0.00    +0.000 A 
ATOM      8  C   UNL     1       2.324   7.061  19.690  0.00  0.00    +0.000 A 
ATOM      9  C   UNL     1       1.653   7.728  20.723  0.00  0.00    +0.000 A 
ATOM     10  C   UNL     1       1.038   8.974  20.491  0.00  0.00    +0.000 A 
BRANCH   5  14
ATOM     11  C   UNL     1      -1.187  12.428  18.253  0.00  0.00    +0.000 C 
ATOM     12  C   UNL     1      -0.825  10.976  18.418  0.00  0.00    +0.000 C 
ATOM     13  O   UNL     1      -1.598  10.102  18.039  0.00  0.00    +0.000 OA
ATOM     14  N   UNL     1       0.412  10.792  19.017  0.00  0.00    +0.000 N 
ATOM     15  H   UNL     1       0.862  11.607  19.413  0.00  0.00    +0.000 HD
ENDBRANCH   5  14
ENDBRANCH   1   8
BRANCH   2  16
ATOM     16  C   UNL     1       3.251   3.411  20.318  0.00  0.00    +0.000 C 
BRANCH  16  17
ATOM     17  O   UNL     1       4.237   3.254  19.299  0.00  0.00    +0.000 OA
BRANCH  17  18
ATOM     18  C   UNL     1       3.766   2.695  18.148  0.00  0.00    +0.000 C 
ATOM     19  O   UNL     1       3.543   1.499  18.010  0.00  0.00    +0.000 OA
BRANCH  18  20
ATOM     20  C   UNL     1       3.630   3.753  17.076  0.00  0.00    +0.000 C 
BRANCH  20  21
ATOM     21  C   UNL     1       4.965   4.297  16.670  0.00  0.00    +0.000 A 
ATOM     22  C   UNL     1       5.864   3.779  15.756  0.00  0.00    +0.000 A 
ATOM     23  C   UNL     1       6.996   4.626  15.571  0.00  0.00    +0.000 A 
ATOM     24  C   UNL     1       6.928   5.757  16.352  0.00  0.00    +0.000 A 
ATOM     25  S   UNL     1       5.515   5.787  17.313  0.00  0.00    +0.000 S 
ENDBRANCH  20  21
ENDBRANCH  18  20
ENDBRANCH  17  18
ENDBRANCH  16  17
ENDBRANCH   2  16
TORSDOF 7
ENDMDL
MODEL 4
REMARK VINA RESULT:      -6.8      0.768      1.260
REMARK  Name = 
REMARK  8 active torsions:
REMARK  status: ('A' for Active; 'I' for Inactive)
REMARK    1  A    between atoms: C_1  and  C_2
REMARK    2  A    between atoms: N_4  and  C_5
REMARK    3  A    between atoms: C_8  and  N_9
REMARK    4  A    between atoms: C_10  and  C_12
REMARK    5  A    between atoms: C_12  and  O_13
REMARK    6  A    between atoms: O_13  and  C_14
REMARK    7  A    between atoms: C_14  and  C_16
REMARK    8  A    between atoms: C_16  and  C_17
REMARK                            x       y       z     vdW  Elec       q    Type
REMARK                         _______ _______ _______ _____ _____    ______ ____
ROOT
ATOM      1  N   UNL     1       2.605   5.925  20.187  0.00  0.00    +0.000 N 
ATOM      2  C   UNL     1       1.885   4.760  20.406  0.00  0.00    +0.000 C 
ATOM      3  O   UNL     1       0.660   4.653  20.452  0.00  0.00    +0.000 OA
ATOM      4  H   UNL     1       3.616   5.873  20.278  0.00  0.00    +0.000 HD
ENDROOT
BRANCH   1   8
ATOM      5  C   UNL     1       1.038   9.792  19.394  0.00  0.00    +0.000 A 
ATOM      6  C   UNL     1       0.879   9.209  20.648  0.00  0.00    +0.000 A 
ATOM      7  C   UNL     1       1.383   7.935  20.921  0.00  0.00    +0.000 A 
ATOM      8  C   UNL     1       2.070   7.212  19.951  0.00  0.00    +0.000 A 
ATOM      9  C   UNL     1       2.231   7.789  18.684  0.00  0.00    +0.000 A 
ATOM     10  C   UNL     1       1.703   9.064  18.404  0.00  0.00    +0.000 A 
BRANCH   5  14
ATOM     11  C   UNL     1      -0.941  12.816  18.305  0.00  0.00    +0.000 C 
ATOM     12  C   UNL     1      -0.750  11.364  18.657  0.00  0.00    +0.000 C 
ATOM     13  O   UNL     1      -1.685  10.577  18.552  0.00  0.00    +0.000 OA
ATOM     14  N   UNL     1       0.538  11.076  19.085  0.00  0.00    +0.000 N 
ATOM     15  H   UNL     1       1.153  11.859  19.264  0.00  0.00    +0.000 HD
ENDBRANCH   5  14
ENDBRANCH   1   8
BRANCH   2  16
ATOM     16  C   UNL     1       2.751   3.513  20.605  0.00  0.00    +0.000 C 
BRANCH  16  17
ATOM     17  O   UNL     1       3.113   2.917  19.361  0.00  0.00    +0.000 OA
BRANCH  17  18
ATOM     18  C   UNL     1       4.387   3.192  18.961  0.00  0.00    +0.000 C 
ATOM     19  O   UNL     1       5.360   3.157  19.704  0.00  0.00    +0.000 OA
BRANCH  18  20
ATOM     20  C   UNL     1       4.396   3.599  17.505  0.00  0.00    +0.000 C 
BRANCH  20  21
ATOM     21  C   UNL     1       5.278   4.787  17.273  0.00  0.00    +0.000 A 
ATOM     22  C   UNL     1       4.958   6.129  17.364  0.00  0.00    +0.000 A 
ATOM     23  C   UNL     1       6.089   6.971  17.154  0.00  0.00    +0.000 A 
ATOM     24  C   UNL     1       7.232   6.246  16.903  0.00  0.00    +0.000 A 
ATOM     25  S   UNL     1       6.937   4.563  16.906  0.00  0.00    +0.000 S 
ENDBRANCH  20  21
ENDBRANCH  18  20
ENDBRANCH  17  18
ENDBRANCH  16  17
ENDBRANCH   2  16
TORSDOF 7
ENDMDL
MODEL 5
REMARK VINA RESULT:      -6.7      1.111      1.328
REMARK  Name = 
REMARK  8 active torsions:
REMARK  status: ('A' for Active; 'I' for Inactive)
REMARK    1  A    between atoms: C_1  and  C_2
REMARK    2  A    between atoms: N_4  and  C_5
REMARK    3  A    between atoms: C_8  and  N_9
REMARK    4  A    between atoms: C_10  and  C_12
REMARK    5  A    between atoms: C_12  and  O_13
REMARK    6  A    between atoms: O_13  and  C_14
REMARK    7  A    between atoms: C_14  and  C_16
REMARK    8  A    between atoms: C_16  and  C_17
REMARK                            x       y       z     vdW  Elec       q    Type
REMARK                         _______ _______ _______ _____ _____    ______ ____
ROOT
ATOM      1  N   UNL     1       3.080   6.028  19.697  0.00  0.00    +0.000 N 
ATOM      2  C   UNL     1       2.543   4.749  19.657  0.00  0.00    +0.000 C 
ATOM      3  O   UNL     1       1.365   4.455  19.465  0.00  0.00    +0.000 OA
ATOM      4  H   UNL     1       4.056   6.116  19.967  0.00  0.00    +0.000 HD
ENDROOT
BRANCH   1   8
ATOM      5  C   UNL     1       0.941   9.662  19.186  0.00  0.00    +0.000 A 
ATOM      6  C   UNL     1       1.630   9.092  18.120  0.00  0.00    +0.000 A 
ATOM      7  C   UNL     1       2.344   7.901  18.274  0.00  0.00    +0.000 A 
ATOM      8  C   UNL     1       2.380   7.240  19.498  0.00  0.00    +0.000 A 
ATOM      9  C   UNL     1       1.693   7.808  20.579  0.00  0.00    +0.000 A 
ATOM     10  C   UNL     1       0.992   9.021  20.426  0.00  0.00    +0.000 A 
BRANCH   5  14
ATOM     11  C   UNL     1      -1.537  12.417  18.470  0.00  0.00    +0.000 C 
ATOM     12  C   UNL     1      -1.080  10.986  18.575  0.00  0.00    +0.000 C 
ATOM     13  O   UNL     1      -1.831  10.074  18.245  0.00  0.00    +0.000 OA
ATOM     14  N   UNL     1       0.213  10.866  19.064  0.00  0.00    +0.000 N 
ATOM     15  H   UNL     1       0.648  11.700  19.436  0.00  0.00    +0.000 HD
ENDBRANCH   5  14
ENDBRANCH   1   8
BRANCH   2  16
ATOM     16  C   UNL     1       3.564   3.632  19.885  0.00  0.00    +0.000 C 
BRANCH  16  17
ATOM     17  O   UNL     1       4.524   3.571  18.832  0.00  0.00    +0.000 OA
BRANCH  17  18
ATOM     18  C   UNL     1       4.040   3.060  17.663  0.00  0.00    +0.000 C 
ATOM     19  O   UNL     1       3.074   2.310  17.594  0.00  0.00    +0.000 OA
BRANCH  18  20
ATOM     20  C   UNL     1       4.905   3.505  16.506  0.00  0.00    +0.000 C 
BRANCH  20  21
ATOM     21  C   UNL     1       5.613   4.789  16.810  0.00  0.00    +0.000 A 
ATOM     22  C   UNL     1       5.116   6.078  16.763  0.00  0.00    +0.000 A 
ATOM     23  C   UNL     1       6.069   7.042  17.206  0.00  0.00    +0.000 A 
ATOM     24  C   UNL     1       7.261   6.459  17.570  0.00  0.00    +0.000 A 
ATOM     25  S   UNL     1       7.234   4.763  17.363  0.00  0.00    +0.000 S 
ENDBRANCH  20  21
ENDBRANCH  18  20
ENDBRANCH  17  18
ENDBRANCH  16  17
ENDBRANCH   2  16
TORSDOF 7
ENDMDL
MODEL 6
REMARK VINA RESULT:      -6.7      2.335      3.707
REMARK  Name = 
REMARK  8 active torsions:
REMARK  status: ('A' for Active; 'I' for Inactive)
REMARK    1  A    between atoms: C_1  and  C_2
REMARK    2  A    between atoms: N_4  and  C_5
REMARK    3  A    between atoms: C_8  and  N_9
REMARK    4  A    between atoms: C_10  and  C_12
REMARK    5  A    between atoms: C_12  and  O_13
REMARK    6  A    between atoms: O_13  and  C_14
REMARK    7  A    between atoms: C_14  and  C_16
REMARK    8  A    between atoms: C_16  and  C_17
REMARK                            x       y       z     vdW  Elec       q    Type
REMARK                         _______ _______ _______ _____ _____    ______ ____
ROOT
ATOM      1  N   UNL     1       3.457   6.884  18.150  0.00  0.00    +0.000 N 
ATOM      2  C   UNL     1       3.201   5.626  17.625  0.00  0.00    +0.000 C 
ATOM      3  O   UNL     1       2.108   5.065  17.565  0.00  0.00    +0.000 OA
ATOM      4  H   UNL     1       4.429   7.171  18.222  0.00  0.00    +0.000 HD
ENDROOT
BRANCH   1   8
ATOM      5  C   UNL     1       0.606   9.616  19.716  0.00  0.00    +0.000 A 
ATOM      6  C   UNL     1       1.083   8.568  20.498  0.00  0.00    +0.000 A 
ATOM      7  C   UNL     1       2.016   7.657  19.994  0.00  0.00    +0.000 A 
ATOM      8  C   UNL     1       2.506   7.776  18.697  0.00  0.00    +0.000 A 
ATOM      9  C   UNL     1       2.028   8.826  17.901  0.00  0.00    +0.000 A 
ATOM     10  C   UNL     1       1.071   9.729  18.404  0.00  0.00    +0.000 A 
BRANCH   5  14
ATOM     11  C   UNL     1      -1.306  12.368  21.452  0.00  0.00    +0.000 C 
ATOM     12  C   UNL     1      -0.067  11.620  21.035  0.00  0.00    +0.000 C 
ATOM     13  O   UNL     1       1.034  11.982  21.437  0.00  0.00    +0.000 OA
ATOM     14  N   UNL     1      -0.338  10.550  20.194  0.00  0.00    +0.000 N 
ATOM     15  H   UNL     1      -1.279  10.474  19.830  0.00  0.00    +0.000 HD
ENDBRANCH   5  14
ENDBRANCH   1   8
BRANCH   2  16
ATOM     16  C   UNL     1       4.439   4.908  17.082  0.00  0.00    +0.000 C 
BRANCH  16  17
ATOM     17  O   UNL     1       4.622   3.634  17.696  0.00  0.00    +0.000 OA
BRANCH  17  18
ATOM     18  C   UNL     1       5.129   3.692  18.961  0.00  0.00    +0.000 C 
ATOM     19  O   UNL     1       6.016   4.462  19.307  0.00  0.00    +0.000 OA
BRANCH  18  20
ATOM     20  C   UNL     1       4.482   2.635  19.828  0.00  0.00    +0.000 C 
BRANCH  20  21
ATOM     21  C   UNL     1       2.992   2.777  19.845  0.00  0.00    +0.000 A 
ATOM     22  C   UNL     1       2.050   2.064  19.127  0.00  0.00    +0.000 A 
ATOM     23  C   UNL     1       0.716   2.425  19.474  0.00  0.00    +0.000 A 
ATOM     24  C   UNL     1       0.681   3.405  20.440  0.00  0.00    +0.000 A 
ATOM     25  S   UNL     1       2.249   3.894  20.912  0.00  0.00    +0.000 S 
ENDBRANCH  20  21
ENDBRANCH  18  20
ENDBRANCH  17  18
ENDBRANCH  16  17
ENDBRANCH   2  16
TORSDOF 7
ENDMDL
MODEL 7
REMARK VINA RESULT:      -6.7      1.108      1.321
REMARK  Name = 
REMARK  8 active torsions:
REMARK  status: ('A' for Active; 'I' for Inactive)
REMARK    1  A    between atoms: C_1  and  C_2
REMARK    2  A    between atoms: N_4  and  C_5
REMARK    3  A    between atoms: C_8  and  N_9
REMARK    4  A    between atoms: C_10  and  C_12
REMARK    5  A    between atoms: C_12  and  O_13
REMARK    6  A    between atoms: O_13  and  C_14
REMARK    7  A    between atoms: C_14  and  C_16
REMARK    8  A    between atoms: C_16  and  C_17
REMARK                            x       y       z     vdW  Elec       q    Type
REMARK                         _______ _______ _______ _____ _____    ______ ____
ROOT
ATOM      1  N   UNL     1       2.733   5.900  19.950  0.00  0.00    +0.000 N 
ATOM      2  C   UNL     1       1.991   4.792  20.330  0.00  0.00    +0.000 C 
ATOM      3  O   UNL     1       0.767   4.730  20.435  0.00  0.00    +0.000 OA
ATOM      4  H   UNL     1       3.744   5.827  20.008  0.00  0.00    +0.000 HD
ENDROOT
BRANCH   1   8
ATOM      5  C   UNL     1       1.162   9.715  18.938  0.00  0.00    +0.000 A 
ATOM      6  C   UNL     1       1.798   8.936  17.977  0.00  0.00    +0.000 A 
ATOM      7  C   UNL     1       2.326   7.682  18.296  0.00  0.00    +0.000 A 
ATOM      8  C   UNL     1       2.223   7.168  19.586  0.00  0.00    +0.000 A 
ATOM      9  C   UNL     1       1.588   7.947  20.562  0.00  0.00    +0.000 A 
ATOM     10  C   UNL     1       1.077   9.220  20.242  0.00  0.00    +0.000 A 
BRANCH   5  14
ATOM     11  C   UNL     1      -0.976  12.710  18.099  0.00  0.00    +0.000 C 
ATOM     12  C   UNL     1      -0.727  11.285  18.518  0.00  0.00    +0.000 C 
ATOM     13  O   UNL     1      -1.671  10.526  18.708  0.00  0.00    +0.000 OA
ATOM     14  N   UNL     1       0.622  10.987  18.648  0.00  0.00    +0.000 N 
ATOM     15  H   UNL     1       1.274  11.760  18.607  0.00  0.00    +0.000 HD
ENDBRANCH   5  14
ENDBRANCH   1   8
BRANCH   2  16
ATOM     16  C   UNL     1       2.830   3.550  20.641  0.00  0.00    +0.000 C 
BRANCH  16  17
ATOM     17  O   UNL     1       2.511   2.465  19.771  0.00  0.00    +0.000 OA
BRANCH  17  18
ATOM     18  C   UNL     1       2.721   2.729  18.450  0.00  0.00    +0.000 C 
ATOM     19  O   UNL     1       1.823   2.941  17.644  0.00  0.00    +0.000 OA
BRANCH  18  20
ATOM     20  C   UNL     1       4.198   2.654  18.135  0.00  0.00    +0.000 C 
BRANCH  20  21
ATOM     21  C   UNL     1       4.733   3.981  17.693  0.00  0.00    +0.000 A 
ATOM     22  C   UNL     1       4.398   4.715  16.570  0.00  0.00    +0.000 A 
ATOM     23  C   UNL     1       5.059   5.977  16.530  0.00  0.00    +0.000 A 
ATOM     24  C   UNL     1       5.881   6.163  17.618  0.00  0.00    +0.000 A 
ATOM     25  S   UNL     1       5.865   4.817  18.671  0.00  0.00    +0.000 S 
ENDBRANCH  20  21
ENDBRANCH  18  20
ENDBRANCH  17  18
ENDBRANCH  16  17
ENDBRANCH   2  16
TORSDOF 7
ENDMDL
MODEL 8
REMARK VINA RESULT:      -6.6      1.403      1.426
REMARK  Name = 
REMARK  8 active torsions:
REMARK  status: ('A' for Active; 'I' for Inactive)
REMARK    1  A    between atoms: C_1  and  C_2
REMARK    2  A    between atoms: N_4  and  C_5
REMARK    3  A    between atoms: C_8  and  N_9
REMARK    4  A    between atoms: C_10  and  C_12
REMARK    5  A    between atoms: C_12  and  O_13
REMARK    6  A    between atoms: O_13  and  C_14
REMARK    7  A    between atoms: C_14  and  C_16
REMARK    8  A    between atoms: C_16  and  C_17
REMARK                            x       y       z     vdW  Elec       q    Type
REMARK                         _______ _______ _______ _____ _____    ______ ____
ROOT
ATOM      1  N   UNL     1       2.635   6.394  20.024  0.00  0.00    +0.000 N 
ATOM      2  C   UNL     1       1.944   5.247  20.388  0.00  0.00    +0.000 C 
ATOM      3  O   UNL     1       0.723   5.111  20.434  0.00  0.00    +0.000 OA
ATOM      4  H   UNL     1       3.645   6.385  20.133  0.00  0.00    +0.000 HD
ENDROOT
BRANCH   1   8
ATOM      5  C   UNL     1       0.889  10.089  18.866  0.00  0.00    +0.000 A 
ATOM      6  C   UNL     1       1.581   9.314  17.940  0.00  0.00    +0.000 A 
ATOM      7  C   UNL     1       2.167   8.100  18.308  0.00  0.00    +0.000 A 
ATOM      8  C   UNL     1       2.067   7.621  19.611  0.00  0.00    +0.000 A 
ATOM      9  C   UNL     1       1.377   8.397  20.551  0.00  0.00    +0.000 A 
ATOM     10  C   UNL     1       0.806   9.631  20.183  0.00  0.00    +0.000 A 
BRANCH   5  14
ATOM     11  C   UNL     1      -0.155  13.692  18.450  0.00  0.00    +0.000 C 
ATOM     12  C   UNL     1       0.769  12.578  18.866  0.00  0.00    +0.000 C 
ATOM     13  O   UNL     1       1.823  12.835  19.440  0.00  0.00    +0.000 OA
ATOM     14  N   UNL     1       0.289  11.322  18.527  0.00  0.00    +0.000 N 
ATOM     15  H   UNL     1      -0.520  11.282  17.920  0.00  0.00    +0.000 HD
ENDBRANCH   5  14
ENDBRANCH   1   8
BRANCH   2  16
ATOM     16  C   UNL     1       2.842   4.066  20.763  0.00  0.00    +0.000 C 
BRANCH  16  17
ATOM     17  O   UNL     1       2.942   3.120  19.699  0.00  0.00    +0.000 OA
BRANCH  17  18
ATOM     18  C   UNL     1       4.212   2.930  19.239  0.00  0.00    +0.000 C 
ATOM     19  O   UNL     1       5.164   2.650  19.957  0.00  0.00    +0.000 OA
BRANCH  18  20
ATOM     20  C   UNL     1       4.266   3.181  17.749  0.00  0.00    +0.000 C 
BRANCH  20  21
ATOM     21  C   UNL     1       4.948   4.477  17.435  0.00  0.00    +0.000 A 
ATOM     22  C   UNL     1       4.383   5.669  17.022  0.00  0.00    +0.000 A 
ATOM     23  C   UNL     1       5.347   6.713  16.903  0.00  0.00    +0.000 A 
ATOM     24  C   UNL     1       6.615   6.283  17.222  0.00  0.00    +0.000 A 
ATOM     25  S   UNL     1       6.641   4.628  17.647  0.00  0.00    +0.000 S 
ENDBRANCH  20  21
ENDBRANCH  18  20
ENDBRANCH  17  18
ENDBRANCH  16  17
ENDBRANCH   2  16
TORSDOF 7
ENDMDL
MODEL 9
REMARK VINA RESULT:      -6.6      1.398      1.534
REMARK  Name = 
REMARK  8 active torsions:
REMARK  status: ('A' for Active; 'I' for Inactive)
REMARK    1  A    between atoms: C_1  and  C_2
REMARK    2  A    between atoms: N_4  and  C_5
REMARK    3  A    between atoms: C_8  and  N_9
REMARK    4  A    between atoms: C_10  and  C_12
REMARK    5  A    between atoms: C_12  and  O_13
REMARK    6  A    between atoms: O_13  and  C_14
REMARK    7  A    between atoms: C_14  and  C_16
REMARK    8  A    between atoms: C_16  and  C_17
REMARK                            x       y       z     vdW  Elec       q    Type
REMARK                         _______ _______ _______ _____ _____    ______ ____
ROOT
ATOM      1  N   UNL     1       2.803   6.049  19.925  0.00  0.00    +0.000 N 
ATOM      2  C   UNL     1       2.101   4.915  20.308  0.00  0.00    +0.000 C 
ATOM      3  O   UNL     1       0.879   4.800  20.382  0.00  0.00    +0.000 OA
ATOM      4  H   UNL     1       3.815   6.023  20.011  0.00  0.00    +0.000 HD
ENDROOT
BRANCH   1   8
ATOM      5  C   UNL     1       1.091   9.770  18.799  0.00  0.00    +0.000 A 
ATOM      6  C   UNL     1       1.805   9.012  17.875  0.00  0.00    +0.000 A 
ATOM      7  C   UNL     1       2.379   7.790  18.233  0.00  0.00    +0.000 A 
ATOM      8  C   UNL     1       2.247   7.286  19.523  0.00  0.00    +0.000 A 
ATOM      9  C   UNL     1       1.534   8.043  20.461  0.00  0.00    +0.000 A 
ATOM     10  C   UNL     1       0.975   9.286  20.104  0.00  0.00    +0.000 A 
BRANCH   5  14
ATOM     11  C   UNL     1       0.099  13.387  18.383  0.00  0.00    +0.000 C 
ATOM     12  C   UNL     1       1.018  12.261  18.774  0.00  0.00    +0.000 C 
ATOM     13  O   UNL     1       2.099  12.503  19.301  0.00  0.00    +0.000 OA
ATOM     14  N   UNL     1       0.501  11.010  18.470  0.00  0.00    +0.000 N 
ATOM     15  H   UNL     1      -0.333  10.979  17.897  0.00  0.00    +0.000 HD
ENDBRANCH   5  14
ENDBRANCH   1   8
BRANCH   2  16
ATOM     16  C   UNL     1       2.987   3.719  20.664  0.00  0.00    +0.000 C 
BRANCH  16  17
ATOM     17  O   UNL     1       4.096   3.600  19.776  0.00  0.00    +0.000 OA
BRANCH  17  18
ATOM     18  C   UNL     1       3.862   2.804  18.693  0.00  0.00    +0.000 C 
ATOM     19  O   UNL     1       3.799   1.582  18.744  0.00  0.00    +0.000 OA
BRANCH  18  20
ATOM     20  C   UNL     1       3.762   3.648  17.442  0.00  0.00    +0.000 C 
BRANCH  20  21
ATOM     21  C   UNL     1       5.108   4.131  16.997  0.00  0.00    +0.000 A 
ATOM     22  C   UNL     1       6.206   4.457  17.771  0.00  0.00    +0.000 A 
ATOM     23  C   UNL     1       7.343   4.797  16.982  0.00  0.00    +0.000 A 
ATOM     24  C   UNL     1       7.076   4.726  15.634  0.00  0.00    +0.000 A 
ATOM     25  S   UNL     1       5.460   4.266  15.325  0.00  0.00    +0.000 S 
ENDBRANCH  20  21
ENDBRANCH  18  20
ENDBRANCH  17  18
ENDBRANCH  16  17
ENDBRANCH   2  16
TORSDOF 7
ENDMDL
