MODEL 1
REMARK VINA RESULT:      -6.7      0.000      0.000
REMARK  Name = 
REMARK  8 active torsions:
REMARK  status: ('A' for Active; 'I' for Inactive)
REMARK    1  A    between atoms: C_1  and  C_2
REMARK    2  A    between atoms: C_2  and  O_3
REMARK    3  A    between atoms: O_3  and  C_4
REMARK    4  A    between atoms: C_8  and  N_9
REMARK    5  A    between atoms: N_12  and  C_13
REMARK    6  A    between atoms: N_12  and  C_14
REMARK    7  A    between atoms: C_14  and  C_15
REMARK    8  A    between atoms: C_18  and  C_19
REMARK                            x       y       z     vdW  Elec       q    Type
REMARK                         _______ _______ _______ _____ _____    ______ ____
ROOT
ATOM      1  N   UNL     1       2.269   7.101  18.886  0.00  0.00    +0.000 N 
ATOM      2  C   UNL     1       2.030   8.367  18.422  0.00  0.00    +0.000 C 
ATOM      3  O   UNL     1       2.379   8.701  17.292  0.00  0.00    +0.000 OA
ATOM      4  N   UNL     1       1.365   9.228  19.268  0.00  0.00    +0.000 N 
ATOM      5  C   UNL     1       0.954   8.966  20.639  0.00  0.00    +0.000 C 
ATOM      6  H   UNL     1       1.738   6.759  19.668  0.00  0.00    +0.000 HD
ENDROOT
BRANCH   1  11
ATOM      7  C   UNL     1       2.778   4.662  18.606  0.00  0.00    +0.000 C 
ATOM      8  C   UNL     1       3.922   4.616  19.620  0.00  0.00    +0.000 C 
ATOM      9  O   UNL     1       4.915   5.583  19.225  0.00  0.00    +0.000 OA
ATOM     10  C   UNL     1       4.430   6.256  18.051  0.00  0.00    +0.000 C 
ATOM     11  C   UNL     1       2.915   6.080  18.045  0.00  0.00    +0.000 C 
BRANCH   7  12
ATOM     12  O   UNL     1       2.963   3.709  17.542  0.00  0.00    +0.000 OA
BRANCH  12  14
ATOM     13  C   UNL     1       1.068   2.683  18.609  0.00  0.00    +0.000 C 
ATOM     14  C   UNL     1       2.335   2.453  17.808  0.00  0.00    +0.000 C 
ENDBRANCH  12  14
ENDBRANCH   7  12
ENDBRANCH   1  11
BRANCH   4  15
ATOM     15  C   UNL     1       1.005  10.544  18.730  0.00  0.00    +0.000 C 
BRANCH  15  16
ATOM     16  C   UNL     1      -0.451  10.636  18.400  0.00  0.00    +0.000 A 
ATOM     17  C   UNL     1      -1.220   9.785  17.633  0.00  0.00    +0.000 A 
ATOM     18  N   UNL     1      -2.575  10.061  17.598  0.00  0.00    +0.000 NA
ATOM     19  C   UNL     1      -2.836  11.148  18.296  0.00  0.00    +0.000 A 
ATOM     20  S   UNL     1      -1.461  11.851  19.067  0.00  0.00    +0.000 S 
BRANCH  19  21
ATOM     21  C   UNL     1      -4.185  11.716  18.476  0.00  0.00    +0.000 A 
ATOM     22  C   UNL     1      -5.136  11.574  17.451  0.00  0.00    +0.000 A 
ATOM     23  C   UNL     1      -6.419  12.117  17.578  0.00  0.00    +0.000 A 
ATOM     24  C   UNL     1      -6.767  12.820  18.728  0.00  0.00    +0.000 A 
ATOM     25  C   UNL     1      -5.837  12.977  19.752  0.00  0.00    +0.000 A 
ATOM     26  C   UNL     1      -4.557  12.429  19.628  0.00  0.00    +0.000 A 
ENDBRANCH  19  21
ENDBRANCH  15  16
ENDBRANCH   4  15
TORSDOF 6
ENDMDL
MODEL 2
REMARK VINA RESULT:      -6.6      4.410      6.691
REMARK  Name = 
REMARK  8 active torsions:
REMARK  status: ('A' for Active; 'I' for Inactive)
REMARK    1  A    between atoms: C_1  and  C_2
REMARK    2  A    between atoms: C_2  and  O_3
REMARK    3  A    between atoms: O_3  and  C_4
REMARK    4  A    between atoms: C_8  and  N_9
REMARK    5  A    between atoms: N_12  and  C_13
REMARK    6  A    between atoms: N_12  and  C_14
REMARK    7  A    between atoms: C_14  and  C_15
REMARK    8  A    between atoms: C_18  and  C_19
REMARK                            x       y       z     vdW  Elec       q    Type
REMARK                         _______ _______ _______ _____ _____    ______ ____
ROOT
ATOM      1  N   UNL     1       5.237   3.469  16.826  0.00  0.00    +0.000 N 
ATOM      2  C   UNL     1       4.822   3.519  18.131  0.00  0.00    +0.000 C 
ATOM      3  O   UNL     1       5.453   4.160  18.969  0.00  0.00    +0.000 OA
ATOM      4  N   UNL     1       3.663   2.844  18.446  0.00  0.00    +0.000 N 
ATOM      5  C   UNL     1       2.865   2.013  17.557  0.00  0.00    +0.000 C 
ATOM      6  H   UNL     1       4.579   3.199  16.115  0.00  0.00    +0.000 HD
ENDROOT
BRANCH   1  11
ATOM      7  C   UNL     1       6.235   5.723  16.375  0.00  0.00    +0.000 C 
ATOM      8  C   UNL     1       5.519   5.955  15.043  0.00  0.00    +0.000 C 
ATOM      9  O   UNL     1       5.843   4.862  14.160  0.00  0.00    +0.000 OA
ATOM     10  C   UNL     1       6.680   3.946  14.884  0.00  0.00    +0.000 C 
ATOM     11  C   UNL     1       6.426   4.204  16.366  0.00  0.00    +0.000 C 
BRANCH   7  12
ATOM     12  O   UNL     1       7.526   6.364  16.411  0.00  0.00    +0.000 OA
BRANCH  12  14
ATOM     13  C   UNL     1       8.027   6.608  18.751  0.00  0.00    +0.000 C 
ATOM     14  C   UNL     1       7.639   7.320  17.469  0.00  0.00    +0.000 C 
ENDBRANCH  12  14
ENDBRANCH   7  12
ENDBRANCH   1  11
BRANCH   4  15
ATOM     15  C   UNL     1       3.155   2.994  19.813  0.00  0.00    +0.000 C 
BRANCH  15  16
ATOM     16  C   UNL     1       2.590   4.358  20.055  0.00  0.00    +0.000 A 
ATOM     17  C   UNL     1       2.095   4.894  21.227  0.00  0.00    +0.000 A 
ATOM     18  N   UNL     1       1.745   6.231  21.179  0.00  0.00    +0.000 NA
ATOM     19  C   UNL     1       1.924   6.706  19.962  0.00  0.00    +0.000 A 
ATOM     20  S   UNL     1       2.574   5.567  18.839  0.00  0.00    +0.000 S 
BRANCH  19  21
ATOM     21  C   UNL     1       1.658   8.101  19.566  0.00  0.00    +0.000 A 
ATOM     22  C   UNL     1       0.957   8.945  20.444  0.00  0.00    +0.000 A 
ATOM     23  C   UNL     1       0.669  10.269  20.095  0.00  0.00    +0.000 A 
ATOM     24  C   UNL     1       1.069  10.765  18.857  0.00  0.00    +0.000 A 
ATOM     25  C   UNL     1       1.760   9.943  17.971  0.00  0.00    +0.000 A 
ATOM     26  C   UNL     1       2.054   8.622  18.323  0.00  0.00    +0.000 A 
ENDBRANCH  19  21
ENDBRANCH  15  16
ENDBRANCH   4  15
TORSDOF 6
ENDMDL
MODEL 3
REMARK VINA RESULT:      -6.6      0.557      1.193
REMARK  Name = 
REMARK  8 active torsions:
REMARK  status: ('A' for Active; 'I' for Inactive)
REMARK    1  A    between atoms: C_1  and  C_2
REMARK    2  A    between atoms: C_2  and  O_3
REMARK    3  A    between atoms: O_3  and  C_4
REMARK    4  A    between atoms: C_8  and  N_9
REMARK    5  A    between atoms: N_12  and  C_13
REMARK    6  A    between atoms: N_12  and  C_14
REMARK    7  A    between atoms: C_14  and  C_15
REMARK    8  A    between atoms: C_18  and  C_19
REMARK                            x       y       z     vdW  Elec       q    Type
REMARK                         _______ _______ _______ _____ _____    ______ ____
ROOT
ATOM      1  N   UNL     1       2.070   7.392  19.045  0.00  0.00    +0.000 N 
ATOM      2  C   UNL     1       1.789   8.615  18.496  0.00  0.00    +0.000 C 
ATOM      3  O   UNL     1       2.068   8.859  17.324  0.00  0.00    +0.000 OA
ATOM      4  N   UNL     1       1.164   9.537  19.307  0.00  0.00    +0.000 N 
ATOM      5  C   UNL     1       0.835   9.383  20.717  0.00  0.00    +0.000 C 
ATOM      6  H   UNL     1       1.588   7.111  19.882  0.00  0.00    +0.000 HD
ENDROOT
BRANCH   1  11
ATOM      7  C   UNL     1       2.205   4.917  18.673  0.00  0.00    +0.000 C 
ATOM      8  C   UNL     1       3.122   4.623  19.862  0.00  0.00    +0.000 C 
ATOM      9  O   UNL     1       4.317   5.414  19.717  0.00  0.00    +0.000 OA
ATOM     10  C   UNL     1       4.174   6.214  18.531  0.00  0.00    +0.000 C 
ATOM     11  C   UNL     1       2.678   6.312  18.253  0.00  0.00    +0.000 C 
BRANCH   7  12
ATOM     12  O   UNL     1       2.419   3.995  17.587  0.00  0.00    +0.000 OA
BRANCH  12  14
ATOM     13  C   UNL     1       3.484   1.856  17.869  0.00  0.00    +0.000 C 
ATOM     14  C   UNL     1       2.185   2.635  17.962  0.00  0.00    +0.000 C 
ENDBRANCH  12  14
ENDBRANCH   7  12
ENDBRANCH   1  11
BRANCH   4  15
ATOM     15  C   UNL     1       0.758  10.803  18.688  0.00  0.00    +0.000 C 
BRANCH  15  16
ATOM     16  C   UNL     1      -0.705  10.833  18.379  0.00  0.00    +0.000 A 
ATOM     17  C   UNL     1      -1.424  10.035  17.513  0.00  0.00    +0.000 A 
ATOM     18  N   UNL     1      -2.795  10.216  17.520  0.00  0.00    +0.000 NA
ATOM     19  C   UNL     1      -3.122  11.184  18.355  0.00  0.00    +0.000 A 
ATOM     20  S   UNL     1      -1.788  11.877  19.203  0.00  0.00    +0.000 S 
BRANCH  19  21
ATOM     21  C   UNL     1      -4.504  11.627  18.613  0.00  0.00    +0.000 A 
ATOM     22  C   UNL     1      -4.760  12.498  19.686  0.00  0.00    +0.000 A 
ATOM     23  C   UNL     1      -6.062  12.923  19.974  0.00  0.00    +0.000 A 
ATOM     24  C   UNL     1      -7.128  12.474  19.200  0.00  0.00    +0.000 A 
ATOM     25  C   UNL     1      -6.896  11.606  18.137  0.00  0.00    +0.000 A 
ATOM     26  C   UNL     1      -5.594  11.186  17.844  0.00  0.00    +0.000 A 
ENDBRANCH  19  21
ENDBRANCH  15  16
ENDBRANCH   4  15
TORSDOF 6
ENDMDL
MODEL 4
REMARK VINA RESULT:      -6.6      3.336      5.226
REMARK  Name = 
REMARK  8 active torsions:
REMARK  status: ('A' for Active; 'I' for Inactive)
REMARK    1  A    between atoms: C_1  and  C_2
REMARK    2  A    between atoms: C_2  and  O_3
REMARK    3  A    between atoms: O_3  and  C_4
REMARK    4  A    between atoms: C_8  and  N_9
REMARK    5  A    between atoms: N_12  and  C_13
REMARK    6  A    between atoms: N_12  and  C_14
REMARK    7  A    between atoms: C_14  and  C_15
REMARK    8  A    between atoms: C_18  and  C_19
REMARK                            x       y       z     vdW  Elec       q    Type
REMARK                         _______ _______ _______ _____ _____    ______ ____
ROOT
ATOM      1  N   UNL     1       4.288   4.680  17.602  0.00  0.00    +0.000 N 
ATOM      2  C   UNL     1       3.885   5.099  18.842  0.00  0.00    +0.000 C 
ATOM      3  O   UNL     1       4.690   5.574  19.640  0.00  0.00    +0.000 OA
ATOM      4  N   UNL     1       2.543   4.986  19.136  0.00  0.00    +0.000 N 
ATOM      5  C   UNL     1       1.510   4.394  18.299  0.00  0.00    +0.000 C 
ATOM      6  H   UNL     1       3.601   4.573  16.876  0.00  0.00    +0.000 HD
ENDROOT
BRANCH   1  11
ATOM      7  C   UNL     1       5.965   6.135  16.440  0.00  0.00    +0.000 C 
ATOM      8  C   UNL     1       5.496   5.822  15.018  0.00  0.00    +0.000 C 
ATOM      9  O   UNL     1       5.561   4.395  14.825  0.00  0.00    +0.000 OA
ATOM     10  C   UNL     1       6.000   3.804  16.059  0.00  0.00    +0.000 C 
ATOM     11  C   UNL     1       5.684   4.813  17.159  0.00  0.00    +0.000 C 
BRANCH   7  12
ATOM     12  O   UNL     1       7.378   6.414  16.492  0.00  0.00    +0.000 OA
BRANCH  12  14
ATOM     13  C   UNL     1       7.941   8.387  17.748  0.00  0.00    +0.000 C 
ATOM     14  C   UNL     1       7.805   6.877  17.776  0.00  0.00    +0.000 C 
ENDBRANCH  12  14
ENDBRANCH   7  12
ENDBRANCH   1  11
BRANCH   4  15
ATOM     15  C   UNL     1       2.092   5.542  20.416  0.00  0.00    +0.000 C 
BRANCH  15  16
ATOM     16  C   UNL     1       1.721   6.986  20.300  0.00  0.00    +0.000 A 
ATOM     17  C   UNL     1       1.970   7.865  19.265  0.00  0.00    +0.000 A 
ATOM     18  N   UNL     1       1.400   9.118  19.386  0.00  0.00    +0.000 NA
ATOM     19  C   UNL     1       0.756   9.218  20.533  0.00  0.00    +0.000 A 
ATOM     20  S   UNL     1       0.770   7.780  21.488  0.00  0.00    +0.000 S 
BRANCH  19  21
ATOM     21  C   UNL     1       0.025  10.419  20.974  0.00  0.00    +0.000 A 
ATOM     22  C   UNL     1      -0.344  10.547  22.324  0.00  0.00    +0.000 A 
ATOM     23  C   UNL     1      -1.056  11.663  22.775  0.00  0.00    +0.000 A 
ATOM     24  C   UNL     1      -1.421  12.664  21.879  0.00  0.00    +0.000 A 
ATOM     25  C   UNL     1      -1.071  12.554  20.536  0.00  0.00    +0.000 A 
ATOM     26  C   UNL     1      -0.353  11.441  20.087  0.00  0.00    +0.000 A 
ENDBRANCH  19  21
ENDBRANCH  15  16
ENDBRANCH   4  15
TORSDOF 6
ENDMDL
MODEL 5
REMARK VINA RESULT:      -6.4      4.572      6.727
REMARK  Name = 
REMARK  8 active torsions:
REMARK  status: ('A' for Active; 'I' for Inactive)
REMARK    1  A    between atoms: C_1  and  C_2
REMARK    2  A    between atoms: C_2  and  O_3
REMARK    3  A    between atoms: O_3  and  C_4
REMARK    4  A    between atoms: C_8  and  N_9
REMARK    5  A    between atoms: N_12  and  C_13
REMARK    6  A    between atoms: N_12  and  C_14
REMARK    7  A    between atoms: C_14  and  C_15
REMARK    8  A    between atoms: C_18  and  C_19
REMARK                            x       y       z     vdW  Elec       q    Type
REMARK                         _______ _______ _______ _____ _____    ______ ____
ROOT
ATOM      1  N   UNL     1       5.507   3.642  17.017  0.00  0.00    +0.000 N 
ATOM      2  C   UNL     1       5.119   3.679  18.330  0.00  0.00    +0.000 C 
ATOM      3  O   UNL     1       5.708   4.389  19.142  0.00  0.00    +0.000 OA
ATOM      4  N   UNL     1       4.034   2.907  18.684  0.00  0.00    +0.000 N 
ATOM      5  C   UNL     1       3.295   1.990  17.829  0.00  0.00    +0.000 C 
ATOM      6  H   UNL     1       4.860   3.301  16.327  0.00  0.00    +0.000 HD
ENDROOT
BRANCH   1  11
ATOM      7  C   UNL     1       6.334   5.975  16.623  0.00  0.00    +0.000 C 
ATOM      8  C   UNL     1       5.509   6.230  15.360  0.00  0.00    +0.000 C 
ATOM      9  O   UNL     1       5.829   5.207  14.397  0.00  0.00    +0.000 OA
ATOM     10  C   UNL     1       6.771   4.308  15.007  0.00  0.00    +0.000 C 
ATOM     11  C   UNL     1       6.612   4.473  16.515  0.00  0.00    +0.000 C 
BRANCH   7  12
ATOM     12  O   UNL     1       7.584   6.693  16.603  0.00  0.00    +0.000 OA
BRANCH  12  14
ATOM     13  C   UNL     1       7.956   8.785  17.731  0.00  0.00    +0.000 C 
ATOM     14  C   UNL     1       7.907   7.275  17.869  0.00  0.00    +0.000 C 
ENDBRANCH  12  14
ENDBRANCH   7  12
ENDBRANCH   1  11
BRANCH   4  15
ATOM     15  C   UNL     1       3.547   3.036  20.061  0.00  0.00    +0.000 C 
BRANCH  15  16
ATOM     16  C   UNL     1       2.621   4.200  20.222  0.00  0.00    +0.000 A 
ATOM     17  C   UNL     1       1.299   4.206  20.619  0.00  0.00    +0.000 A 
ATOM     18  N   UNL     1       0.726   5.453  20.792  0.00  0.00    +0.000 NA
ATOM     19  C   UNL     1       1.591   6.399  20.483  0.00  0.00    +0.000 A 
ATOM     20  S   UNL     1       3.150   5.819  20.021  0.00  0.00    +0.000 S 
BRANCH  19  21
ATOM     21  C   UNL     1       1.309   7.844  20.567  0.00  0.00    +0.000 A 
ATOM     22  C   UNL     1       1.353   8.625  19.400  0.00  0.00    +0.000 A 
ATOM     23  C   UNL     1       1.110  10.002  19.445  0.00  0.00    +0.000 A 
ATOM     24  C   UNL     1       0.830  10.620  20.660  0.00  0.00    +0.000 A 
ATOM     25  C   UNL     1       0.788   9.865  21.829  0.00  0.00    +0.000 A 
ATOM     26  C   UNL     1       1.024   8.487  21.783  0.00  0.00    +0.000 A 
ENDBRANCH  19  21
ENDBRANCH  15  16
ENDBRANCH   4  15
TORSDOF 6
ENDMDL
MODEL 6
REMARK VINA RESULT:      -6.4      7.174      9.478
REMARK  Name = 
REMARK  8 active torsions:
REMARK  status: ('A' for Active; 'I' for Inactive)
REMARK    1  A    between atoms: C_1  and  C_2
REMARK    2  A    between atoms: C_2  and  O_3
REMARK    3  A    between atoms: O_3  and  C_4
REMARK    4  A    between atoms: C_8  and  N_9
REMARK    5  A    between atoms: N_12  and  C_13
REMARK    6  A    between atoms: N_12  and  C_14
REMARK    7  A    between atoms: C_14  and  C_15
REMARK    8  A    between atoms: C_18  and  C_19
REMARK                            x       y       z     vdW  Elec       q    Type
REMARK                         _______ _______ _______ _____ _____    ______ ____
ROOT
ATOM      1  N   UNL     1       8.776   9.335  19.095  0.00  0.00    +0.000 N 
ATOM      2  C   UNL     1       8.036   8.687  18.141  0.00  0.00    +0.000 C 
ATOM      3  O   UNL     1       7.484   9.313  17.239  0.00  0.00    +0.000 OA
ATOM      4  N   UNL     1       7.964   7.314  18.230  0.00  0.00    +0.000 N 
ATOM      5  C   UNL     1       8.527   6.473  19.277  0.00  0.00    +0.000 C 
ATOM      6  H   UNL     1       9.443   8.810  19.634  0.00  0.00    +0.000 HD
ENDROOT
BRANCH   1  11
ATOM      7  C   UNL     1      10.000  11.237  18.015  0.00  0.00    +0.000 C 
ATOM      8  C   UNL     1      11.317  11.031  18.765  0.00  0.00    +0.000 C 
ATOM      9  O   UNL     1      11.046  11.092  20.179  0.00  0.00    +0.000 OA
ATOM     10  C   UNL     1       9.631  11.279  20.347  0.00  0.00    +0.000 C 
ATOM     11  C   UNL     1       8.973  10.792  19.060  0.00  0.00    +0.000 C 
BRANCH   7  12
ATOM     12  O   UNL     1       9.777  12.623  17.689  0.00  0.00    +0.000 OA
BRANCH  12  14
ATOM     13  C   UNL     1       8.054  14.250  18.103  0.00  0.00    +0.000 C 
ATOM     14  C   UNL     1       8.399  12.922  17.455  0.00  0.00    +0.000 C 
ENDBRANCH  12  14
ENDBRANCH   7  12
ENDBRANCH   1  11
BRANCH   4  15
ATOM     15  C   UNL     1       7.271   6.612  17.146  0.00  0.00    +0.000 C 
BRANCH  15  16
ATOM     16  C   UNL     1       5.860   6.273  17.508  0.00  0.00    +0.000 A 
ATOM     17  C   UNL     1       4.687   6.725  16.937  0.00  0.00    +0.000 A 
ATOM     18  N   UNL     1       3.524   6.144  17.407  0.00  0.00    +0.000 NA
ATOM     19  C   UNL     1       3.799   5.285  18.369  0.00  0.00    +0.000 A 
ATOM     20  S   UNL     1       5.483   5.105  18.707  0.00  0.00    +0.000 S 
BRANCH  19  21
ATOM     21  C   UNL     1       2.789   4.481  19.081  0.00  0.00    +0.000 A 
ATOM     22  C   UNL     1       2.740   4.520  20.485  0.00  0.00    +0.000 A 
ATOM     23  C   UNL     1       1.808   3.756  21.195  0.00  0.00    +0.000 A 
ATOM     24  C   UNL     1       0.917   2.932  20.511  0.00  0.00    +0.000 A 
ATOM     25  C   UNL     1       0.954   2.875  19.121  0.00  0.00    +0.000 A 
ATOM     26  C   UNL     1       1.881   3.644  18.411  0.00  0.00    +0.000 A 
ENDBRANCH  19  21
ENDBRANCH  15  16
ENDBRANCH   4  15
TORSDOF 6
ENDMDL
MODEL 7
REMARK VINA RESULT:      -6.4      6.983      9.411
REMARK  Name = 
REMARK  8 active torsions:
REMARK  status: ('A' for Active; 'I' for Inactive)
REMARK    1  A    between atoms: C_1  and  C_2
REMARK    2  A    between atoms: C_2  and  O_3
REMARK    3  A    between atoms: O_3  and  C_4
REMARK    4  A    between atoms: C_8  and  N_9
REMARK    5  A    between atoms: N_12  and  C_13
REMARK    6  A    between atoms: N_12  and  C_14
REMARK    7  A    between atoms: C_14  and  C_15
REMARK    8  A    between atoms: C_18  and  C_19
REMARK                            x       y       z     vdW  Elec       q    Type
REMARK                         _______ _______ _______ _____ _____    ______ ____
ROOT
ATOM      1  N   UNL     1       8.800   9.433  19.022  0.00  0.00    +0.000 N 
ATOM      2  C   UNL     1       8.036   8.778  18.093  0.00  0.00    +0.000 C 
ATOM      3  O   UNL     1       7.475   9.394  17.189  0.00  0.00    +0.000 OA
ATOM      4  N   UNL     1       7.950   7.407  18.207  0.00  0.00    +0.000 N 
ATOM      5  C   UNL     1       8.521   6.578  19.258  0.00  0.00    +0.000 C 
ATOM      6  H   UNL     1       9.470   8.909  19.559  0.00  0.00    +0.000 HD
ENDROOT
BRANCH   1  11
ATOM      7  C   UNL     1      10.199  11.284  18.076  0.00  0.00    +0.000 C 
ATOM      8  C   UNL     1      11.376  11.108  19.038  0.00  0.00    +0.000 C 
ATOM      9  O   UNL     1      10.880  11.230  20.385  0.00  0.00    +0.000 OA
ATOM     10  C   UNL     1       9.458  11.427  20.314  0.00  0.00    +0.000 C 
ATOM     11  C   UNL     1       9.013  10.887  18.959  0.00  0.00    +0.000 C 
BRANCH   7  12
ATOM     12  O   UNL     1      10.045  12.656  17.660  0.00  0.00    +0.000 OA
BRANCH  12  14
ATOM     13  C   UNL     1       8.575  14.473  18.232  0.00  0.00    +0.000 C 
ATOM     14  C   UNL     1       8.679  13.078  17.643  0.00  0.00    +0.000 C 
ENDBRANCH  12  14
ENDBRANCH   7  12
ENDBRANCH   1  11
BRANCH   4  15
ATOM     15  C   UNL     1       7.230   6.694  17.147  0.00  0.00    +0.000 C 
BRANCH  15  16
ATOM     16  C   UNL     1       5.814   6.401  17.529  0.00  0.00    +0.000 A 
ATOM     17  C   UNL     1       4.663   7.072  17.168  0.00  0.00    +0.000 A 
ATOM     18  N   UNL     1       3.475   6.499  17.581  0.00  0.00    +0.000 NA
ATOM     19  C   UNL     1       3.715   5.417  18.297  0.00  0.00    +0.000 A 
ATOM     20  S   UNL     1       5.387   5.021  18.455  0.00  0.00    +0.000 S 
BRANCH  19  21
ATOM     21  C   UNL     1       2.669   4.559  18.882  0.00  0.00    +0.000 A 
ATOM     22  C   UNL     1       2.008   3.623  18.067  0.00  0.00    +0.000 A 
ATOM     23  C   UNL     1       0.997   2.805  18.582  0.00  0.00    +0.000 A 
ATOM     24  C   UNL     1       0.623   2.919  19.918  0.00  0.00    +0.000 A 
ATOM     25  C   UNL     1       1.261   3.844  20.740  0.00  0.00    +0.000 A 
ATOM     26  C   UNL     1       2.277   4.656  20.227  0.00  0.00    +0.000 A 
ENDBRANCH  19  21
ENDBRANCH  15  16
ENDBRANCH   4  15
TORSDOF 6
ENDMDL
MODEL 8
REMARK VINA RESULT:      -6.4      1.465      1.964
REMARK  Name = 
REMARK  8 active torsions:
REMARK  status: ('A' for Active; 'I' for Inactive)
REMARK    1  A    between atoms: C_1  and  C_2
REMARK    2  A    between atoms: C_2  and  O_3
REMARK    3  A    between atoms: O_3  and  C_4
REMARK    4  A    between atoms: C_8  and  N_9
REMARK    5  A    between atoms: N_12  and  C_13
REMARK    6  A    between atoms: N_12  and  C_14
REMARK    7  A    between atoms: C_14  and  C_15
REMARK    8  A    between atoms: C_18  and  C_19
REMARK                            x       y       z     vdW  Elec       q    Type
REMARK                         _______ _______ _______ _____ _____    ______ ____
ROOT
ATOM      1  N   UNL     1       1.772   6.565  20.586  0.00  0.00    +0.000 N 
ATOM      2  C   UNL     1       1.871   7.751  19.908  0.00  0.00    +0.000 C 
ATOM      3  O   UNL     1       2.621   7.864  18.940  0.00  0.00    +0.000 OA
ATOM      4  N   UNL     1       1.081   8.792  20.345  0.00  0.00    +0.000 N 
ATOM      5  C   UNL     1       0.201   8.795  21.505  0.00  0.00    +0.000 C 
ATOM      6  H   UNL     1       0.968   6.402  21.167  0.00  0.00    +0.000 HD
ENDROOT
BRANCH   1  11
ATOM      7  C   UNL     1       1.861   4.622  19.006  0.00  0.00    +0.000 C 
ATOM      8  C   UNL     1       0.823   3.769  19.737  0.00  0.00    +0.000 C 
ATOM      9  O   UNL     1       1.268   3.582  21.095  0.00  0.00    +0.000 OA
ATOM     10  C   UNL     1       2.498   4.307  21.258  0.00  0.00    +0.000 C 
ATOM     11  C   UNL     1       2.522   5.371  20.166  0.00  0.00    +0.000 C 
BRANCH   7  12
ATOM     12  O   UNL     1       2.849   3.812  18.338  0.00  0.00    +0.000 OA
BRANCH  12  14
ATOM     13  C   UNL     1       4.683   3.683  16.787  0.00  0.00    +0.000 C 
ATOM     14  C   UNL     1       3.831   4.592  17.651  0.00  0.00    +0.000 C 
ENDBRANCH  12  14
ENDBRANCH   7  12
ENDBRANCH   1  11
BRANCH   4  15
ATOM     15  C   UNL     1       1.100  10.023  19.550  0.00  0.00    +0.000 C 
BRANCH  15  16
ATOM     16  C   UNL     1      -0.230  10.309  18.927  0.00  0.00    +0.000 A 
ATOM     17  C   UNL     1      -0.827   9.698  17.843  0.00  0.00    +0.000 A 
ATOM     18  N   UNL     1      -2.121  10.096  17.562  0.00  0.00    +0.000 NA
ATOM     19  C   UNL     1      -2.498  11.044  18.399  0.00  0.00    +0.000 A 
ATOM     20  S   UNL     1      -1.321  11.454  19.593  0.00  0.00    +0.000 S 
BRANCH  19  21
ATOM     21  C   UNL     1      -3.826  11.683  18.386  0.00  0.00    +0.000 A 
ATOM     22  C   UNL     1      -4.570  11.708  17.193  0.00  0.00    +0.000 A 
ATOM     23  C   UNL     1      -5.825  12.323  17.139  0.00  0.00    +0.000 A 
ATOM     24  C   UNL     1      -6.351  12.934  18.274  0.00  0.00    +0.000 A 
ATOM     25  C   UNL     1      -5.627  12.926  19.463  0.00  0.00    +0.000 A 
ATOM     26  C   UNL     1      -4.376  12.305  19.520  0.00  0.00    +0.000 A 
ENDBRANCH  19  21
ENDBRANCH  15  16
ENDBRANCH   4  15
TORSDOF 6
ENDMDL
MODEL 9
REMARK VINA RESULT:      -6.4      1.090      1.213
REMARK  Name = 
REMARK  8 active torsions:
REMARK  status: ('A' for Active; 'I' for Inactive)
REMARK    1  A    between atoms: C_1  and  C_2
REMARK    2  A    between atoms: C_2  and  O_3
REMARK    3  A    between atoms: O_3  and  C_4
REMARK    4  A    between atoms: C_8  and  N_9
REMARK    5  A    between atoms: N_12  and  C_13
REMARK    6  A    between atoms: N_12  and  C_14
REMARK    7  A    between atoms: C_14  and  C_15
REMARK    8  A    between atoms: C_18  and  C_19
REMARK                            x       y       z     vdW  Elec       q    Type
REMARK                         _______ _______ _______ _____ _____    ______ ____
ROOT
ATOM      1  N   UNL     1       2.052   7.465  18.986  0.00  0.00    +0.000 N 
ATOM      2  C   UNL     1       1.879   8.718  18.462  0.00  0.00    +0.000 C 
ATOM      3  O   UNL     1       2.192   8.965  17.300  0.00  0.00    +0.000 OA
ATOM      4  N   UNL     1       1.320   9.670  19.288  0.00  0.00    +0.000 N 
ATOM      5  C   UNL     1       0.962   9.511  20.690  0.00  0.00    +0.000 C 
ATOM      6  H   UNL     1       1.539   7.205  19.810  0.00  0.00    +0.000 HD
ENDROOT
BRANCH   1  11
ATOM      7  C   UNL     1       2.226   4.977  18.736  0.00  0.00    +0.000 C 
ATOM      8  C   UNL     1       3.313   4.781  19.795  0.00  0.00    +0.000 C 
ATOM      9  O   UNL     1       4.445   5.596  19.434  0.00  0.00    +0.000 OA
ATOM     10  C   UNL     1       4.105   6.319  18.240  0.00  0.00    +0.000 C 
ATOM     11  C   UNL     1       2.581   6.356  18.175  0.00  0.00    +0.000 C 
BRANCH   7  12
ATOM     12  O   UNL     1       2.317   3.997  17.683  0.00  0.00    +0.000 OA
BRANCH  12  14
ATOM     13  C   UNL     1       0.866   2.383  18.720  0.00  0.00    +0.000 C 
ATOM     14  C   UNL     1       2.254   2.654  18.170  0.00  0.00    +0.000 C 
ENDBRANCH  12  14
ENDBRANCH   7  12
ENDBRANCH   1  11
BRANCH   4  15
ATOM     15  C   UNL     1       1.026  10.977  18.693  0.00  0.00    +0.000 C 
BRANCH  15  16
ATOM     16  C   UNL     1      -0.338  11.468  19.063  0.00  0.00    +0.000 A 
ATOM     17  C   UNL     1      -0.686  12.530  19.873  0.00  0.00    +0.000 A 
ATOM     18  N   UNL     1      -2.036  12.822  19.939  0.00  0.00    +0.000 NA
ATOM     19  C   UNL     1      -2.725  11.957  19.221  0.00  0.00    +0.000 A 
ATOM     20  S   UNL     1      -1.763  10.787  18.393  0.00  0.00    +0.000 S 
BRANCH  19  21
ATOM     21  C   UNL     1      -4.191  11.988  19.066  0.00  0.00    +0.000 A 
ATOM     22  C   UNL     1      -4.767  11.537  17.865  0.00  0.00    +0.000 A 
ATOM     23  C   UNL     1      -6.153  11.570  17.674  0.00  0.00    +0.000 A 
ATOM     24  C   UNL     1      -6.982  12.064  18.676  0.00  0.00    +0.000 A 
ATOM     25  C   UNL     1      -6.430  12.521  19.870  0.00  0.00    +0.000 A 
ATOM     26  C   UNL     1      -5.046  12.482  20.064  0.00  0.00    +0.000 A 
ENDBRANCH  19  21
ENDBRANCH  15  16
ENDBRANCH   4  15
TORSDOF 6
ENDMDL
