MODEL 1
REMARK VINA RESULT:      -8.1      0.000      0.000
REMARK  Name = 
REMARK  6 active torsions:
REMARK  status: ('A' for Active; 'I' for Inactive)
REMARK    1  A    between atoms: O_1  and  C_2
REMARK    2  A    between atoms: N_10  and  C_11
REMARK    3  A    between atoms: N_14  and  C_15
REMARK    4  A    between atoms: C_15  and  C_16
REMARK    5  A    between atoms: C_16  and  C_17
REMARK    6  A    between atoms: C_17  and  N_18
REMARK                            x       y       z     vdW  Elec       q    Type
REMARK                         _______ _______ _______ _____ _____    ______ ____
ROOT
ATOM      1  C   UNL     1       5.461   5.510  18.158  0.00  0.00    +0.000 C 
ATOM      2  C   UNL     1       6.945   5.227  18.348  0.00  0.00    +0.000 C 
ATOM      3  C   UNL     1       7.664   6.576  18.467  0.00  0.00    +0.000 C 
ATOM      4  N   UNL     1       7.424   7.467  17.313  0.00  0.00    +0.000 NA
ATOM      5  C   UNL     1       5.993   7.635  17.006  0.00  0.00    +0.000 C 
ATOM      6  C   UNL     1       5.273   6.301  16.866  0.00  0.00    +0.000 C 
ENDROOT
BRANCH   1  15
ATOM      7  C   UNL     1       4.416   3.329  17.401  0.00  0.00    +0.000 A 
ATOM      8  N   UNL     1       3.316   2.649  17.599  0.00  0.00    +0.000 NA
ATOM      9  C   UNL     1       2.674   3.323  18.612  0.00  0.00    +0.000 A 
ATOM     10  C   UNL     1       1.414   3.094  19.188  0.00  0.00    +0.000 A 
ATOM     11  C   UNL     1       0.968   3.952  20.203  0.00  0.00    +0.000 A 
ATOM     12  C   UNL     1       1.766   5.003  20.658  0.00  0.00    +0.000 A 
ATOM     13  C   UNL     1       3.022   5.244  20.098  0.00  0.00    +0.000 A 
ATOM     14  C   UNL     1       3.435   4.393  19.064  0.00  0.00    +0.000 A 
ATOM     15  N   UNL     1       4.538   4.399  18.230  0.00  0.00    +0.000 N 
BRANCH   7  16
ATOM     16  O   UNL     1       5.272   3.008  16.451  0.00  0.00    +0.000 OA
ATOM     17  H   UNL     1       5.305   2.038  16.542  0.00  0.00    +0.000 HD
ENDBRANCH   7  16
ENDBRANCH   1  15
BRANCH   4  18
ATOM     18  C   UNL     1       8.009   8.809  17.546  0.00  0.00    +0.000 C 
BRANCH  18  19
ATOM     19  C   UNL     1       8.788   8.903  18.861  0.00  0.00    +0.000 C 
BRANCH  19  20
ATOM     20  C   UNL     1       8.998  10.349  19.325  0.00  0.00    +0.000 C 
BRANCH  20  21
ATOM     21  N   UNL     1      10.216  11.000  18.806  0.00  0.00    +0.000 NA
ATOM     22  C   UNL     1       9.920  12.073  17.842  0.00  0.00    +0.000 C 
ATOM     23  C   UNL     1      11.205  12.696  17.292  0.00  0.00    +0.000 C 
ATOM     24  C   UNL     1      12.094  13.217  18.413  0.00  0.00    +0.000 C 
ATOM     25  C   UNL     1      12.333  12.126  19.447  0.00  0.00    +0.000 C 
ATOM     26  C   UNL     1      11.015  11.519  19.930  0.00  0.00    +0.000 C 
ENDBRANCH  20  21
ENDBRANCH  19  20
ENDBRANCH  18  19
ENDBRANCH   4  18
TORSDOF 6
ENDMDL
MODEL 2
REMARK VINA RESULT:      -7.6      5.521      8.308
REMARK  Name = 
REMARK  6 active torsions:
REMARK  status: ('A' for Active; 'I' for Inactive)
REMARK    1  A    between atoms: O_1  and  C_2
REMARK    2  A    between atoms: N_10  and  C_11
REMARK    3  A    between atoms: N_14  and  C_15
REMARK    4  A    between atoms: C_15  and  C_16
REMARK    5  A    between atoms: C_16  and  C_17
REMARK    6  A    between atoms: C_17  and  N_18
REMARK                            x       y       z     vdW  Elec       q    Type
REMARK                         _______ _______ _______ _____ _____    ______ ____
ROOT
ATOM      1  C   UNL     1       3.030   6.646  19.263  0.00  0.00    +0.000 C 
ATOM      2  C   UNL     1       2.566   7.161  17.908  0.00  0.00    +0.000 C 
ATOM      3  C   UNL     1       2.296   8.664  18.050  0.00  0.00    +0.000 C 
ATOM      4  N   UNL     1       1.322   8.982  19.114  0.00  0.00    +0.000 NA
ATOM      5  C   UNL     1       1.663   8.362  20.407  0.00  0.00    +0.000 C 
ATOM      6  C   UNL     1       1.913   6.866  20.281  0.00  0.00    +0.000 C 
ENDROOT
BRANCH   1  15
ATOM      7  C   UNL     1       4.843   4.879  19.395  0.00  0.00    +0.000 A 
ATOM      8  N   UNL     1       4.973   3.593  19.196  0.00  0.00    +0.000 NA
ATOM      9  C   UNL     1       3.688   3.146  18.989  0.00  0.00    +0.000 A 
ATOM     10  C   UNL     1       3.225   1.864  18.654  0.00  0.00    +0.000 A 
ATOM     11  C   UNL     1       1.848   1.669  18.468  0.00  0.00    +0.000 A 
ATOM     12  C   UNL     1       0.945   2.719  18.637  0.00  0.00    +0.000 A 
ATOM     13  C   UNL     1       1.388   3.999  18.973  0.00  0.00    +0.000 A 
ATOM     14  C   UNL     1       2.770   4.179  19.124  0.00  0.00    +0.000 A 
ATOM     15  N   UNL     1       3.550   5.299  19.341  0.00  0.00    +0.000 N 
BRANCH   7  16
ATOM     16  O   UNL     1       5.885   5.666  19.574  0.00  0.00    +0.000 OA
ATOM     17  H   UNL     1       5.535   6.304  20.223  0.00  0.00    +0.000 HD
ENDBRANCH   7  16
ENDBRANCH   1  15
BRANCH   4  18
ATOM     18  C   UNL     1       1.212  10.446  19.316  0.00  0.00    +0.000 C 
BRANCH  18  19
ATOM     19  C   UNL     1      -0.084  11.033  18.750  0.00  0.00    +0.000 C 
BRANCH  19  20
ATOM     20  C   UNL     1      -1.318  10.191  19.095  0.00  0.00    +0.000 C 
BRANCH  20  21
ATOM     21  N   UNL     1      -2.377  10.188  18.069  0.00  0.00    +0.000 NA
ATOM     22  C   UNL     1      -3.077  11.480  17.969  0.00  0.00    +0.000 C 
ATOM     23  C   UNL     1      -4.196  11.427  16.927  0.00  0.00    +0.000 C 
ATOM     24  C   UNL     1      -3.666  11.003  15.565  0.00  0.00    +0.000 C 
ATOM     25  C   UNL     1      -2.876   9.707  15.685  0.00  0.00    +0.000 C 
ATOM     26  C   UNL     1      -1.800   9.810  16.766  0.00  0.00    +0.000 C 
ENDBRANCH  20  21
ENDBRANCH  19  20
ENDBRANCH  18  19
ENDBRANCH   4  18
TORSDOF 6
ENDMDL
MODEL 3
REMARK VINA RESULT:      -7.6      1.919      2.483
REMARK  Name = 
REMARK  6 active torsions:
REMARK  status: ('A' for Active; 'I' for Inactive)
REMARK    1  A    between atoms: O_1  and  C_2
REMARK    2  A    between atoms: N_10  and  C_11
REMARK    3  A    between atoms: N_14  and  C_15
REMARK    4  A    between atoms: C_15  and  C_16
REMARK    5  A    between atoms: C_16  and  C_17
REMARK    6  A    between atoms: C_17  and  N_18
REMARK                            x       y       z     vdW  Elec       q    Type
REMARK                         _______ _______ _______ _____ _____    ______ ____
ROOT
ATOM      1  C   UNL     1       4.262   6.027  18.788  0.00  0.00    +0.000 C 
ATOM      2  C   UNL     1       5.511   5.231  19.138  0.00  0.00    +0.000 C 
ATOM      3  C   UNL     1       6.727   6.099  18.794  0.00  0.00    +0.000 C 
ATOM      4  N   UNL     1       6.744   6.545  17.385  0.00  0.00    +0.000 NA
ATOM      5  C   UNL     1       5.482   7.182  16.971  0.00  0.00    +0.000 C 
ATOM      6  C   UNL     1       4.269   6.319  17.289  0.00  0.00    +0.000 C 
ENDROOT
BRANCH   1  15
ATOM      7  C   UNL     1       2.135   5.993  20.166  0.00  0.00    +0.000 A 
ATOM      8  N   UNL     1       1.188   5.147  20.483  0.00  0.00    +0.000 NA
ATOM      9  C   UNL     1       1.436   4.044  19.701  0.00  0.00    +0.000 A 
ATOM     10  C   UNL     1       0.788   2.799  19.670  0.00  0.00    +0.000 A 
ATOM     11  C   UNL     1       1.255   1.814  18.788  0.00  0.00    +0.000 A 
ATOM     12  C   UNL     1       2.328   2.067  17.933  0.00  0.00    +0.000 A 
ATOM     13  C   UNL     1       2.983   3.299  17.948  0.00  0.00    +0.000 A 
ATOM     14  C   UNL     1       2.519   4.258  18.859  0.00  0.00    +0.000 A 
ATOM     15  N   UNL     1       2.980   5.512  19.214  0.00  0.00    +0.000 N 
BRANCH   7  16
ATOM     16  O   UNL     1       2.256   7.160  20.764  0.00  0.00    +0.000 OA
ATOM     17  H   UNL     1       1.334   7.338  21.028  0.00  0.00    +0.000 HD
ENDBRANCH   7  16
ENDBRANCH   1  15
BRANCH   4  18
ATOM     18  C   UNL     1       7.850   7.502  17.143  0.00  0.00    +0.000 C 
BRANCH  18  19
ATOM     19  C   UNL     1       8.319   8.210  18.417  0.00  0.00    +0.000 C 
BRANCH  19  20
ATOM     20  C   UNL     1       8.403   9.733  18.254  0.00  0.00    +0.000 C 
BRANCH  20  21
ATOM     21  N   UNL     1       9.608  10.356  18.834  0.00  0.00    +0.000 NA
ATOM     22  C   UNL     1      10.316  11.223  17.878  0.00  0.00    +0.000 C 
ATOM     23  C   UNL     1      11.582  11.817  18.498  0.00  0.00    +0.000 C 
ATOM     24  C   UNL     1      11.269  12.580  19.777  0.00  0.00    +0.000 C 
ATOM     25  C   UNL     1      10.468  11.704  20.732  0.00  0.00    +0.000 C 
ATOM     26  C   UNL     1       9.238  11.112  20.044  0.00  0.00    +0.000 C 
ENDBRANCH  20  21
ENDBRANCH  19  20
ENDBRANCH  18  19
ENDBRANCH   4  18
TORSDOF 6
ENDMDL
MODEL 4
REMARK VINA RESULT:      -7.5      0.751      1.051
REMARK  Name = 
REMARK  6 active torsions:
REMARK  status: ('A' for Active; 'I' for Inactive)
REMARK    1  A    between atoms: O_1  and  C_2
REMARK    2  A    between atoms: N_10  and  C_11
REMARK    3  A    between atoms: N_14  and  C_15
REMARK    4  A    between atoms: C_15  and  C_16
REMARK    5  A    between atoms: C_16  and  C_17
REMARK    6  A    between atoms: C_17  and  N_18
REMARK                            x       y       z     vdW  Elec       q    Type
REMARK                         _______ _______ _______ _____ _____    ______ ____
ROOT
ATOM      1  C   UNL     1       5.597   5.349  18.379  0.00  0.00    +0.000 C 
ATOM      2  C   UNL     1       7.024   4.903  18.666  0.00  0.00    +0.000 C 
ATOM      3  C   UNL     1       7.854   6.158  18.956  0.00  0.00    +0.000 C 
ATOM      4  N   UNL     1       7.805   7.154  17.866  0.00  0.00    +0.000 NA
ATOM      5  C   UNL     1       6.429   7.490  17.458  0.00  0.00    +0.000 C 
ATOM      6  C   UNL     1       5.602   6.251  17.147  0.00  0.00    +0.000 C 
ENDROOT
BRANCH   1  15
ATOM      7  C   UNL     1       4.380   3.394  17.319  0.00  0.00    +0.000 A 
ATOM      8  N   UNL     1       3.212   2.810  17.397  0.00  0.00    +0.000 NA
ATOM      9  C   UNL     1       2.596   3.414  18.468  0.00  0.00    +0.000 A 
ATOM     10  C   UNL     1       1.297   3.242  18.972  0.00  0.00    +0.000 A 
ATOM     11  C   UNL     1       0.893   4.008  20.075  0.00  0.00    +0.000 A 
ATOM     12  C   UNL     1       1.768   4.909  20.683  0.00  0.00    +0.000 A 
ATOM     13  C   UNL     1       3.063   5.091  20.197  0.00  0.00    +0.000 A 
ATOM     14  C   UNL     1       3.437   4.338  19.075  0.00  0.00    +0.000 A 
ATOM     15  N   UNL     1       4.569   4.337  18.282  0.00  0.00    +0.000 N 
BRANCH   7  16
ATOM     16  O   UNL     1       5.240   3.110  16.362  0.00  0.00    +0.000 OA
ATOM     17  H   UNL     1       5.591   3.995  16.150  0.00  0.00    +0.000 HD
ENDBRANCH   7  16
ENDBRANCH   1  15
BRANCH   4  18
ATOM     18  C   UNL     1       8.492   8.408  18.258  0.00  0.00    +0.000 C 
BRANCH  18  19
ATOM     19  C   UNL     1       7.704   9.666  17.879  0.00  0.00    +0.000 C 
BRANCH  19  20
ATOM     20  C   UNL     1       8.605  10.888  17.661  0.00  0.00    +0.000 C 
BRANCH  20  21
ATOM     21  N   UNL     1       9.743  10.997  18.594  0.00  0.00    +0.000 NA
ATOM     22  C   UNL     1      10.942  11.573  17.963  0.00  0.00    +0.000 C 
ATOM     23  C   UNL     1      12.114  11.631  18.945  0.00  0.00    +0.000 C 
ATOM     24  C   UNL     1      11.747  12.410  20.201  0.00  0.00    +0.000 C 
ATOM     25  C   UNL     1      10.463  11.860  20.807  0.00  0.00    +0.000 C 
ATOM     26  C   UNL     1       9.343  11.792  19.768  0.00  0.00    +0.000 C 
ENDBRANCH  20  21
ENDBRANCH  19  20
ENDBRANCH  18  19
ENDBRANCH   4  18
TORSDOF 6
ENDMDL
MODEL 5
REMARK VINA RESULT:      -7.5      0.861      1.349
REMARK  Name = 
REMARK  6 active torsions:
REMARK  status: ('A' for Active; 'I' for Inactive)
REMARK    1  A    between atoms: O_1  and  C_2
REMARK    2  A    between atoms: N_10  and  C_11
REMARK    3  A    between atoms: N_14  and  C_15
REMARK    4  A    between atoms: C_15  and  C_16
REMARK    5  A    between atoms: C_16  and  C_17
REMARK    6  A    between atoms: C_17  and  N_18
REMARK                            x       y       z     vdW  Elec       q    Type
REMARK                         _______ _______ _______ _____ _____    ______ ____
ROOT
ATOM      1  C   UNL     1       5.032   4.809  17.948  0.00  0.00    +0.000 C 
ATOM      2  C   UNL     1       4.515   6.089  17.307  0.00  0.00    +0.000 C 
ATOM      3  C   UNL     1       5.731   6.910  16.862  0.00  0.00    +0.000 C 
ATOM      4  N   UNL     1       6.675   7.196  17.962  0.00  0.00    +0.000 NA
ATOM      5  C   UNL     1       7.073   5.987  18.705  0.00  0.00    +0.000 C 
ATOM      6  C   UNL     1       5.872   5.175  19.169  0.00  0.00    +0.000 C 
ENDROOT
BRANCH   1  15
ATOM      7  C   UNL     1       3.867   2.580  17.633  0.00  0.00    +0.000 A 
ATOM      8  N   UNL     1       2.761   1.992  18.010  0.00  0.00    +0.000 NA
ATOM      9  C   UNL     1       2.212   2.851  18.933  0.00  0.00    +0.000 A 
ATOM     10  C   UNL     1       0.988   2.776  19.615  0.00  0.00    +0.000 A 
ATOM     11  C   UNL     1       0.639   3.809  20.498  0.00  0.00    +0.000 A 
ATOM     12  C   UNL     1       1.501   4.884  20.719  0.00  0.00    +0.000 A 
ATOM     13  C   UNL     1       2.723   4.974  20.051  0.00  0.00    +0.000 A 
ATOM     14  C   UNL     1       3.037   3.947  19.151  0.00  0.00    +0.000 A 
ATOM     15  N   UNL     1       4.080   3.767  18.262  0.00  0.00    +0.000 N 
BRANCH   7  16
ATOM     16  O   UNL     1       4.645   2.070  16.699  0.00  0.00    +0.000 OA
ATOM     17  H   UNL     1       4.771   2.839  16.113  0.00  0.00    +0.000 HD
ENDBRANCH   7  16
ENDBRANCH   1  15
BRANCH   4  18
ATOM     18  C   UNL     1       7.903   7.853  17.453  0.00  0.00    +0.000 C 
BRANCH  18  19
ATOM     19  C   UNL     1       8.608   8.705  18.513  0.00  0.00    +0.000 C 
BRANCH  19  20
ATOM     20  C   UNL     1       8.652  10.193  18.146  0.00  0.00    +0.000 C 
BRANCH  20  21
ATOM     21  N   UNL     1       9.873  10.904  18.571  0.00  0.00    +0.000 NA
ATOM     22  C   UNL     1      10.170  12.076  17.731  0.00  0.00    +0.000 C 
ATOM     23  C   UNL     1      11.465  12.762  18.172  0.00  0.00    +0.000 C 
ATOM     24  C   UNL     1      11.410  13.160  19.641  0.00  0.00    +0.000 C 
ATOM     25  C   UNL     1      11.026  11.961  20.498  0.00  0.00    +0.000 C 
ATOM     26  C   UNL     1       9.747  11.298  19.985  0.00  0.00    +0.000 C 
ENDBRANCH  20  21
ENDBRANCH  19  20
ENDBRANCH  18  19
ENDBRANCH   4  18
TORSDOF 6
ENDMDL
MODEL 6
REMARK VINA RESULT:      -7.4      1.175      1.738
REMARK  Name = 
REMARK  6 active torsions:
REMARK  status: ('A' for Active; 'I' for Inactive)
REMARK    1  A    between atoms: O_1  and  C_2
REMARK    2  A    between atoms: N_10  and  C_11
REMARK    3  A    between atoms: N_14  and  C_15
REMARK    4  A    between atoms: C_15  and  C_16
REMARK    5  A    between atoms: C_16  and  C_17
REMARK    6  A    between atoms: C_17  and  N_18
REMARK                            x       y       z     vdW  Elec       q    Type
REMARK                         _______ _______ _______ _____ _____    ______ ____
ROOT
ATOM      1  C   UNL     1       5.378   5.403  18.182  0.00  0.00    +0.000 C 
ATOM      2  C   UNL     1       6.870   5.156  18.360  0.00  0.00    +0.000 C 
ATOM      3  C   UNL     1       7.560   6.523  18.442  0.00  0.00    +0.000 C 
ATOM      4  N   UNL     1       7.287   7.384  17.273  0.00  0.00    +0.000 NA
ATOM      5  C   UNL     1       5.849   7.514  16.980  0.00  0.00    +0.000 C 
ATOM      6  C   UNL     1       5.158   6.162  16.875  0.00  0.00    +0.000 C 
ENDROOT
BRANCH   1  15
ATOM      7  C   UNL     1       4.378   3.180  17.486  0.00  0.00    +0.000 A 
ATOM      8  N   UNL     1       3.294   2.482  17.709  0.00  0.00    +0.000 NA
ATOM      9  C   UNL     1       2.644   3.166  18.709  0.00  0.00    +0.000 A 
ATOM     10  C   UNL     1       1.393   2.924  19.298  0.00  0.00    +0.000 A 
ATOM     11  C   UNL     1       0.934   3.797  20.295  0.00  0.00    +0.000 A 
ATOM     12  C   UNL     1       1.711   4.876  20.718  0.00  0.00    +0.000 A 
ATOM     13  C   UNL     1       2.957   5.131  20.144  0.00  0.00    +0.000 A 
ATOM     14  C   UNL     1       3.383   4.264  19.129  0.00  0.00    +0.000 A 
ATOM     15  N   UNL     1       4.480   4.274  18.288  0.00  0.00    +0.000 N 
BRANCH   7  16
ATOM     16  O   UNL     1       5.234   2.856  16.538  0.00  0.00    +0.000 OA
ATOM     17  H   UNL     1       6.075   3.164  16.925  0.00  0.00    +0.000 HD
ENDBRANCH   7  16
ENDBRANCH   1  15
BRANCH   4  18
ATOM     18  C   UNL     1       7.845   8.743  17.471  0.00  0.00    +0.000 C 
BRANCH  18  19
ATOM     19  C   UNL     1       8.648   8.878  18.768  0.00  0.00    +0.000 C 
BRANCH  19  20
ATOM     20  C   UNL     1       9.545  10.122  18.786  0.00  0.00    +0.000 C 
BRANCH  20  21
ATOM     21  N   UNL     1       9.046  11.239  19.610  0.00  0.00    +0.000 NA
ATOM     22  C   UNL     1       9.409  11.105  21.030  0.00  0.00    +0.000 C 
ATOM     23  C   UNL     1       8.838  12.256  21.861  0.00  0.00    +0.000 C 
ATOM     24  C   UNL     1       9.289  13.606  21.322  0.00  0.00    +0.000 C 
ATOM     25  C   UNL     1       8.982  13.710  19.834  0.00  0.00    +0.000 C 
ATOM     26  C   UNL     1       9.545  12.514  19.065  0.00  0.00    +0.000 C 
ENDBRANCH  20  21
ENDBRANCH  19  20
ENDBRANCH  18  19
ENDBRANCH   4  18
TORSDOF 6
ENDMDL
MODEL 7
REMARK VINA RESULT:      -7.3      5.542      8.261
REMARK  Name = 
REMARK  6 active torsions:
REMARK  status: ('A' for Active; 'I' for Inactive)
REMARK    1  A    between atoms: O_1  and  C_2
REMARK    2  A    between atoms: N_10  and  C_11
REMARK    3  A    between atoms: N_14  and  C_15
REMARK    4  A    between atoms: C_15  and  C_16
REMARK    5  A    between atoms: C_16  and  C_17
REMARK    6  A    between atoms: C_17  and  N_18
REMARK                            x       y       z     vdW  Elec       q    Type
REMARK                         _______ _______ _______ _____ _____    ______ ____
ROOT
ATOM      1  C   UNL     1       3.020   6.566  19.388  0.00  0.00    +0.000 C 
ATOM      2  C   UNL     1       2.555   7.126  18.051  0.00  0.00    +0.000 C 
ATOM      3  C   UNL     1       2.250   8.614  18.251  0.00  0.00    +0.000 C 
ATOM      4  N   UNL     1       1.261   8.867  19.320  0.00  0.00    +0.000 NA
ATOM      5  C   UNL     1       1.606   8.203  20.589  0.00  0.00    +0.000 C 
ATOM      6  C   UNL     1       1.891   6.719  20.404  0.00  0.00    +0.000 C 
ENDROOT
BRANCH   1  15
ATOM      7  C   UNL     1       4.873   4.836  19.416  0.00  0.00    +0.000 A 
ATOM      8  N   UNL     1       5.022   3.557  19.181  0.00  0.00    +0.000 NA
ATOM      9  C   UNL     1       3.741   3.088  19.007  0.00  0.00    +0.000 A 
ATOM     10  C   UNL     1       3.293   1.805  18.656  0.00  0.00    +0.000 A 
ATOM     11  C   UNL     1       1.915   1.585  18.511  0.00  0.00    +0.000 A 
ATOM     12  C   UNL     1       0.997   2.611  18.737  0.00  0.00    +0.000 A 
ATOM     13  C   UNL     1       1.424   3.892  19.089  0.00  0.00    +0.000 A 
ATOM     14  C   UNL     1       2.806   4.098  19.197  0.00  0.00    +0.000 A 
ATOM     15  N   UNL     1       3.570   5.229  19.416  0.00  0.00    +0.000 N 
BRANCH   7  16
ATOM     16  O   UNL     1       5.904   5.640  19.579  0.00  0.00    +0.000 OA
ATOM     17  H   UNL     1       6.347   5.563  18.714  0.00  0.00    +0.000 HD
ENDBRANCH   7  16
ENDBRANCH   1  15
BRANCH   4  18
ATOM     18  C   UNL     1       1.116  10.319  19.580  0.00  0.00    +0.000 C 
BRANCH  18  19
ATOM     19  C   UNL     1      -0.334  10.740  19.838  0.00  0.00    +0.000 C 
BRANCH  19  20
ATOM     20  C   UNL     1      -0.772  11.925  18.968  0.00  0.00    +0.000 C 
BRANCH  20  21
ATOM     21  N   UNL     1      -1.783  11.605  17.942  0.00  0.00    +0.000 NA
ATOM     22  C   UNL     1      -1.620  10.252  17.386  0.00  0.00    +0.000 C 
ATOM     23  C   UNL     1      -2.656   9.971  16.296  0.00  0.00    +0.000 C 
ATOM     24  C   UNL     1      -4.074  10.165  16.815  0.00  0.00    +0.000 C 
ATOM     25  C   UNL     1      -4.217  11.537  17.460  0.00  0.00    +0.000 C 
ATOM     26  C   UNL     1      -3.132  11.772  18.512  0.00  0.00    +0.000 C 
ENDBRANCH  20  21
ENDBRANCH  19  20
ENDBRANCH  18  19
ENDBRANCH   4  18
TORSDOF 6
ENDMDL
MODEL 8
REMARK VINA RESULT:      -7.2      5.763      9.232
REMARK  Name = 
REMARK  6 active torsions:
REMARK  status: ('A' for Active; 'I' for Inactive)
REMARK    1  A    between atoms: O_1  and  C_2
REMARK    2  A    between atoms: N_10  and  C_11
REMARK    3  A    between atoms: N_14  and  C_15
REMARK    4  A    between atoms: C_15  and  C_16
REMARK    5  A    between atoms: C_16  and  C_17
REMARK    6  A    between atoms: C_17  and  N_18
REMARK                            x       y       z     vdW  Elec       q    Type
REMARK                         _______ _______ _______ _____ _____    ______ ____
ROOT
ATOM      1  C   UNL     1       1.227   9.568  19.296  0.00  0.00    +0.000 C 
ATOM      2  C   UNL     1       0.980   8.278  20.065  0.00  0.00    +0.000 C 
ATOM      3  C   UNL     1       2.225   7.397  19.908  0.00  0.00    +0.000 C 
ATOM      4  N   UNL     1       2.574   7.129  18.498  0.00  0.00    +0.000 NA
ATOM      5  C   UNL     1       2.666   8.356  17.687  0.00  0.00    +0.000 C 
ATOM      6  C   UNL     1       1.426   9.229  17.820  0.00  0.00    +0.000 C 
ENDROOT
BRANCH   1  15
ATOM      7  C   UNL     1       0.273  11.643  20.395  0.00  0.00    +0.000 A 
ATOM      8  N   UNL     1      -0.854  12.307  20.420  0.00  0.00    +0.000 NA
ATOM      9  C   UNL     1      -1.627  11.709  19.452  0.00  0.00    +0.000 A 
ATOM     10  C   UNL     1      -2.959  11.955  19.087  0.00  0.00    +0.000 A 
ATOM     11  C   UNL     1      -3.537  11.180  18.070  0.00  0.00    +0.000 A 
ATOM     12  C   UNL     1      -2.799  10.196  17.411  0.00  0.00    +0.000 A 
ATOM     13  C   UNL     1      -1.472   9.940  17.759  0.00  0.00    +0.000 A 
ATOM     14  C   UNL     1      -0.924  10.705  18.798  0.00  0.00    +0.000 A 
ATOM     15  N   UNL     1       0.288  10.654  19.460  0.00  0.00    +0.000 N 
BRANCH   7  16
ATOM     16  O   UNL     1       1.253  11.899  21.238  0.00  0.00    +0.000 OA
ATOM     17  H   UNL     1       0.902  11.515  22.063  0.00  0.00    +0.000 HD
ENDBRANCH   7  16
ENDBRANCH   1  15
BRANCH   4  18
ATOM     18  C   UNL     1       3.865   6.407  18.396  0.00  0.00    +0.000 C 
BRANCH  18  19
ATOM     19  C   UNL     1       3.854   5.307  17.331  0.00  0.00    +0.000 C 
BRANCH  19  20
ATOM     20  C   UNL     1       3.693   3.904  17.929  0.00  0.00    +0.000 C 
BRANCH  20  21
ATOM     21  N   UNL     1       2.961   3.851  19.208  0.00  0.00    +0.000 NA
ATOM     22  C   UNL     1       1.509   3.700  19.027  0.00  0.00    +0.000 C 
ATOM     23  C   UNL     1       0.778   3.693  20.372  0.00  0.00    +0.000 C 
ATOM     24  C   UNL     1       1.316   2.604  21.290  0.00  0.00    +0.000 C 
ATOM     25  C   UNL     1       2.829   2.717  21.412  0.00  0.00    +0.000 C 
ATOM     26  C   UNL     1       3.497   2.756  20.037  0.00  0.00    +0.000 C 
ENDBRANCH  20  21
ENDBRANCH  19  20
ENDBRANCH  18  19
ENDBRANCH   4  18
TORSDOF 6
ENDMDL
MODEL 9
REMARK VINA RESULT:      -7.2      5.265      8.660
REMARK  Name = 
REMARK  6 active torsions:
REMARK  status: ('A' for Active; 'I' for Inactive)
REMARK    1  A    between atoms: O_1  and  C_2
REMARK    2  A    between atoms: N_10  and  C_11
REMARK    3  A    between atoms: N_14  and  C_15
REMARK    4  A    between atoms: C_15  and  C_16
REMARK    5  A    between atoms: C_16  and  C_17
REMARK    6  A    between atoms: C_17  and  N_18
REMARK                            x       y       z     vdW  Elec       q    Type
REMARK                         _______ _______ _______ _____ _____    ______ ____
ROOT
ATOM      1  C   UNL     1       2.488   6.581  18.288  0.00  0.00    +0.000 C 
ATOM      2  C   UNL     1       2.635   6.685  19.800  0.00  0.00    +0.000 C 
ATOM      3  C   UNL     1       1.591   7.689  20.300  0.00  0.00    +0.000 C 
ATOM      4  N   UNL     1       1.698   9.013  19.652  0.00  0.00    +0.000 NA
ATOM      5  C   UNL     1       1.717   8.930  18.181  0.00  0.00    +0.000 C 
ATOM      6  C   UNL     1       2.765   7.950  17.672  0.00  0.00    +0.000 C 
ENDROOT
BRANCH   1  15
ATOM      7  C   UNL     1       2.851   4.255  17.348  0.00  0.00    +0.000 A 
ATOM      8  N   UNL     1       3.845   3.509  16.937  0.00  0.00    +0.000 NA
ATOM      9  C   UNL     1       4.929   4.355  16.931  0.00  0.00    +0.000 A 
ATOM     10  C   UNL     1       6.278   4.086  16.650  0.00  0.00    +0.000 A 
ATOM     11  C   UNL     1       7.210   5.130  16.740  0.00  0.00    +0.000 A 
ATOM     12  C   UNL     1       6.808   6.423  17.076  0.00  0.00    +0.000 A 
ATOM     13  C   UNL     1       5.472   6.710  17.356  0.00  0.00    +0.000 A 
ATOM     14  C   UNL     1       4.562   5.645  17.291  0.00  0.00    +0.000 A 
ATOM     15  N   UNL     1       3.219   5.540  17.599  0.00  0.00    +0.000 N 
BRANCH   7  16
ATOM     16  O   UNL     1       1.642   3.765  17.536  0.00  0.00    +0.000 OA
ATOM     17  H   UNL     1       1.320   4.324  18.267  0.00  0.00    +0.000 HD
ENDBRANCH   7  16
ENDBRANCH   1  15
BRANCH   4  18
ATOM     18  C   UNL     1       0.576   9.895  20.053  0.00  0.00    +0.000 C 
BRANCH  18  19
ATOM     19  C   UNL     1      -0.201  10.455  18.858  0.00  0.00    +0.000 C 
BRANCH  19  20
ATOM     20  C   UNL     1      -1.666  10.762  19.194  0.00  0.00    +0.000 C 
BRANCH  20  21
ATOM     21  N   UNL     1      -2.627  10.474  18.111  0.00  0.00    +0.000 NA
ATOM     22  C   UNL     1      -3.503  11.618  17.809  0.00  0.00    +0.000 C 
ATOM     23  C   UNL     1      -4.513  11.270  16.714  0.00  0.00    +0.000 C 
ATOM     24  C   UNL     1      -3.817  10.785  15.450  0.00  0.00    +0.000 C 
ATOM     25  C   UNL     1      -2.853   9.654  15.780  0.00  0.00    +0.000 C 
ATOM     26  C   UNL     1      -1.895  10.049  16.905  0.00  0.00    +0.000 C 
ENDBRANCH  20  21
ENDBRANCH  19  20
ENDBRANCH  18  19
ENDBRANCH   4  18
TORSDOF 6
ENDMDL
