MODEL 1
REMARK VINA RESULT:      -7.1      0.000      0.000
REMARK  Name = 
REMARK  10 active torsions:
REMARK  status: ('A' for Active; 'I' for Inactive)
REMARK    1  A    between atoms: C_2  and  C_3
REMARK    2  A    between atoms: C_3  and  N_4
REMARK    3  A    between atoms: C_12  and  O_13
REMARK    4  A    between atoms: O_13  and  C_14
REMARK    5  A    between atoms: N_21  and  C_22
REMARK    6  A    between atoms: C_22  and  C_23
REMARK    7  A    between atoms: C_26  and  O_27
REMARK    8  A    between atoms: O_27  and  C_28
REMARK    9  A    between atoms: C_30  and  O_31
REMARK   10  A    between atoms: O_31  and  C_32
REMARK                            x       y       z     vdW  Elec       q    Type
REMARK                         _______ _______ _______ _____ _____    ______ ____
ROOT
ATOM      1  N   UNL     1       1.579  11.431  19.368  0.00  0.00    +0.000 NA
ATOM      2  C   UNL     1       1.781  10.599  18.156  0.00  0.00    +0.000 C 
ATOM      3  C   UNL     1       0.764   9.436  17.996  0.00  0.00    +0.000 C 
ATOM      4  C   UNL     1      -0.703  10.056  17.971  0.00  0.00    +0.000 A 
ATOM      5  N   UNL     1      -1.553  10.106  16.877  0.00  0.00    +0.000 N 
ATOM      6  C   UNL     1      -2.729  10.784  17.195  0.00  0.00    +0.000 A 
ATOM      7  C   UNL     1      -3.871  11.120  16.440  0.00  0.00    +0.000 A 
ATOM      8  C   UNL     1      -4.903  11.855  17.075  0.00  0.00    +0.000 A 
ATOM      9  C   UNL     1      -4.800  12.266  18.404  0.00  0.00    +0.000 A 
ATOM     10  C   UNL     1      -3.646  11.953  19.115  0.00  0.00    +0.000 A 
ATOM     11  C   UNL     1      -2.615  11.214  18.507  0.00  0.00    +0.000 A 
ATOM     12  C   UNL     1      -1.354  10.797  18.969  0.00  0.00    +0.000 A 
ATOM     13  C   UNL     1      -0.800  11.185  20.302  0.00  0.00    +0.000 C 
ATOM     14  C   UNL     1       0.662  10.732  20.378  0.00  0.00    +0.000 C 
ATOM     15  C   UNL     1       0.504   9.141  20.352  0.00  0.00    +0.000 C 
ATOM     16  N   UNL     1       0.943   8.452  19.117  0.00  0.00    +0.000 NA
ATOM     17  H   UNL     1      -1.350   9.722  15.965  0.00  0.00    +0.000 HD
ENDROOT
BRANCH   9  18
ATOM     18  O   UNL     1      -5.709  12.973  19.141  0.00  0.00    +0.000 OA
ATOM     19  C   UNL     1      -5.238  13.682  20.274  0.00  0.00    +0.000 C 
ENDBRANCH   9  18
BRANCH   1  20
ATOM     20  C   UNL     1       1.085  12.775  18.968  0.00  0.00    +0.000 C 
BRANCH  20  22
ATOM     21  C   UNL     1       3.035  14.333  18.682  0.00  0.00    +0.000 C 
ATOM     22  C   UNL     1       2.039  13.612  18.150  0.00  0.00    +0.000 C 
ENDBRANCH  20  22
ENDBRANCH   1  20
BRANCH  16  23
ATOM     23  C   UNL     1       2.311   7.981  19.472  0.00  0.00    +0.000 C 
BRANCH  23  24
ATOM     24  C   UNL     1       2.977   6.783  18.838  0.00  0.00    +0.000 A 
ATOM     25  C   UNL     1       3.742   7.077  17.675  0.00  0.00    +0.000 A 
ATOM     26  C   UNL     1       4.464   6.104  16.981  0.00  0.00    +0.000 A 
ATOM     27  C   UNL     1       4.441   4.791  17.419  0.00  0.00    +0.000 A 
ATOM     28  C   UNL     1       3.766   4.499  18.603  0.00  0.00    +0.000 A 
ATOM     29  C   UNL     1       3.066   5.479  19.341  0.00  0.00    +0.000 A 
BRANCH  27  30
ATOM     30  O   UNL     1       5.123   3.896  16.643  0.00  0.00    +0.000 OA
ATOM     31  C   UNL     1       6.290   4.397  15.999  0.00  0.00    +0.000 C 
ENDBRANCH  27  30
BRANCH  29  32
ATOM     32  O   UNL     1       2.579   4.933  20.494  0.00  0.00    +0.000 OA
ATOM     33  C   UNL     1       1.252   4.450  20.566  0.00  0.00    +0.000 C 
ENDBRANCH  29  32
ENDBRANCH  23  24
ENDBRANCH  16  23
TORSDOF 7
ENDMDL
MODEL 2
REMARK VINA RESULT:      -7.1      1.131      2.049
REMARK  Name = 
REMARK  10 active torsions:
REMARK  status: ('A' for Active; 'I' for Inactive)
REMARK    1  A    between atoms: C_2  and  C_3
REMARK    2  A    between atoms: C_3  and  N_4
REMARK    3  A    between atoms: C_12  and  O_13
REMARK    4  A    between atoms: O_13  and  C_14
REMARK    5  A    between atoms: N_21  and  C_22
REMARK    6  A    between atoms: C_22  and  C_23
REMARK    7  A    between atoms: C_26  and  O_27
REMARK    8  A    between atoms: O_27  and  C_28
REMARK    9  A    between atoms: C_30  and  O_31
REMARK   10  A    between atoms: O_31  and  C_32
REMARK                            x       y       z     vdW  Elec       q    Type
REMARK                         _______ _______ _______ _____ _____    ______ ____
ROOT
ATOM      1  N   UNL     1       1.375  11.577  19.399  0.00  0.00    +0.000 NA
ATOM      2  C   UNL     1       1.611  10.729  18.205  0.00  0.00    +0.000 C 
ATOM      3  C   UNL     1       0.613   9.550  18.045  0.00  0.00    +0.000 C 
ATOM      4  C   UNL     1      -0.861  10.149  17.982  0.00  0.00    +0.000 A 
ATOM      5  N   UNL     1      -1.691  10.169  16.872  0.00  0.00    +0.000 N 
ATOM      6  C   UNL     1      -2.882  10.836  17.156  0.00  0.00    +0.000 A 
ATOM      7  C   UNL     1      -4.014  11.144  16.375  0.00  0.00    +0.000 A 
ATOM      8  C   UNL     1      -5.067  11.875  16.978  0.00  0.00    +0.000 A 
ATOM      9  C   UNL     1      -4.995  12.309  18.302  0.00  0.00    +0.000 A 
ATOM     10  C   UNL     1      -3.851  12.023  19.040  0.00  0.00    +0.000 A 
ATOM     11  C   UNL     1      -2.799  11.288  18.464  0.00  0.00    +0.000 A 
ATOM     12  C   UNL     1      -1.541  10.897  18.955  0.00  0.00    +0.000 A 
ATOM     13  C   UNL     1      -1.018  11.314  20.292  0.00  0.00    +0.000 C 
ATOM     14  C   UNL     1       0.449  10.882  20.403  0.00  0.00    +0.000 C 
ATOM     15  C   UNL     1       0.313   9.289  20.401  0.00  0.00    +0.000 C 
ATOM     16  N   UNL     1       0.784   8.586  19.185  0.00  0.00    +0.000 NA
ATOM     17  H   UNL     1      -1.466   9.773  15.970  0.00  0.00    +0.000 HD
ENDROOT
BRANCH   9  18
ATOM     18  O   UNL     1      -5.927  13.015  19.010  0.00  0.00    +0.000 OA
ATOM     19  C   UNL     1      -7.292  12.834  18.676  0.00  0.00    +0.000 C 
ENDBRANCH   9  18
BRANCH   1  20
ATOM     20  C   UNL     1       0.871  12.908  18.967  0.00  0.00    +0.000 C 
BRANCH  20  22
ATOM     21  C   UNL     1       2.990  14.156  19.477  0.00  0.00    +0.000 C 
ATOM     22  C   UNL     1       1.652  14.101  19.462  0.00  0.00    +0.000 C 
ENDBRANCH  20  22
ENDBRANCH   1  20
BRANCH  16  23
ATOM     23  C   UNL     1       2.152   8.140  19.573  0.00  0.00    +0.000 C 
BRANCH  23  24
ATOM     24  C   UNL     1       2.618   6.705  19.502  0.00  0.00    +0.000 A 
ATOM     25  C   UNL     1       1.996   5.834  20.441  0.00  0.00    +0.000 A 
ATOM     26  C   UNL     1       2.267   4.466  20.494  0.00  0.00    +0.000 A 
ATOM     27  C   UNL     1       3.182   3.914  19.614  0.00  0.00    +0.000 A 
ATOM     28  C   UNL     1       3.739   4.734  18.635  0.00  0.00    +0.000 A 
ATOM     29  C   UNL     1       3.443   6.113  18.540  0.00  0.00    +0.000 A 
BRANCH  27  30
ATOM     30  O   UNL     1       3.434   2.581  19.781  0.00  0.00    +0.000 OA
ATOM     31  C   UNL     1       3.392   1.789  18.598  0.00  0.00    +0.000 C 
ENDBRANCH  27  30
BRANCH  29  32
ATOM     32  O   UNL     1       4.055   6.645  17.440  0.00  0.00    +0.000 OA
ATOM     33  C   UNL     1       5.047   5.921  16.740  0.00  0.00    +0.000 C 
ENDBRANCH  29  32
ENDBRANCH  23  24
ENDBRANCH  16  23
TORSDOF 7
ENDMDL
MODEL 3
REMARK VINA RESULT:      -6.7      2.581      4.299
REMARK  Name = 
REMARK  10 active torsions:
REMARK  status: ('A' for Active; 'I' for Inactive)
REMARK    1  A    between atoms: C_2  and  C_3
REMARK    2  A    between atoms: C_3  and  N_4
REMARK    3  A    between atoms: C_12  and  O_13
REMARK    4  A    between atoms: O_13  and  C_14
REMARK    5  A    between atoms: N_21  and  C_22
REMARK    6  A    between atoms: C_22  and  C_23
REMARK    7  A    between atoms: C_26  and  O_27
REMARK    8  A    between atoms: O_27  and  C_28
REMARK    9  A    between atoms: C_30  and  O_31
REMARK   10  A    between atoms: O_31  and  C_32
REMARK                            x       y       z     vdW  Elec       q    Type
REMARK                         _______ _______ _______ _____ _____    ______ ____
ROOT
ATOM      1  N   UNL     1      -1.205  11.128  21.004  0.00  0.00    +0.000 NA
ATOM      2  C   UNL     1       0.150  10.944  21.580  0.00  0.00    +0.000 C 
ATOM      3  C   UNL     1       1.314  11.257  20.601  0.00  0.00    +0.000 C 
ATOM      4  C   UNL     1       1.153  12.761  20.100  0.00  0.00    +0.000 A 
ATOM      5  N   UNL     1       1.981  13.825  20.422  0.00  0.00    +0.000 N 
ATOM      6  C   UNL     1       1.502  15.010  19.866  0.00  0.00    +0.000 A 
ATOM      7  C   UNL     1       1.956  16.343  19.923  0.00  0.00    +0.000 A 
ATOM      8  C   UNL     1       1.204  17.338  19.251  0.00  0.00    +0.000 A 
ATOM      9  C   UNL     1       0.028  17.031  18.566  0.00  0.00    +0.000 A 
ATOM     10  C   UNL     1      -0.418  15.713  18.557  0.00  0.00    +0.000 A 
ATOM     11  C   UNL     1       0.320  14.708  19.208  0.00  0.00    +0.000 A 
ATOM     12  C   UNL     1       0.090  13.333  19.385  0.00  0.00    +0.000 A 
ATOM     13  C   UNL     1      -1.159  12.646  18.934  0.00  0.00    +0.000 C 
ATOM     14  C   UNL     1      -1.153  11.212  19.474  0.00  0.00    +0.000 C 
ATOM     15  C   UNL     1       0.076  10.575  18.675  0.00  0.00    +0.000 C 
ATOM     16  N   UNL     1       1.294  10.276  19.464  0.00  0.00    +0.000 NA
ATOM     17  H   UNL     1       2.811  13.763  20.995  0.00  0.00    +0.000 HD
ENDROOT
BRANCH   9  18
ATOM     18  O   UNL     1      -0.793  17.880  17.878  0.00  0.00    +0.000 OA
ATOM     19  C   UNL     1      -1.834  18.523  18.593  0.00  0.00    +0.000 C 
ENDBRANCH   9  18
BRANCH   1  20
ATOM     20  C   UNL     1      -1.853  12.310  21.630  0.00  0.00    +0.000 C 
BRANCH  20  22
ATOM     21  C   UNL     1      -0.927  14.123  23.103  0.00  0.00    +0.000 C 
ATOM     22  C   UNL     1      -1.201  12.829  22.889  0.00  0.00    +0.000 C 
ENDBRANCH  20  22
ENDBRANCH   1  20
BRANCH  16  23
ATOM     23  C   UNL     1       1.152   8.820  19.749  0.00  0.00    +0.000 C 
BRANCH  23  24
ATOM     24  C   UNL     1       2.038   7.757  19.147  0.00  0.00    +0.000 A 
ATOM     25  C   UNL     1       2.793   8.185  18.019  0.00  0.00    +0.000 A 
ATOM     26  C   UNL     1       3.700   7.354  17.359  0.00  0.00    +0.000 A 
ATOM     27  C   UNL     1       3.880   6.053  17.796  0.00  0.00    +0.000 A 
ATOM     28  C   UNL     1       3.212   5.641  18.947  0.00  0.00    +0.000 A 
ATOM     29  C   UNL     1       2.323   6.483  19.652  0.00  0.00    +0.000 A 
BRANCH  27  30
ATOM     30  O   UNL     1       4.737   5.292  17.051  0.00  0.00    +0.000 OA
ATOM     31  C   UNL     1       4.501   3.888  17.075  0.00  0.00    +0.000 C 
ENDBRANCH  27  30
BRANCH  29  32
ATOM     32  O   UNL     1       1.885   5.854  20.783  0.00  0.00    +0.000 OA
ATOM     33  C   UNL     1       1.992   4.451  20.921  0.00  0.00    +0.000 C 
ENDBRANCH  29  32
ENDBRANCH  23  24
ENDBRANCH  16  23
TORSDOF 7
ENDMDL
MODEL 4
REMARK VINA RESULT:      -6.7      2.194      3.223
REMARK  Name = 
REMARK  10 active torsions:
REMARK  status: ('A' for Active; 'I' for Inactive)
REMARK    1  A    between atoms: C_2  and  C_3
REMARK    2  A    between atoms: C_3  and  N_4
REMARK    3  A    between atoms: C_12  and  O_13
REMARK    4  A    between atoms: O_13  and  C_14
REMARK    5  A    between atoms: N_21  and  C_22
REMARK    6  A    between atoms: C_22  and  C_23
REMARK    7  A    between atoms: C_26  and  O_27
REMARK    8  A    between atoms: O_27  and  C_28
REMARK    9  A    between atoms: C_30  and  O_31
REMARK   10  A    between atoms: O_31  and  C_32
REMARK                            x       y       z     vdW  Elec       q    Type
REMARK                         _______ _______ _______ _____ _____    ______ ____
ROOT
ATOM      1  N   UNL     1      -0.308  13.636  19.804  0.00  0.00    +0.000 NA
ATOM      2  C   UNL     1      -0.478  13.018  18.465  0.00  0.00    +0.000 C 
ATOM      3  C   UNL     1      -1.317  11.711  18.462  0.00  0.00    +0.000 C 
ATOM      4  C   UNL     1      -2.749  12.035  19.078  0.00  0.00    +0.000 A 
ATOM      5  N   UNL     1      -3.952  12.058  18.390  0.00  0.00    +0.000 N 
ATOM      6  C   UNL     1      -4.994  12.451  19.228  0.00  0.00    +0.000 A 
ATOM      7  C   UNL     1      -6.371  12.654  19.008  0.00  0.00    +0.000 A 
ATOM      8  C   UNL     1      -7.168  13.091  20.095  0.00  0.00    +0.000 A 
ATOM      9  C   UNL     1      -6.619  13.343  21.352  0.00  0.00    +0.000 A 
ATOM     10  C   UNL     1      -5.250  13.170  21.533  0.00  0.00    +0.000 A 
ATOM     11  C   UNL     1      -4.443  12.726  20.470  0.00  0.00    +0.000 A 
ATOM     12  C   UNL     1      -3.059  12.505  20.364  0.00  0.00    +0.000 A 
ATOM     13  C   UNL     1      -2.093  12.821  21.459  0.00  0.00    +0.000 C 
ATOM     14  C   UNL     1      -0.667  12.651  20.922  0.00  0.00    +0.000 C 
ATOM     15  C   UNL     1      -0.613  11.076  20.654  0.00  0.00    +0.000 C 
ATOM     16  N   UNL     1      -0.595  10.646  19.237  0.00  0.00    +0.000 NA
ATOM     17  H   UNL     1      -4.065  11.839  17.410  0.00  0.00    +0.000 HD
ENDROOT
BRANCH   9  18
ATOM     18  O   UNL     1      -7.260  13.764  22.484  0.00  0.00    +0.000 OA
ATOM     19  C   UNL     1      -6.699  13.409  23.736  0.00  0.00    +0.000 C 
ENDBRANCH   9  18
BRANCH   1  20
ATOM     20  C   UNL     1      -1.089  14.899  19.867  0.00  0.00    +0.000 C 
BRANCH  20  22
ATOM     21  C   UNL     1       0.609  16.584  19.098  0.00  0.00    +0.000 C 
ATOM     22  C   UNL     1      -0.601  16.021  18.982  0.00  0.00    +0.000 C 
ENDBRANCH  20  22
ENDBRANCH   1  20
BRANCH  16  23
ATOM     23  C   UNL     1       0.854  10.406  18.985  0.00  0.00    +0.000 C 
BRANCH  23  24
ATOM     24  C   UNL     1       1.497   9.040  19.022  0.00  0.00    +0.000 A 
ATOM     25  C   UNL     1       2.318   8.742  17.898  0.00  0.00    +0.000 A 
ATOM     26  C   UNL     1       3.028   7.546  17.779  0.00  0.00    +0.000 A 
ATOM     27  C   UNL     1       2.938   6.593  18.779  0.00  0.00    +0.000 A 
ATOM     28  C   UNL     1       2.206   6.900  19.924  0.00  0.00    +0.000 A 
ATOM     29  C   UNL     1       1.516   8.123  20.080  0.00  0.00    +0.000 A 
BRANCH  27  30
ATOM     30  O   UNL     1       3.614   5.428  18.548  0.00  0.00    +0.000 OA
ATOM     31  C   UNL     1       4.888   5.315  19.174  0.00  0.00    +0.000 C 
ENDBRANCH  27  30
BRANCH  29  32
ATOM     32  O   UNL     1       0.964   8.190  21.327  0.00  0.00    +0.000 OA
ATOM     33  C   UNL     1       1.510   9.036  22.320  0.00  0.00    +0.000 C 
ENDBRANCH  29  32
ENDBRANCH  23  24
ENDBRANCH  16  23
TORSDOF 7
ENDMDL
MODEL 5
REMARK VINA RESULT:      -6.6      3.033      8.520
REMARK  Name = 
REMARK  10 active torsions:
REMARK  status: ('A' for Active; 'I' for Inactive)
REMARK    1  A    between atoms: C_2  and  C_3
REMARK    2  A    between atoms: C_3  and  N_4
REMARK    3  A    between atoms: C_12  and  O_13
REMARK    4  A    between atoms: O_13  and  C_14
REMARK    5  A    between atoms: N_21  and  C_22
REMARK    6  A    between atoms: C_22  and  C_23
REMARK    7  A    between atoms: C_26  and  O_27
REMARK    8  A    between atoms: O_27  and  C_28
REMARK    9  A    between atoms: C_30  and  O_31
REMARK   10  A    between atoms: O_31  and  C_32
REMARK                            x       y       z     vdW  Elec       q    Type
REMARK                         _______ _______ _______ _____ _____    ______ ____
ROOT
ATOM      1  N   UNL     1      -1.221  11.004  19.522  0.00  0.00    +0.000 NA
ATOM      2  C   UNL     1      -0.414  11.748  18.524  0.00  0.00    +0.000 C 
ATOM      3  C   UNL     1       1.115  11.740  18.797  0.00  0.00    +0.000 C 
ATOM      4  C   UNL     1       1.605  10.225  18.849  0.00  0.00    +0.000 A 
ATOM      5  N   UNL     1       2.411   9.592  17.916  0.00  0.00    +0.000 N 
ATOM      6  C   UNL     1       2.580   8.247  18.240  0.00  0.00    +0.000 A 
ATOM      7  C   UNL     1       3.271   7.192  17.609  0.00  0.00    +0.000 A 
ATOM      8  C   UNL     1       3.219   5.906  18.201  0.00  0.00    +0.000 A 
ATOM      9  C   UNL     1       2.489   5.664  19.365  0.00  0.00    +0.000 A 
ATOM     10  C   UNL     1       1.787   6.714  19.947  0.00  0.00    +0.000 A 
ATOM     11  C   UNL     1       1.835   8.001  19.382  0.00  0.00    +0.000 A 
ATOM     12  C   UNL     1       1.207   9.210  19.731  0.00  0.00    +0.000 A 
ATOM     13  C   UNL     1       0.207   9.324  20.836  0.00  0.00    +0.000 C 
ATOM     14  C   UNL     1      -0.414  10.724  20.795  0.00  0.00    +0.000 C 
ATOM     15  C   UNL     1       0.841  11.641  21.168  0.00  0.00    +0.000 C 
ATOM     16  N   UNL     1       1.402  12.472  20.078  0.00  0.00    +0.000 NA
ATOM     17  H   UNL     1       2.812  10.033  17.100  0.00  0.00    +0.000 HD
ENDROOT
BRANCH   9  18
ATOM     18  O   UNL     1       2.352   4.485  20.044  0.00  0.00    +0.000 OA
ATOM     19  C   UNL     1       1.195   3.706  19.793  0.00  0.00    +0.000 C 
ENDBRANCH   9  18
BRANCH   1  20
ATOM     20  C   UNL     1      -1.767   9.771  18.896  0.00  0.00    +0.000 C 
BRANCH  20  22
ATOM     21  C   UNL     1      -3.655  10.307  17.328  0.00  0.00    +0.000 C 
ATOM     22  C   UNL     1      -2.382   9.942  17.528  0.00  0.00    +0.000 C 
ENDBRANCH  20  22
ENDBRANCH   1  20
BRANCH  16  23
ATOM     23  C   UNL     1       0.775  13.801  20.322  0.00  0.00    +0.000 C 
BRANCH  23  24
ATOM     24  C   UNL     1       1.062  15.030  19.492  0.00  0.00    +0.000 A 
ATOM     25  C   UNL     1      -0.067  15.862  19.257  0.00  0.00    +0.000 A 
ATOM     26  C   UNL     1       0.014  17.062  18.548  0.00  0.00    +0.000 A 
ATOM     27  C   UNL     1       1.233  17.474  18.037  0.00  0.00    +0.000 A 
ATOM     28  C   UNL     1       2.365  16.715  18.327  0.00  0.00    +0.000 A 
ATOM     29  C   UNL     1       2.306  15.520  19.079  0.00  0.00    +0.000 A 
BRANCH  27  30
ATOM     30  O   UNL     1       1.207  18.626  17.302  0.00  0.00    +0.000 OA
ATOM     31  C   UNL     1       0.716  18.503  15.971  0.00  0.00    +0.000 C 
ENDBRANCH  27  30
BRANCH  29  32
ATOM     32  O   UNL     1       3.568  15.038  19.284  0.00  0.00    +0.000 OA
ATOM     33  C   UNL     1       4.349  14.563  18.205  0.00  0.00    +0.000 C 
ENDBRANCH  29  32
ENDBRANCH  23  24
ENDBRANCH  16  23
TORSDOF 7
ENDMDL
MODEL 6
REMARK VINA RESULT:      -6.6      1.076      1.205
REMARK  Name = 
REMARK  10 active torsions:
REMARK  status: ('A' for Active; 'I' for Inactive)
REMARK    1  A    between atoms: C_2  and  C_3
REMARK    2  A    between atoms: C_3  and  N_4
REMARK    3  A    between atoms: C_12  and  O_13
REMARK    4  A    between atoms: O_13  and  C_14
REMARK    5  A    between atoms: N_21  and  C_22
REMARK    6  A    between atoms: C_22  and  C_23
REMARK    7  A    between atoms: C_26  and  O_27
REMARK    8  A    between atoms: O_27  and  C_28
REMARK    9  A    between atoms: C_30  and  O_31
REMARK   10  A    between atoms: O_31  and  C_32
REMARK                            x       y       z     vdW  Elec       q    Type
REMARK                         _______ _______ _______ _____ _____    ______ ____
ROOT
ATOM      1  N   UNL     1       1.125  12.038  19.872  0.00  0.00    +0.000 NA
ATOM      2  C   UNL     1       1.220  11.210  18.644  0.00  0.00    +0.000 C 
ATOM      3  C   UNL     1       0.175  10.064  18.558  0.00  0.00    +0.000 C 
ATOM      4  C   UNL     1      -1.279  10.707  18.648  0.00  0.00    +0.000 A 
ATOM      5  N   UNL     1      -2.210  10.776  17.623  0.00  0.00    +0.000 N 
ATOM      6  C   UNL     1      -3.347  11.470  18.033  0.00  0.00    +0.000 A 
ATOM      7  C   UNL     1      -4.538  11.828  17.371  0.00  0.00    +0.000 A 
ATOM      8  C   UNL     1      -5.507  12.576  18.086  0.00  0.00    +0.000 A 
ATOM      9  C   UNL     1      -5.295  12.978  19.405  0.00  0.00    +0.000 A 
ATOM     10  C   UNL     1      -4.095  12.642  20.024  0.00  0.00    +0.000 A 
ATOM     11  C   UNL     1      -3.126  11.890  19.335  0.00  0.00    +0.000 A 
ATOM     12  C   UNL     1      -1.840  11.452  19.696  0.00  0.00    +0.000 A 
ATOM     13  C   UNL     1      -1.179  11.824  20.985  0.00  0.00    +0.000 C 
ATOM     14  C   UNL     1       0.277  11.347  20.946  0.00  0.00    +0.000 C 
ATOM     15  C   UNL     1       0.093   9.759  20.925  0.00  0.00    +0.000 C 
ATOM     16  N   UNL     1       0.424   9.070  19.657  0.00  0.00    +0.000 NA
ATOM     17  H   UNL     1      -2.084  10.394  16.696  0.00  0.00    +0.000 HD
ENDROOT
BRANCH   9  18
ATOM     18  O   UNL     1      -6.133  13.695  20.213  0.00  0.00    +0.000 OA
ATOM     19  C   UNL     1      -6.659  13.052  21.361  0.00  0.00    +0.000 C 
ENDBRANCH   9  18
BRANCH   1  20
ATOM     20  C   UNL     1       0.623  13.391  19.516  0.00  0.00    +0.000 C 
BRANCH  20  22
ATOM     21  C   UNL     1       2.231  15.150  18.722  0.00  0.00    +0.000 C 
ATOM     22  C   UNL     1       1.407  14.128  18.457  0.00  0.00    +0.000 C 
ENDBRANCH  20  22
ENDBRANCH   1  20
BRANCH  16  23
ATOM     23  C   UNL     1       1.808   8.576  19.903  0.00  0.00    +0.000 C 
BRANCH  23  24
ATOM     24  C   UNL     1       2.387   7.343  19.251  0.00  0.00    +0.000 A 
ATOM     25  C   UNL     1       3.173   7.600  18.093  0.00  0.00    +0.000 A 
ATOM     26  C   UNL     1       3.825   6.590  17.384  0.00  0.00    +0.000 A 
ATOM     27  C   UNL     1       3.708   5.275  17.802  0.00  0.00    +0.000 A 
ATOM     28  C   UNL     1       3.011   5.013  18.980  0.00  0.00    +0.000 A 
ATOM     29  C   UNL     1       2.382   6.029  19.733  0.00  0.00    +0.000 A 
BRANCH  27  30
ATOM     30  O   UNL     1       4.325   4.346  17.012  0.00  0.00    +0.000 OA
ATOM     31  C   UNL     1       4.182   2.990  17.422  0.00  0.00    +0.000 C 
ENDBRANCH  27  30
BRANCH  29  32
ATOM     32  O   UNL     1       1.855   5.501  20.878  0.00  0.00    +0.000 OA
ATOM     33  C   UNL     1       2.122   4.163  21.250  0.00  0.00    +0.000 C 
ENDBRANCH  29  32
ENDBRANCH  23  24
ENDBRANCH  16  23
TORSDOF 7
ENDMDL
MODEL 7
REMARK VINA RESULT:      -6.5      2.318      3.975
REMARK  Name = 
REMARK  10 active torsions:
REMARK  status: ('A' for Active; 'I' for Inactive)
REMARK    1  A    between atoms: C_2  and  C_3
REMARK    2  A    between atoms: C_3  and  N_4
REMARK    3  A    between atoms: C_12  and  O_13
REMARK    4  A    between atoms: O_13  and  C_14
REMARK    5  A    between atoms: N_21  and  C_22
REMARK    6  A    between atoms: C_22  and  C_23
REMARK    7  A    between atoms: C_26  and  O_27
REMARK    8  A    between atoms: O_27  and  C_28
REMARK    9  A    between atoms: C_30  and  O_31
REMARK   10  A    between atoms: O_31  and  C_32
REMARK                            x       y       z     vdW  Elec       q    Type
REMARK                         _______ _______ _______ _____ _____    ______ ____
ROOT
ATOM      1  N   UNL     1      -0.220   9.942  20.429  0.00  0.00    +0.000 NA
ATOM      2  C   UNL     1       1.245   9.732  20.327  0.00  0.00    +0.000 C 
ATOM      3  C   UNL     1       1.880  10.254  19.010  0.00  0.00    +0.000 C 
ATOM      4  C   UNL     1       1.561  11.809  18.884  0.00  0.00    +0.000 A 
ATOM      5  N   UNL     1       2.477  12.845  18.991  0.00  0.00    +0.000 N 
ATOM      6  C   UNL     1       1.838  14.081  18.901  0.00  0.00    +0.000 A 
ATOM      7  C   UNL     1       2.309  15.407  18.978  0.00  0.00    +0.000 A 
ATOM      8  C   UNL     1       1.368  16.461  18.872  0.00  0.00    +0.000 A 
ATOM      9  C   UNL     1       0.004  16.214  18.719  0.00  0.00    +0.000 A 
ATOM     10  C   UNL     1      -0.439  14.896  18.683  0.00  0.00    +0.000 A 
ATOM     11  C   UNL     1       0.480  13.835  18.775  0.00  0.00    +0.000 A 
ATOM     12  C   UNL     1       0.310  12.439  18.803  0.00  0.00    +0.000 A 
ATOM     13  C   UNL     1      -1.030  11.777  18.826  0.00  0.00    +0.000 C 
ATOM     14  C   UNL     1      -0.832  10.275  19.064  0.00  0.00    +0.000 C 
ATOM     15  C   UNL     1      -0.087   9.835  17.720  0.00  0.00    +0.000 C 
ATOM     16  N   UNL     1       1.344   9.470  17.846  0.00  0.00    +0.000 NA
ATOM     17  H   UNL     1       3.470  12.730  19.132  0.00  0.00    +0.000 HD
ENDROOT
BRANCH   9  18
ATOM     18  O   UNL     1      -1.010  17.124  18.603  0.00  0.00    +0.000 OA
ATOM     19  C   UNL     1      -1.856  17.322  19.722  0.00  0.00    +0.000 C 
ENDBRANCH   9  18
BRANCH   1  20
ATOM     20  C   UNL     1      -0.500  10.976  21.460  0.00  0.00    +0.000 C 
BRANCH  20  22
ATOM     21  C   UNL     1      -0.133   9.552  23.497  0.00  0.00    +0.000 C 
ATOM     22  C   UNL     1      -0.861  10.458  22.832  0.00  0.00    +0.000 C 
ENDBRANCH  20  22
ENDBRANCH   1  20
BRANCH  16  23
ATOM     23  C   UNL     1       1.298   7.983  17.918  0.00  0.00    +0.000 C 
BRANCH  23  24
ATOM     24  C   UNL     1       2.499   7.120  18.225  0.00  0.00    +0.000 A 
ATOM     25  C   UNL     1       3.609   7.322  17.358  0.00  0.00    +0.000 A 
ATOM     26  C   UNL     1       4.821   6.647  17.515  0.00  0.00    +0.000 A 
ATOM     27  C   UNL     1       4.967   5.732  18.544  0.00  0.00    +0.000 A 
ATOM     28  C   UNL     1       3.921   5.581  19.451  0.00  0.00    +0.000 A 
ATOM     29  C   UNL     1       2.703   6.288  19.331  0.00  0.00    +0.000 A 
BRANCH  27  30
ATOM     30  O   UNL     1       6.163   5.072  18.582  0.00  0.00    +0.000 OA
ATOM     31  C   UNL     1       7.011   5.256  17.453  0.00  0.00    +0.000 C 
ENDBRANCH  27  30
BRANCH  29  32
ATOM     32  O   UNL     1       1.899   6.014  20.402  0.00  0.00    +0.000 OA
ATOM     33  C   UNL     1       1.606   4.680  20.767  0.00  0.00    +0.000 C 
ENDBRANCH  29  32
ENDBRANCH  23  24
ENDBRANCH  16  23
TORSDOF 7
ENDMDL
MODEL 8
REMARK VINA RESULT:      -6.5      1.806      3.052
REMARK  Name = 
REMARK  10 active torsions:
REMARK  status: ('A' for Active; 'I' for Inactive)
REMARK    1  A    between atoms: C_2  and  C_3
REMARK    2  A    between atoms: C_3  and  N_4
REMARK    3  A    between atoms: C_12  and  O_13
REMARK    4  A    between atoms: O_13  and  C_14
REMARK    5  A    between atoms: N_21  and  C_22
REMARK    6  A    between atoms: C_22  and  C_23
REMARK    7  A    between atoms: C_26  and  O_27
REMARK    8  A    between atoms: O_27  and  C_28
REMARK    9  A    between atoms: C_30  and  O_31
REMARK   10  A    between atoms: O_31  and  C_32
REMARK                            x       y       z     vdW  Elec       q    Type
REMARK                         _______ _______ _______ _____ _____    ______ ____
ROOT
ATOM      1  N   UNL     1       1.572  12.233  20.018  0.00  0.00    +0.000 NA
ATOM      2  C   UNL     1       1.218  11.684  18.686  0.00  0.00    +0.000 C 
ATOM      3  C   UNL     1       0.105  10.601  18.712  0.00  0.00    +0.000 C 
ATOM      4  C   UNL     1      -1.193  11.235  19.382  0.00  0.00    +0.000 A 
ATOM      5  N   UNL     1      -2.383  11.537  18.739  0.00  0.00    +0.000 N 
ATOM      6  C   UNL     1      -3.279  12.147  19.617  0.00  0.00    +0.000 A 
ATOM      7  C   UNL     1      -4.581  12.659  19.450  0.00  0.00    +0.000 A 
ATOM      8  C   UNL     1      -5.218  13.254  20.567  0.00  0.00    +0.000 A 
ATOM      9  C   UNL     1      -4.581  13.362  21.803  0.00  0.00    +0.000 A 
ATOM     10  C   UNL     1      -3.281  12.881  21.931  0.00  0.00    +0.000 A 
ATOM     11  C   UNL     1      -2.636  12.277  20.838  0.00  0.00    +0.000 A 
ATOM     12  C   UNL     1      -1.342  11.750  20.679  0.00  0.00    +0.000 A 
ATOM     13  C   UNL     1      -0.290  11.827  21.738  0.00  0.00    +0.000 C 
ATOM     14  C   UNL     1       1.039  11.344  21.147  0.00  0.00    +0.000 C 
ATOM     15  C   UNL     1       0.726   9.801  20.875  0.00  0.00    +0.000 C 
ATOM     16  N   UNL     1       0.594   9.392  19.457  0.00  0.00    +0.000 NA
ATOM     17  H   UNL     1      -2.580  11.359  17.765  0.00  0.00    +0.000 HD
ENDROOT
BRANCH   9  18
ATOM     18  O   UNL     1      -5.069  13.905  22.959  0.00  0.00    +0.000 OA
ATOM     19  C   UNL     1      -5.587  13.023  23.939  0.00  0.00    +0.000 C 
ENDBRANCH   9  18
BRANCH   1  20
ATOM     20  C   UNL     1       1.101  13.640  20.113  0.00  0.00    +0.000 C 
BRANCH  20  22
ATOM     21  C   UNL     1      -0.249  15.286  18.780  0.00  0.00    +0.000 C 
ATOM     22  C   UNL     1       0.610  14.260  18.827  0.00  0.00    +0.000 C 
ENDBRANCH  20  22
ENDBRANCH   1  20
BRANCH  16  23
ATOM     23  C   UNL     1       1.941   8.833  19.151  0.00  0.00    +0.000 C 
BRANCH  23  24
ATOM     24  C   UNL     1       2.312   7.382  19.348  0.00  0.00    +0.000 A 
ATOM     25  C   UNL     1       1.656   6.748  20.440  0.00  0.00    +0.000 A 
ATOM     26  C   UNL     1       1.840   5.399  20.749  0.00  0.00    +0.000 A 
ATOM     27  C   UNL     1       2.697   4.630  19.980  0.00  0.00    +0.000 A 
ATOM     28  C   UNL     1       3.284   5.213  18.858  0.00  0.00    +0.000 A 
ATOM     29  C   UNL     1       3.075   6.565  18.507  0.00  0.00    +0.000 A 
BRANCH  27  30
ATOM     30  O   UNL     1       2.866   3.339  20.394  0.00  0.00    +0.000 OA
ATOM     31  C   UNL     1       1.980   2.894  21.416  0.00  0.00    +0.000 C 
ENDBRANCH  27  30
BRANCH  29  32
ATOM     32  O   UNL     1       3.696   6.838  17.321  0.00  0.00    +0.000 OA
ATOM     33  C   UNL     1       5.107   6.852  17.226  0.00  0.00    +0.000 C 
ENDBRANCH  29  32
ENDBRANCH  23  24
ENDBRANCH  16  23
TORSDOF 7
ENDMDL
MODEL 9
REMARK VINA RESULT:      -6.4      2.746      3.978
REMARK  Name = 
REMARK  10 active torsions:
REMARK  status: ('A' for Active; 'I' for Inactive)
REMARK    1  A    between atoms: C_2  and  C_3
REMARK    2  A    between atoms: C_3  and  N_4
REMARK    3  A    between atoms: C_12  and  O_13
REMARK    4  A    between atoms: O_13  and  C_14
REMARK    5  A    between atoms: N_21  and  C_22
REMARK    6  A    between atoms: C_22  and  C_23
REMARK    7  A    between atoms: C_26  and  O_27
REMARK    8  A    between atoms: O_27  and  C_28
REMARK    9  A    between atoms: C_30  and  O_31
REMARK   10  A    between atoms: O_31  and  C_32
REMARK                            x       y       z     vdW  Elec       q    Type
REMARK                         _______ _______ _______ _____ _____    ______ ____
ROOT
ATOM      1  N   UNL     1       0.466  14.287  19.662  0.00  0.00    +0.000 NA
ATOM      2  C   UNL     1      -0.177  13.515  18.570  0.00  0.00    +0.000 C 
ATOM      3  C   UNL     1      -1.073  12.342  19.052  0.00  0.00    +0.000 C 
ATOM      4  C   UNL     1      -2.198  12.935  20.010  0.00  0.00    +0.000 A 
ATOM      5  N   UNL     1      -3.553  13.019  19.730  0.00  0.00    +0.000 N 
ATOM      6  C   UNL     1      -4.234  13.659  20.765  0.00  0.00    +0.000 A 
ATOM      7  C   UNL     1      -5.587  14.009  20.945  0.00  0.00    +0.000 A 
ATOM      8  C   UNL     1      -5.952  14.695  22.130  0.00  0.00    +0.000 A 
ATOM      9  C   UNL     1      -5.007  15.046  23.094  0.00  0.00    +0.000 A 
ATOM     10  C   UNL     1      -3.672  14.722  22.875  0.00  0.00    +0.000 A 
ATOM     11  C   UNL     1      -3.291  14.031  21.711  0.00  0.00    +0.000 A 
ATOM     12  C   UNL     1      -2.037  13.618  21.226  0.00  0.00    +0.000 A 
ATOM     13  C   UNL     1      -0.746  13.954  21.900  0.00  0.00    +0.000 C 
ATOM     14  C   UNL     1       0.410  13.525  20.990  0.00  0.00    +0.000 C 
ATOM     15  C   UNL     1       0.249  11.935  20.999  0.00  0.00    +0.000 C 
ATOM     16  N   UNL     1      -0.227  11.311  19.742  0.00  0.00    +0.000 NA
ATOM     17  H   UNL     1      -3.995  12.681  18.887  0.00  0.00    +0.000 HD
ENDROOT
BRANCH   9  18
ATOM     18  O   UNL     1      -5.212  15.702  24.276  0.00  0.00    +0.000 OA
ATOM     19  C   UNL     1      -4.131  16.436  24.825  0.00  0.00    +0.000 C 
ENDBRANCH   9  18
BRANCH   1  20
ATOM     20  C   UNL     1      -0.148  15.638  19.740  0.00  0.00    +0.000 C 
BRANCH  20  22
ATOM     21  C   UNL     1       0.192  17.432  18.014  0.00  0.00    +0.000 C 
ATOM     22  C   UNL     1      -0.425  16.314  18.418  0.00  0.00    +0.000 C 
ENDBRANCH  20  22
ENDBRANCH   1  20
BRANCH  16  23
ATOM     23  C   UNL     1       1.039  10.850  19.105  0.00  0.00    +0.000 C 
BRANCH  23  24
ATOM     24  C   UNL     1       1.503   9.413  19.105  0.00  0.00    +0.000 A 
ATOM     25  C   UNL     1       2.173   9.008  17.917  0.00  0.00    +0.000 A 
ATOM     26  C   UNL     1       2.712   7.730  17.753  0.00  0.00    +0.000 A 
ATOM     27  C   UNL     1       2.591   6.800  18.771  0.00  0.00    +0.000 A 
ATOM     28  C   UNL     1       2.011   7.203  19.972  0.00  0.00    +0.000 A 
ATOM     29  C   UNL     1       1.499   8.505  20.170  0.00  0.00    +0.000 A 
BRANCH  27  30
ATOM     30  O   UNL     1       3.089   5.557  18.499  0.00  0.00    +0.000 OA
ATOM     31  C   UNL     1       4.037   5.487  17.438  0.00  0.00    +0.000 C 
ENDBRANCH  27  30
BRANCH  29  32
ATOM     32  O   UNL     1       1.075   8.646  21.461  0.00  0.00    +0.000 OA
ATOM     33  C   UNL     1      -0.271   8.395  21.815  0.00  0.00    +0.000 C 
ENDBRANCH  29  32
ENDBRANCH  23  24
ENDBRANCH  16  23
TORSDOF 7
ENDMDL
