MODEL 1
REMARK VINA RESULT:      -7.3      0.000      0.000
REMARK  Name = 
REMARK  12 active torsions:
REMARK  status: ('A' for Active; 'I' for Inactive)
REMARK    1  A    between atoms: C_1  and  C_2
REMARK    2  A    between atoms: C_2  and  C_3
REMARK    3  A    between atoms: C_2  and  N_4
REMARK    4  A    between atoms: N_4  and  C_5
REMARK    5  A    between atoms: N_4  and  C_23
REMARK    6  A    between atoms: C_5  and  C_6
REMARK    7  A    between atoms: C_6  and  O_7
REMARK    8  A    between atoms: O_7  and  C_8
REMARK    9  A    between atoms: C_8  and  C_10
REMARK   10  A    between atoms: C_12  and  O_13
REMARK   11  A    between atoms: C_23  and  C_24
REMARK   12  A    between atoms: C_23  and  C_25
REMARK                            x       y       z     vdW  Elec       q    Type
REMARK                         _______ _______ _______ _____ _____    ______ ____
ROOT
ATOM      1  C   UNL     1       2.141   7.072  19.630  0.00  0.00    +0.000 A 
ATOM      2  C   UNL     1       2.339   7.852  18.506  0.00  0.00    +0.000 A 
ATOM      3  C   UNL     1       1.771   9.124  18.493  0.00  0.00    +0.000 A 
ATOM      4  C   UNL     1       1.012   9.626  19.589  0.00  0.00    +0.000 A 
ATOM      5  C   UNL     1       0.364  10.899  19.700  0.00  0.00    +0.000 A 
ATOM      6 CL   UNL     1       0.373  12.084  18.436  0.00  0.00    +0.000 Cl
ATOM      7  C   UNL     1      -0.334  11.264  20.854  0.00  0.00    +0.000 A 
ATOM      8  C   UNL     1      -0.404  10.377  21.911  0.00  0.00    +0.000 A 
ATOM      9 CL   UNL     1      -1.254  10.814  23.342  0.00  0.00    +0.000 Cl
ATOM     10  C   UNL     1       0.212   9.135  21.823  0.00  0.00    +0.000 A 
ATOM     11  C   UNL     1       0.900   8.745  20.685  0.00  0.00    +0.000 A 
ATOM     12  N   UNL     1       1.440   7.516  20.705  0.00  0.00    +0.000 NA
ENDROOT
BRANCH   1  13
ATOM     13  C   UNL     1       2.751   5.702  19.787  0.00  0.00    +0.000 C 
ATOM     14  O   UNL     1       2.570   4.983  20.758  0.00  0.00    +0.000 OA
BRANCH  13  15
ATOM     15  O   UNL     1       3.611   5.425  18.764  0.00  0.00    +0.000 OA
BRANCH  15  16
ATOM     16  C   UNL     1       4.407   4.235  18.952  0.00  0.00    +0.000 C 
BRANCH  16  17
ATOM     17  C   UNL     1       5.876   4.390  18.506  0.00  0.00    +0.000 C 
BRANCH  17  18
ATOM     18  N   UNL     1       6.154   5.541  17.575  0.00  0.00    +0.000 NA
BRANCH  18  20
ATOM     19  C   UNL     1       5.151   6.329  15.400  0.00  0.00    +0.000 C 
ATOM     20  C   UNL     1       5.827   5.163  16.159  0.00  0.00    +0.000 C 
ATOM     21  C   UNL     1       7.005   4.724  15.273  0.00  0.00    +0.000 C 
ENDBRANCH  18  20
BRANCH  18  22
ATOM     22  C   UNL     1       7.515   6.126  17.820  0.00  0.00    +0.000 C 
ATOM     23  C   UNL     1       7.646   7.650  17.646  0.00  0.00    +0.000 C 
ATOM     24  C   UNL     1       8.014   5.854  19.261  0.00  0.00    +0.000 C 
ENDBRANCH  18  22
ENDBRANCH  17  18
ENDBRANCH  16  17
ENDBRANCH  15  16
ENDBRANCH  13  15
ENDBRANCH   1  13
BRANCH   3  25
ATOM     25  O   UNL     1       1.976   9.910  17.391  0.00  0.00    +0.000 OA
ATOM     26  H   UNL     1       1.688   9.458  16.581  0.00  0.00    +0.000 HD
ENDBRANCH   3  25
TORSDOF 8
ENDMDL
MODEL 2
REMARK VINA RESULT:      -6.9      1.232      2.212
REMARK  Name = 
REMARK  12 active torsions:
REMARK  status: ('A' for Active; 'I' for Inactive)
REMARK    1  A    between atoms: C_1  and  C_2
REMARK    2  A    between atoms: C_2  and  C_3
REMARK    3  A    between atoms: C_2  and  N_4
REMARK    4  A    between atoms: N_4  and  C_5
REMARK    5  A    between atoms: N_4  and  C_23
REMARK    6  A    between atoms: C_5  and  C_6
REMARK    7  A    between atoms: C_6  and  O_7
REMARK    8  A    between atoms: O_7  and  C_8
REMARK    9  A    between atoms: C_8  and  C_10
REMARK   10  A    between atoms: C_12  and  O_13
REMARK   11  A    between atoms: C_23  and  C_24
REMARK   12  A    between atoms: C_23  and  C_25
REMARK                            x       y       z     vdW  Elec       q    Type
REMARK                         _______ _______ _______ _____ _____    ______ ____
ROOT
ATOM      1  C   UNL     1       2.191   7.450  19.546  0.00  0.00    +0.000 A 
ATOM      2  C   UNL     1       2.313   8.253  18.427  0.00  0.00    +0.000 A 
ATOM      3  C   UNL     1       1.655   9.481  18.438  0.00  0.00    +0.000 A 
ATOM      4  C   UNL     1       0.882   9.917  19.552  0.00  0.00    +0.000 A 
ATOM      5  C   UNL     1       0.147  11.138  19.689  0.00  0.00    +0.000 A 
ATOM      6 CL   UNL     1       0.047  12.334  18.438  0.00  0.00    +0.000 Cl
ATOM      7  C   UNL     1      -0.555  11.442  20.859  0.00  0.00    +0.000 A 
ATOM      8  C   UNL     1      -0.542  10.541  21.907  0.00  0.00    +0.000 A 
ATOM      9 CL   UNL     1      -1.395  10.902  23.357  0.00  0.00    +0.000 Cl
ATOM     10  C   UNL     1       0.159   9.347  21.794  0.00  0.00    +0.000 A 
ATOM     11  C   UNL     1       0.853   9.020  20.641  0.00  0.00    +0.000 A 
ATOM     12  N   UNL     1       1.480   7.832  20.637  0.00  0.00    +0.000 NA
ENDROOT
BRANCH   1  13
ATOM     13  C   UNL     1       2.900   6.126  19.676  0.00  0.00    +0.000 C 
ATOM     14  O   UNL     1       2.521   5.219  20.402  0.00  0.00    +0.000 OA
BRANCH  13  15
ATOM     15  O   UNL     1       4.068   6.120  18.971  0.00  0.00    +0.000 OA
BRANCH  15  16
ATOM     16  C   UNL     1       5.070   5.209  19.472  0.00  0.00    +0.000 C 
BRANCH  16  17
ATOM     17  C   UNL     1       5.318   3.990  18.559  0.00  0.00    +0.000 C 
BRANCH  17  18
ATOM     18  N   UNL     1       4.743   4.093  17.170  0.00  0.00    +0.000 NA
BRANCH  18  20
ATOM     19  C   UNL     1       3.629   1.997  18.022  0.00  0.00    +0.000 C 
ATOM     20  C   UNL     1       3.565   3.174  17.020  0.00  0.00    +0.000 C 
ATOM     21  C   UNL     1       2.173   3.800  17.211  0.00  0.00    +0.000 C 
ENDBRANCH  18  20
BRANCH  18  22
ATOM     22  C   UNL     1       5.817   3.988  16.126  0.00  0.00    +0.000 C 
ATOM     23  C   UNL     1       5.360   4.114  14.661  0.00  0.00    +0.000 C 
ATOM     24  C   UNL     1       6.898   5.084  16.292  0.00  0.00    +0.000 C 
ENDBRANCH  18  22
ENDBRANCH  17  18
ENDBRANCH  16  17
ENDBRANCH  15  16
ENDBRANCH  13  15
ENDBRANCH   1  13
BRANCH   3  25
ATOM     25  O   UNL     1       1.783  10.291  17.342  0.00  0.00    +0.000 OA
ATOM     26  H   UNL     1       2.653  10.721  17.325  0.00  0.00    +0.000 HD
ENDBRANCH   3  25
TORSDOF 8
ENDMDL
MODEL 3
REMARK VINA RESULT:      -6.9      0.968      1.257
REMARK  Name = 
REMARK  12 active torsions:
REMARK  status: ('A' for Active; 'I' for Inactive)
REMARK    1  A    between atoms: C_1  and  C_2
REMARK    2  A    between atoms: C_2  and  C_3
REMARK    3  A    between atoms: C_2  and  N_4
REMARK    4  A    between atoms: N_4  and  C_5
REMARK    5  A    between atoms: N_4  and  C_23
REMARK    6  A    between atoms: C_5  and  C_6
REMARK    7  A    between atoms: C_6  and  O_7
REMARK    8  A    between atoms: O_7  and  C_8
REMARK    9  A    between atoms: C_8  and  C_10
REMARK   10  A    between atoms: C_12  and  O_13
REMARK   11  A    between atoms: C_23  and  C_24
REMARK   12  A    between atoms: C_23  and  C_25
REMARK                            x       y       z     vdW  Elec       q    Type
REMARK                         _______ _______ _______ _____ _____    ______ ____
ROOT
ATOM      1  C   UNL     1       2.260   6.464  18.851  0.00  0.00    +0.000 A 
ATOM      2  C   UNL     1       2.398   7.436  17.878  0.00  0.00    +0.000 A 
ATOM      3  C   UNL     1       2.005   8.733  18.200  0.00  0.00    +0.000 A 
ATOM      4  C   UNL     1       1.481   9.071  19.481  0.00  0.00    +0.000 A 
ATOM      5  C   UNL     1       1.028  10.351  19.936  0.00  0.00    +0.000 A 
ATOM      6 CL   UNL     1       1.012  11.765  18.936  0.00  0.00    +0.000 Cl
ATOM      7  C   UNL     1       0.554  10.536  21.237  0.00  0.00    +0.000 A 
ATOM      8  C   UNL     1       0.518   9.460  22.104  0.00  0.00    +0.000 A 
ATOM      9 CL   UNL     1      -0.056   9.674  23.712  0.00  0.00    +0.000 Cl
ATOM     10  C   UNL     1       0.947   8.208  21.682  0.00  0.00    +0.000 A 
ATOM     11  C   UNL     1       1.411   7.997  20.394  0.00  0.00    +0.000 A 
ATOM     12  N   UNL     1       1.783   6.742  20.091  0.00  0.00    +0.000 NA
ENDROOT
BRANCH   1  13
ATOM     13  C   UNL     1       2.702   5.038  18.642  0.00  0.00    +0.000 C 
ATOM     14  O   UNL     1       2.240   4.300  17.784  0.00  0.00    +0.000 OA
BRANCH  13  15
ATOM     15  O   UNL     1       3.592   4.651  19.601  0.00  0.00    +0.000 OA
BRANCH  15  16
ATOM     16  C   UNL     1       4.885   5.290  19.515  0.00  0.00    +0.000 C 
BRANCH  16  17
ATOM     17  C   UNL     1       5.740   4.813  18.323  0.00  0.00    +0.000 C 
BRANCH  17  18
ATOM     18  N   UNL     1       6.114   5.878  17.326  0.00  0.00    +0.000 NA
BRANCH  18  20
ATOM     19  C   UNL     1       7.191   4.952  15.243  0.00  0.00    +0.000 C 
ATOM     20  C   UNL     1       5.875   5.395  15.925  0.00  0.00    +0.000 C 
ATOM     21  C   UNL     1       4.908   4.210  15.759  0.00  0.00    +0.000 C 
ENDBRANCH  18  20
BRANCH  18  22
ATOM     22  C   UNL     1       7.472   6.448  17.620  0.00  0.00    +0.000 C 
ATOM     23  C   UNL     1       7.591   7.982  17.593  0.00  0.00    +0.000 C 
ATOM     24  C   UNL     1       7.981   6.042  19.025  0.00  0.00    +0.000 C 
ENDBRANCH  18  22
ENDBRANCH  17  18
ENDBRANCH  16  17
ENDBRANCH  15  16
ENDBRANCH  13  15
ENDBRANCH   1  13
BRANCH   3  25
ATOM     25  O   UNL     1       2.153   9.707  17.249  0.00  0.00    +0.000 OA
ATOM     26  H   UNL     1       1.564   9.549  16.493  0.00  0.00    +0.000 HD
ENDBRANCH   3  25
TORSDOF 8
ENDMDL
MODEL 4
REMARK VINA RESULT:      -6.8      0.970      1.950
REMARK  Name = 
REMARK  12 active torsions:
REMARK  status: ('A' for Active; 'I' for Inactive)
REMARK    1  A    between atoms: C_1  and  C_2
REMARK    2  A    between atoms: C_2  and  C_3
REMARK    3  A    between atoms: C_2  and  N_4
REMARK    4  A    between atoms: N_4  and  C_5
REMARK    5  A    between atoms: N_4  and  C_23
REMARK    6  A    between atoms: C_5  and  C_6
REMARK    7  A    between atoms: C_6  and  O_7
REMARK    8  A    between atoms: O_7  and  C_8
REMARK    9  A    between atoms: C_8  and  C_10
REMARK   10  A    between atoms: C_12  and  O_13
REMARK   11  A    between atoms: C_23  and  C_24
REMARK   12  A    between atoms: C_23  and  C_25
REMARK                            x       y       z     vdW  Elec       q    Type
REMARK                         _______ _______ _______ _____ _____    ______ ____
ROOT
ATOM      1  C   UNL     1       2.392   6.416  19.680  0.00  0.00    +0.000 A 
ATOM      2  C   UNL     1       2.593   7.162  18.534  0.00  0.00    +0.000 A 
ATOM      3  C   UNL     1       2.053   8.445  18.495  0.00  0.00    +0.000 A 
ATOM      4  C   UNL     1       1.318   8.992  19.586  0.00  0.00    +0.000 A 
ATOM      5  C   UNL     1       0.699  10.281  19.672  0.00  0.00    +0.000 A 
ATOM      6 CL   UNL     1       0.717  11.433  18.377  0.00  0.00    +0.000 Cl
ATOM      7  C   UNL     1       0.024  10.691  20.824  0.00  0.00    +0.000 A 
ATOM      8  C   UNL     1      -0.052   9.833  21.905  0.00  0.00    +0.000 A 
ATOM      9 CL   UNL     1      -0.874  10.325  23.334  0.00  0.00    +0.000 Cl
ATOM     10  C   UNL     1       0.536   8.576  21.841  0.00  0.00    +0.000 A 
ATOM     11  C   UNL     1       1.202   8.143  20.706  0.00  0.00    +0.000 A 
ATOM     12  N   UNL     1       1.715   6.902  20.751  0.00  0.00    +0.000 NA
ENDROOT
BRANCH   1  13
ATOM     13  C   UNL     1       2.975   5.038  19.865  0.00  0.00    +0.000 C 
ATOM     14  O   UNL     1       2.336   4.077  20.268  0.00  0.00    +0.000 OA
BRANCH  13  15
ATOM     15  O   UNL     1       4.319   5.035  19.632  0.00  0.00    +0.000 OA
BRANCH  15  16
ATOM     16  C   UNL     1       4.766   4.035  18.691  0.00  0.00    +0.000 C 
BRANCH  16  17
ATOM     17  C   UNL     1       4.984   4.576  17.262  0.00  0.00    +0.000 C 
BRANCH  17  18
ATOM     18  N   UNL     1       6.418   4.643  16.806  0.00  0.00    +0.000 NA
BRANCH  18  20
ATOM     19  C   UNL     1       5.933   7.093  17.155  0.00  0.00    +0.000 C 
ATOM     20  C   UNL     1       7.011   5.984  17.133  0.00  0.00    +0.000 C 
ATOM     21  C   UNL     1       7.751   6.102  18.475  0.00  0.00    +0.000 C 
ENDBRANCH  18  20
BRANCH  18  22
ATOM     22  C   UNL     1       6.563   4.169  15.389  0.00  0.00    +0.000 C 
ATOM     23  C   UNL     1       5.266   4.065  14.566  0.00  0.00    +0.000 C 
ATOM     24  C   UNL     1       7.480   5.098  14.556  0.00  0.00    +0.000 C 
ENDBRANCH  18  22
ENDBRANCH  17  18
ENDBRANCH  16  17
ENDBRANCH  15  16
ENDBRANCH  13  15
ENDBRANCH   1  13
BRANCH   3  25
ATOM     25  O   UNL     1       2.260   9.199  17.371  0.00  0.00    +0.000 OA
ATOM     26  H   UNL     1       3.170   9.100  17.047  0.00  0.00    +0.000 HD
ENDBRANCH   3  25
TORSDOF 8
ENDMDL
MODEL 5
REMARK VINA RESULT:      -6.8      1.138      1.296
REMARK  Name = 
REMARK  12 active torsions:
REMARK  status: ('A' for Active; 'I' for Inactive)
REMARK    1  A    between atoms: C_1  and  C_2
REMARK    2  A    between atoms: C_2  and  C_3
REMARK    3  A    between atoms: C_2  and  N_4
REMARK    4  A    between atoms: N_4  and  C_5
REMARK    5  A    between atoms: N_4  and  C_23
REMARK    6  A    between atoms: C_5  and  C_6
REMARK    7  A    between atoms: C_6  and  O_7
REMARK    8  A    between atoms: O_7  and  C_8
REMARK    9  A    between atoms: C_8  and  C_10
REMARK   10  A    between atoms: C_12  and  O_13
REMARK   11  A    between atoms: C_23  and  C_24
REMARK   12  A    between atoms: C_23  and  C_25
REMARK                            x       y       z     vdW  Elec       q    Type
REMARK                         _______ _______ _______ _____ _____    ______ ____
ROOT
ATOM      1  C   UNL     1       2.164   5.565  19.463  0.00  0.00    +0.000 A 
ATOM      2  C   UNL     1       2.535   6.309  18.359  0.00  0.00    +0.000 A 
ATOM      3  C   UNL     1       2.277   7.678  18.387  0.00  0.00    +0.000 A 
ATOM      4  C   UNL     1       1.659   8.310  19.504  0.00  0.00    +0.000 A 
ATOM      5  C   UNL     1       1.324   9.695  19.656  0.00  0.00    +0.000 A 
ATOM      6 CL   UNL     1       1.604  10.882  18.426  0.00  0.00    +0.000 Cl
ATOM      7  C   UNL     1       0.733  10.178  20.827  0.00  0.00    +0.000 A 
ATOM      8  C   UNL     1       0.462   9.300  21.860  0.00  0.00    +0.000 A 
ATOM      9 CL   UNL     1      -0.259   9.880  23.310  0.00  0.00    +0.000 Cl
ATOM     10  C   UNL     1       0.773   7.952  21.731  0.00  0.00    +0.000 A 
ATOM     11  C   UNL     1       1.349   7.448  20.576  0.00  0.00    +0.000 A 
ATOM     12  N   UNL     1       1.589   6.126  20.557  0.00  0.00    +0.000 NA
ENDROOT
BRANCH   1  13
ATOM     13  C   UNL     1       2.440   4.086  19.575  0.00  0.00    +0.000 C 
ATOM     14  O   UNL     1       1.574   3.226  19.527  0.00  0.00    +0.000 OA
BRANCH  13  15
ATOM     15  O   UNL     1       3.755   3.849  19.849  0.00  0.00    +0.000 OA
BRANCH  15  16
ATOM     16  C   UNL     1       4.623   3.864  18.695  0.00  0.00    +0.000 C 
BRANCH  16  17
ATOM     17  C   UNL     1       5.895   4.718  18.881  0.00  0.00    +0.000 C 
BRANCH  17  18
ATOM     18  N   UNL     1       6.159   5.732  17.798  0.00  0.00    +0.000 NA
BRANCH  18  20
ATOM     19  C   UNL     1       5.114   6.266  15.566  0.00  0.00    +0.000 C 
ATOM     20  C   UNL     1       5.767   5.182  16.457  0.00  0.00    +0.000 C 
ATOM     21  C   UNL     1       6.892   4.573  15.604  0.00  0.00    +0.000 C 
ENDBRANCH  18  20
BRANCH  18  22
ATOM     22  C   UNL     1       7.541   6.306  17.913  0.00  0.00    +0.000 C 
ATOM     23  C   UNL     1       7.674   7.822  17.676  0.00  0.00    +0.000 C 
ATOM     24  C   UNL     1       8.151   6.077  19.318  0.00  0.00    +0.000 C 
ENDBRANCH  18  22
ENDBRANCH  17  18
ENDBRANCH  16  17
ENDBRANCH  15  16
ENDBRANCH  13  15
ENDBRANCH   1  13
BRANCH   3  25
ATOM     25  O   UNL     1       2.655   8.428  17.306  0.00  0.00    +0.000 OA
ATOM     26  H   UNL     1       1.950   8.460  16.639  0.00  0.00    +0.000 HD
ENDBRANCH   3  25
TORSDOF 8
ENDMDL
MODEL 6
REMARK VINA RESULT:      -6.8      3.890      8.088
REMARK  Name = 
REMARK  12 active torsions:
REMARK  status: ('A' for Active; 'I' for Inactive)
REMARK    1  A    between atoms: C_1  and  C_2
REMARK    2  A    between atoms: C_2  and  C_3
REMARK    3  A    between atoms: C_2  and  N_4
REMARK    4  A    between atoms: N_4  and  C_5
REMARK    5  A    between atoms: N_4  and  C_23
REMARK    6  A    between atoms: C_5  and  C_6
REMARK    7  A    between atoms: C_6  and  O_7
REMARK    8  A    between atoms: O_7  and  C_8
REMARK    9  A    between atoms: C_8  and  C_10
REMARK   10  A    between atoms: C_12  and  O_13
REMARK   11  A    between atoms: C_23  and  C_24
REMARK   12  A    between atoms: C_23  and  C_25
REMARK                            x       y       z     vdW  Elec       q    Type
REMARK                         _______ _______ _______ _____ _____    ______ ____
ROOT
ATOM      1  C   UNL     1       2.832   7.832  17.862  0.00  0.00    +0.000 A 
ATOM      2  C   UNL     1       3.979   7.843  17.091  0.00  0.00    +0.000 A 
ATOM      3  C   UNL     1       4.571   6.617  16.798  0.00  0.00    +0.000 A 
ATOM      4  C   UNL     1       4.031   5.383  17.262  0.00  0.00    +0.000 A 
ATOM      5  C   UNL     1       4.544   4.063  17.049  0.00  0.00    +0.000 A 
ATOM      6 CL   UNL     1       6.004   3.739  16.172  0.00  0.00    +0.000 Cl
ATOM      7  C   UNL     1       3.890   2.936  17.553  0.00  0.00    +0.000 A 
ATOM      8  C   UNL     1       2.723   3.097  18.276  0.00  0.00    +0.000 A 
ATOM      9 CL   UNL     1       1.902   1.719  18.897  0.00  0.00    +0.000 Cl
ATOM     10  C   UNL     1       2.211   4.369  18.499  0.00  0.00    +0.000 A 
ATOM     11  C   UNL     1       2.847   5.503  18.019  0.00  0.00    +0.000 A 
ATOM     12  N   UNL     1       2.271   6.680  18.311  0.00  0.00    +0.000 NA
ENDROOT
BRANCH   1  13
ATOM     13  C   UNL     1       2.068   9.088  18.199  0.00  0.00    +0.000 C 
ATOM     14  O   UNL     1       2.212  10.151  17.615  0.00  0.00    +0.000 OA
BRANCH  13  15
ATOM     15  O   UNL     1       1.288   8.909  19.304  0.00  0.00    +0.000 OA
BRANCH  15  16
ATOM     16  C   UNL     1       0.608  10.098  19.761  0.00  0.00    +0.000 C 
BRANCH  16  17
ATOM     17  C   UNL     1      -0.873  10.175  19.334  0.00  0.00    +0.000 C 
BRANCH  17  18
ATOM     18  N   UNL     1      -1.138  10.901  18.041  0.00  0.00    +0.000 NA
BRANCH  18  20
ATOM     19  C   UNL     1      -2.206  12.482  19.689  0.00  0.00    +0.000 C 
ATOM     20  C   UNL     1      -1.524  12.327  18.309  0.00  0.00    +0.000 C 
ATOM     21  C   UNL     1      -0.389  13.365  18.293  0.00  0.00    +0.000 C 
ENDBRANCH  18  20
BRANCH  18  22
ATOM     22  C   UNL     1      -2.051  10.111  17.148  0.00  0.00    +0.000 C 
ATOM     23  C   UNL     1      -3.314   9.527  17.806  0.00  0.00    +0.000 C 
ATOM     24  C   UNL     1      -2.583  10.958  15.966  0.00  0.00    +0.000 C 
ENDBRANCH  18  22
ENDBRANCH  17  18
ENDBRANCH  16  17
ENDBRANCH  15  16
ENDBRANCH  13  15
ENDBRANCH   1  13
BRANCH   3  25
ATOM     25  O   UNL     1       5.698   6.615  16.021  0.00  0.00    +0.000 OA
ATOM     26  H   UNL     1       5.489   6.380  15.102  0.00  0.00    +0.000 HD
ENDBRANCH   3  25
TORSDOF 8
ENDMDL
MODEL 7
REMARK VINA RESULT:      -6.7      0.751      2.045
REMARK  Name = 
REMARK  12 active torsions:
REMARK  status: ('A' for Active; 'I' for Inactive)
REMARK    1  A    between atoms: C_1  and  C_2
REMARK    2  A    between atoms: C_2  and  C_3
REMARK    3  A    between atoms: C_2  and  N_4
REMARK    4  A    between atoms: N_4  and  C_5
REMARK    5  A    between atoms: N_4  and  C_23
REMARK    6  A    between atoms: C_5  and  C_6
REMARK    7  A    between atoms: C_6  and  O_7
REMARK    8  A    between atoms: O_7  and  C_8
REMARK    9  A    between atoms: C_8  and  C_10
REMARK   10  A    between atoms: C_12  and  O_13
REMARK   11  A    between atoms: C_23  and  C_24
REMARK   12  A    between atoms: C_23  and  C_25
REMARK                            x       y       z     vdW  Elec       q    Type
REMARK                         _______ _______ _______ _____ _____    ______ ____
ROOT
ATOM      1  C   UNL     1       2.336   6.282  19.590  0.00  0.00    +0.000 A 
ATOM      2  C   UNL     1       2.632   7.048  18.478  0.00  0.00    +0.000 A 
ATOM      3  C   UNL     1       2.176   8.364  18.461  0.00  0.00    +0.000 A 
ATOM      4  C   UNL     1       1.432   8.924  19.539  0.00  0.00    +0.000 A 
ATOM      5  C   UNL     1       0.893  10.247  19.642  0.00  0.00    +0.000 A 
ATOM      6 CL   UNL     1       1.039  11.434  18.389  0.00  0.00    +0.000 Cl
ATOM      7  C   UNL     1       0.196  10.664  20.779  0.00  0.00    +0.000 A 
ATOM      8  C   UNL     1       0.020   9.779  21.827  0.00  0.00    +0.000 A 
ATOM      9 CL   UNL     1      -0.830  10.279  23.237  0.00  0.00    +0.000 Cl
ATOM     10  C   UNL     1       0.529   8.489  21.745  0.00  0.00    +0.000 A 
ATOM     11  C   UNL     1       1.214   8.049  20.624  0.00  0.00    +0.000 A 
ATOM     12  N   UNL     1       1.645   6.778  20.649  0.00  0.00    +0.000 NA
ENDROOT
BRANCH   1  13
ATOM     13  C   UNL     1       2.821   4.864  19.751  0.00  0.00    +0.000 C 
ATOM     14  O   UNL     1       2.641   4.192  20.757  0.00  0.00    +0.000 OA
BRANCH  13  15
ATOM     15  O   UNL     1       3.577   4.476  18.684  0.00  0.00    +0.000 OA
BRANCH  15  16
ATOM     16  C   UNL     1       5.001   4.483  18.919  0.00  0.00    +0.000 C 
BRANCH  16  17
ATOM     17  C   UNL     1       5.837   4.018  17.708  0.00  0.00    +0.000 C 
BRANCH  17  18
ATOM     18  N   UNL     1       6.838   5.016  17.189  0.00  0.00    +0.000 NA
BRANCH  18  20
ATOM     19  C   UNL     1       7.860   5.775  19.366  0.00  0.00    +0.000 C 
ATOM     20  C   UNL     1       6.985   6.161  18.150  0.00  0.00    +0.000 C 
ATOM     21  C   UNL     1       7.603   7.455  17.594  0.00  0.00    +0.000 C 
ENDBRANCH  18  20
BRANCH  18  22
ATOM     22  C   UNL     1       6.564   5.371  15.756  0.00  0.00    +0.000 C 
ATOM     23  C   UNL     1       6.517   4.199  14.759  0.00  0.00    +0.000 C 
ATOM     24  C   UNL     1       5.199   6.083  15.584  0.00  0.00    +0.000 C 
ENDBRANCH  18  22
ENDBRANCH  17  18
ENDBRANCH  16  17
ENDBRANCH  15  16
ENDBRANCH  13  15
ENDBRANCH   1  13
BRANCH   3  25
ATOM     25  O   UNL     1       2.479   9.137  17.372  0.00  0.00    +0.000 OA
ATOM     26  H   UNL     1       2.189  10.055  17.503  0.00  0.00    +0.000 HD
ENDBRANCH   3  25
TORSDOF 8
ENDMDL
MODEL 8
REMARK VINA RESULT:      -6.7      2.203      3.929
REMARK  Name = 
REMARK  12 active torsions:
REMARK  status: ('A' for Active; 'I' for Inactive)
REMARK    1  A    between atoms: C_1  and  C_2
REMARK    2  A    between atoms: C_2  and  C_3
REMARK    3  A    between atoms: C_2  and  N_4
REMARK    4  A    between atoms: N_4  and  C_5
REMARK    5  A    between atoms: N_4  and  C_23
REMARK    6  A    between atoms: C_5  and  C_6
REMARK    7  A    between atoms: C_6  and  O_7
REMARK    8  A    between atoms: O_7  and  C_8
REMARK    9  A    between atoms: C_8  and  C_10
REMARK   10  A    between atoms: C_12  and  O_13
REMARK   11  A    between atoms: C_23  and  C_24
REMARK   12  A    between atoms: C_23  and  C_25
REMARK                            x       y       z     vdW  Elec       q    Type
REMARK                         _______ _______ _______ _____ _____    ______ ____
ROOT
ATOM      1  C   UNL     1       2.884   7.289  18.564  0.00  0.00    +0.000 A 
ATOM      2  C   UNL     1       2.762   8.337  17.672  0.00  0.00    +0.000 A 
ATOM      3  C   UNL     1       2.022   9.446  18.076  0.00  0.00    +0.000 A 
ATOM      4  C   UNL     1       1.407   9.521  19.359  0.00  0.00    +0.000 A 
ATOM      5  C   UNL     1       0.611  10.586  19.892  0.00  0.00    +0.000 A 
ATOM      6 CL   UNL     1       0.219  12.019  19.000  0.00  0.00    +0.000 Cl
ATOM      7  C   UNL     1       0.086  10.527  21.185  0.00  0.00    +0.000 A 
ATOM      8  C   UNL     1       0.337   9.415  21.967  0.00  0.00    +0.000 A 
ATOM      9 CL   UNL     1      -0.297   9.331  23.565  0.00  0.00    +0.000 Cl
ATOM     10  C   UNL     1       1.101   8.368  21.468  0.00  0.00    +0.000 A 
ATOM     11  C   UNL     1       1.623   8.398  20.185  0.00  0.00    +0.000 A 
ATOM     12  N   UNL     1       2.331   7.323  19.803  0.00  0.00    +0.000 NA
ENDROOT
BRANCH   1  13
ATOM     13  C   UNL     1       3.706   6.060  18.265  0.00  0.00    +0.000 C 
ATOM     14  O   UNL     1       3.607   5.408  17.236  0.00  0.00    +0.000 OA
BRANCH  13  15
ATOM     15  O   UNL     1       4.481   5.713  19.333  0.00  0.00    +0.000 OA
BRANCH  15  16
ATOM     16  C   UNL     1       5.162   4.447  19.198  0.00  0.00    +0.000 C 
BRANCH  16  17
ATOM     17  C   UNL     1       4.381   3.253  19.786  0.00  0.00    +0.000 C 
BRANCH  17  18
ATOM     18  N   UNL     1       2.882   3.336  19.666  0.00  0.00    +0.000 NA
BRANCH  18  20
ATOM     19  C   UNL     1       1.063   4.657  20.807  0.00  0.00    +0.000 C 
ATOM     20  C   UNL     1       2.269   3.705  20.986  0.00  0.00    +0.000 C 
ATOM     21  C   UNL     1       1.753   2.546  21.856  0.00  0.00    +0.000 C 
ENDBRANCH  18  20
BRANCH  18  22
ATOM     22  C   UNL     1       2.322   2.125  18.977  0.00  0.00    +0.000 C 
ATOM     23  C   UNL     1       0.822   2.167  18.632  0.00  0.00    +0.000 C 
ATOM     24  C   UNL     1       3.025   1.847  17.626  0.00  0.00    +0.000 C 
ENDBRANCH  18  22
ENDBRANCH  17  18
ENDBRANCH  16  17
ENDBRANCH  15  16
ENDBRANCH  13  15
ENDBRANCH   1  13
BRANCH   3  25
ATOM     25  O   UNL     1       1.908  10.497  17.206  0.00  0.00    +0.000 OA
ATOM     26  H   UNL     1       0.990  10.810  17.155  0.00  0.00    +0.000 HD
ENDBRANCH   3  25
TORSDOF 8
ENDMDL
MODEL 9
REMARK VINA RESULT:      -6.6      3.773      8.259
REMARK  Name = 
REMARK  12 active torsions:
REMARK  status: ('A' for Active; 'I' for Inactive)
REMARK    1  A    between atoms: C_1  and  C_2
REMARK    2  A    between atoms: C_2  and  C_3
REMARK    3  A    between atoms: C_2  and  N_4
REMARK    4  A    between atoms: N_4  and  C_5
REMARK    5  A    between atoms: N_4  and  C_23
REMARK    6  A    between atoms: C_5  and  C_6
REMARK    7  A    between atoms: C_6  and  O_7
REMARK    8  A    between atoms: O_7  and  C_8
REMARK    9  A    between atoms: C_8  and  C_10
REMARK   10  A    between atoms: C_12  and  O_13
REMARK   11  A    between atoms: C_23  and  C_24
REMARK   12  A    between atoms: C_23  and  C_25
REMARK                            x       y       z     vdW  Elec       q    Type
REMARK                         _______ _______ _______ _____ _____    ______ ____
ROOT
ATOM      1  C   UNL     1       2.170   6.675  19.835  0.00  0.00    +0.000 A 
ATOM      2  C   UNL     1       1.882   5.443  20.391  0.00  0.00    +0.000 A 
ATOM      3  C   UNL     1       2.426   4.315  19.780  0.00  0.00    +0.000 A 
ATOM      4  C   UNL     1       3.256   4.404  18.626  0.00  0.00    +0.000 A 
ATOM      5  C   UNL     1       3.864   3.333  17.894  0.00  0.00    +0.000 A 
ATOM      6 CL   UNL     1       3.647   1.662  18.299  0.00  0.00    +0.000 Cl
ATOM      7  C   UNL     1       4.676   3.576  16.784  0.00  0.00    +0.000 A 
ATOM      8  C   UNL     1       4.897   4.879  16.379  0.00  0.00    +0.000 A 
ATOM      9 CL   UNL     1       5.900   5.196  15.018  0.00  0.00    +0.000 Cl
ATOM     10  C   UNL     1       4.313   5.933  17.071  0.00  0.00    +0.000 A 
ATOM     11  C   UNL     1       3.495   5.717  18.168  0.00  0.00    +0.000 A 
ATOM     12  N   UNL     1       2.971   6.810  18.746  0.00  0.00    +0.000 NA
ENDROOT
BRANCH   1  13
ATOM     13  C   UNL     1       1.687   7.970  20.436  0.00  0.00    +0.000 C 
ATOM     14  O   UNL     1       1.390   8.106  21.614  0.00  0.00    +0.000 OA
BRANCH  13  15
ATOM     15  O   UNL     1       1.519   8.927  19.478  0.00  0.00    +0.000 OA
BRANCH  15  16
ATOM     16  C   UNL     1       0.497   9.903  19.773  0.00  0.00    +0.000 C 
BRANCH  16  17
ATOM     17  C   UNL     1      -0.488  10.147  18.611  0.00  0.00    +0.000 C 
BRANCH  17  18
ATOM     18  N   UNL     1      -1.533  11.203  18.857  0.00  0.00    +0.000 NA
BRANCH  18  20
ATOM     19  C   UNL     1      -2.233  10.205  16.649  0.00  0.00    +0.000 C 
ATOM     20  C   UNL     1      -2.398  11.381  17.642  0.00  0.00    +0.000 C 
ATOM     21  C   UNL     1      -3.912  11.505  17.884  0.00  0.00    +0.000 C 
ENDBRANCH  18  20
BRANCH  18  22
ATOM     22  C   UNL     1      -0.927  12.446  19.440  0.00  0.00    +0.000 C 
ATOM     23  C   UNL     1      -0.418  13.495  18.435  0.00  0.00    +0.000 C 
ATOM     24  C   UNL     1      -1.928  13.217  20.335  0.00  0.00    +0.000 C 
ENDBRANCH  18  22
ENDBRANCH  17  18
ENDBRANCH  16  17
ENDBRANCH  15  16
ENDBRANCH  13  15
ENDBRANCH   1  13
BRANCH   3  25
ATOM     25  O   UNL     1       2.161   3.091  20.332  0.00  0.00    +0.000 OA
ATOM     26  H   UNL     1       1.212   2.888  20.291  0.00  0.00    +0.000 HD
ENDBRANCH   3  25
TORSDOF 8
ENDMDL
