MODEL 1
REMARK VINA RESULT:      -8.5      0.000      0.000
REMARK  Name = 
REMARK  8 active torsions:
REMARK  status: ('A' for Active; 'I' for Inactive)
REMARK    1  A    between atoms: C_1  and  C_2
REMARK    2  A    between atoms: C_2  and  C_3
REMARK    3  A    between atoms: C_2  and  C_20
REMARK    4  A    between atoms: N_4  and  N_5
REMARK    5  A    between atoms: C_6  and  C_8
REMARK    6  A    between atoms: C_8  and  C_9
REMARK    7  A    between atoms: C_9  and  C_10
REMARK    8  A    between atoms: N_12  and  C_13
REMARK                            x       y       z     vdW  Elec       q    Type
REMARK                         _______ _______ _______ _____ _____    ______ ____
ROOT
ATOM      1  N   UNL     1       1.619   7.145  21.089  0.00  0.00    +0.000 N 
ATOM      2  C   UNL     1       1.541   8.197  20.190  0.00  0.00    +0.000 C 
ATOM      3  O   UNL     1       1.904   8.152  19.015  0.00  0.00    +0.000 OA
ATOM      4  H   UNL     1       1.227   7.217  22.022  0.00  0.00    +0.000 HD
ENDROOT
BRANCH   1   6
ATOM      5  C   UNL     1       1.383   4.941  20.617  0.00  0.00    +0.000 C 
ATOM      6  N   UNL     1       2.169   5.968  20.674  0.00  0.00    +0.000 NA
BRANCH   5   8
ATOM      7  C   UNL     1       2.597   2.886  21.371  0.00  0.00    +0.000 C 
ATOM      8  C   UNL     1       1.931   3.590  20.189  0.00  0.00    +0.000 C 
BRANCH   8   9
ATOM      9  C   UNL     1       2.868   3.717  19.000  0.00  0.00    +0.000 A 
ATOM     10  C   UNL     1       2.433   3.515  17.683  0.00  0.00    +0.000 A 
ATOM     11  C   UNL     1       3.320   3.648  16.610  0.00  0.00    +0.000 A 
ATOM     12  C   UNL     1       4.666   3.982  16.825  0.00  0.00    +0.000 A 
ATOM     13  C   UNL     1       5.571   4.119  15.758  0.00  0.00    +0.000 A 
ATOM     14  C   UNL     1       6.909   4.446  15.993  0.00  0.00    +0.000 A 
ATOM     15  C   UNL     1       7.358   4.640  17.295  0.00  0.00    +0.000 A 
ATOM     16  C   UNL     1       6.471   4.512  18.364  0.00  0.00    +0.000 A 
ATOM     17  C   UNL     1       5.122   4.185  18.145  0.00  0.00    +0.000 A 
ATOM     18  C   UNL     1       4.216   4.053  19.213  0.00  0.00    +0.000 A 
ENDBRANCH   8   9
ENDBRANCH   5   8
ENDBRANCH   1   6
BRANCH   2  19
ATOM     19  C   UNL     1       0.881   9.443  20.741  0.00  0.00    +0.000 C 
BRANCH  19  20
ATOM     20  C   UNL     1      -0.290   9.065  21.641  0.00  0.00    +0.000 C 
BRANCH  20  21
ATOM     21  C   UNL     1      -0.560  10.173  22.640  0.00  0.00    +0.000 C 
ATOM     22  O   UNL     1      -0.065  10.103  23.758  0.00  0.00    +0.000 OA
ATOM     23  N   UNL     1      -1.452  11.132  22.193  0.00  0.00    +0.000 N 
ATOM     24  H   UNL     1      -1.970  10.930  21.338  0.00  0.00    +0.000 HD
BRANCH  23  25
ATOM     25  C   UNL     1      -1.885  12.249  22.943  0.00  0.00    +0.000 A 
ATOM     26  C   UNL     1      -3.135  12.300  23.565  0.00  0.00    +0.000 A 
ATOM     27  C   UNL     1      -3.560  13.451  24.230  0.00  0.00    +0.000 A 
ATOM     28  C   UNL     1      -2.723  14.558  24.291  0.00  0.00    +0.000 A 
ATOM     29 BR   UNL     1      -3.324  16.134  25.142  0.00  0.00    +0.000 Br
ATOM     30  C   UNL     1      -1.452  14.510  23.719  0.00  0.00    +0.000 A 
ATOM     31  C   UNL     1      -1.028  13.351  23.057  0.00  0.00    +0.000 A 
ENDBRANCH  23  25
ENDBRANCH  20  21
ENDBRANCH  19  20
ENDBRANCH   2  19
TORSDOF 7
ENDMDL
MODEL 2
REMARK VINA RESULT:      -8.4      6.893      9.229
REMARK  Name = 
REMARK  8 active torsions:
REMARK  status: ('A' for Active; 'I' for Inactive)
REMARK    1  A    between atoms: C_1  and  C_2
REMARK    2  A    between atoms: C_2  and  C_3
REMARK    3  A    between atoms: C_2  and  C_20
REMARK    4  A    between atoms: N_4  and  N_5
REMARK    5  A    between atoms: C_6  and  C_8
REMARK    6  A    between atoms: C_8  and  C_9
REMARK    7  A    between atoms: C_9  and  C_10
REMARK    8  A    between atoms: N_12  and  C_13
REMARK                            x       y       z     vdW  Elec       q    Type
REMARK                         _______ _______ _______ _____ _____    ______ ____
ROOT
ATOM      1  N   UNL     1       8.238   7.348  18.381  0.00  0.00    +0.000 N 
ATOM      2  C   UNL     1       7.710   8.406  17.658  0.00  0.00    +0.000 C 
ATOM      3  O   UNL     1       6.662   8.370  17.013  0.00  0.00    +0.000 OA
ATOM      4  H   UNL     1       9.063   7.463  18.960  0.00  0.00    +0.000 HD
ENDROOT
BRANCH   1   6
ATOM      5  C   UNL     1       7.198   5.708  17.211  0.00  0.00    +0.000 C 
ATOM      6  N   UNL     1       7.582   6.152  18.365  0.00  0.00    +0.000 NA
BRANCH   5   8
ATOM      7  C   UNL     1       6.275   3.977  15.657  0.00  0.00    +0.000 C 
ATOM      8  C   UNL     1       6.439   4.395  17.118  0.00  0.00    +0.000 C 
BRANCH   8   9
ATOM      9  C   UNL     1       5.107   4.465  17.844  0.00  0.00    +0.000 A 
ATOM     10  C   UNL     1       4.122   5.403  17.505  0.00  0.00    +0.000 A 
ATOM     11  C   UNL     1       2.902   5.435  18.189  0.00  0.00    +0.000 A 
ATOM     12  C   UNL     1       2.636   4.534  19.231  0.00  0.00    +0.000 A 
ATOM     13  C   UNL     1       1.415   4.553  19.929  0.00  0.00    +0.000 A 
ATOM     14  C   UNL     1       1.172   3.651  20.968  0.00  0.00    +0.000 A 
ATOM     15  C   UNL     1       2.144   2.721  21.322  0.00  0.00    +0.000 A 
ATOM     16  C   UNL     1       3.358   2.687  20.636  0.00  0.00    +0.000 A 
ATOM     17  C   UNL     1       3.618   3.585  19.588  0.00  0.00    +0.000 A 
ATOM     18  C   UNL     1       4.838   3.562  18.887  0.00  0.00    +0.000 A 
ENDBRANCH   8   9
ENDBRANCH   5   8
ENDBRANCH   1   6
BRANCH   2  19
ATOM     19  C   UNL     1       8.495   9.695  17.773  0.00  0.00    +0.000 C 
BRANCH  19  20
ATOM     20  C   UNL     1       9.027   9.864  19.191  0.00  0.00    +0.000 C 
BRANCH  20  21
ATOM     21  C   UNL     1       9.725  11.201  19.333  0.00  0.00    +0.000 C 
ATOM     22  O   UNL     1      10.389  11.425  20.338  0.00  0.00    +0.000 OA
ATOM     23  N   UNL     1       9.444  12.097  18.315  0.00  0.00    +0.000 N 
ATOM     24  H   UNL     1       8.684  11.860  17.678  0.00  0.00    +0.000 HD
BRANCH  23  25
ATOM     25  C   UNL     1       9.951  13.414  18.232  0.00  0.00    +0.000 A 
ATOM     26  C   UNL     1       9.383  14.485  18.926  0.00  0.00    +0.000 A 
ATOM     27  C   UNL     1       9.861  15.784  18.756  0.00  0.00    +0.000 A 
ATOM     28  C   UNL     1      10.928  16.018  17.898  0.00  0.00    +0.000 A 
ATOM     29 BR   UNL     1      11.535  17.787  17.626  0.00  0.00    +0.000 Br
ATOM     30  C   UNL     1      11.540  14.956  17.234  0.00  0.00    +0.000 A 
ATOM     31  C   UNL     1      11.061  13.652  17.411  0.00  0.00    +0.000 A 
ENDBRANCH  23  25
ENDBRANCH  20  21
ENDBRANCH  19  20
ENDBRANCH   2  19
TORSDOF 7
ENDMDL
MODEL 3
REMARK VINA RESULT:      -8.2      6.672      8.060
REMARK  Name = 
REMARK  8 active torsions:
REMARK  status: ('A' for Active; 'I' for Inactive)
REMARK    1  A    between atoms: C_1  and  C_2
REMARK    2  A    between atoms: C_2  and  C_3
REMARK    3  A    between atoms: C_2  and  C_20
REMARK    4  A    between atoms: N_4  and  N_5
REMARK    5  A    between atoms: C_6  and  C_8
REMARK    6  A    between atoms: C_8  and  C_9
REMARK    7  A    between atoms: C_9  and  C_10
REMARK    8  A    between atoms: N_12  and  C_13
REMARK                            x       y       z     vdW  Elec       q    Type
REMARK                         _______ _______ _______ _____ _____    ______ ____
ROOT
ATOM      1  N   UNL     1       8.118   8.972  17.765  0.00  0.00    +0.000 N 
ATOM      2  C   UNL     1       8.836   9.902  18.501  0.00  0.00    +0.000 C 
ATOM      3  O   UNL     1       9.408   9.672  19.566  0.00  0.00    +0.000 OA
ATOM      4  H   UNL     1       7.738   9.200  16.851  0.00  0.00    +0.000 HD
ENDROOT
BRANCH   1   6
ATOM      5  C   UNL     1       7.106   6.945  17.692  0.00  0.00    +0.000 C 
ATOM      6  N   UNL     1       7.991   7.705  18.254  0.00  0.00    +0.000 NA
BRANCH   5   8
ATOM      7  C   UNL     1       7.726   4.540  17.391  0.00  0.00    +0.000 C 
ATOM      8  C   UNL     1       6.890   5.530  18.201  0.00  0.00    +0.000 C 
BRANCH   8   9
ATOM      9  C   UNL     1       5.417   5.157  18.211  0.00  0.00    +0.000 A 
ATOM     10  C   UNL     1       4.417   6.060  17.824  0.00  0.00    +0.000 A 
ATOM     11  C   UNL     1       3.071   5.682  17.838  0.00  0.00    +0.000 A 
ATOM     12  C   UNL     1       2.687   4.393  18.241  0.00  0.00    +0.000 A 
ATOM     13  C   UNL     1       1.339   3.997  18.260  0.00  0.00    +0.000 A 
ATOM     14  C   UNL     1       0.977   2.712  18.671  0.00  0.00    +0.000 A 
ATOM     15  C   UNL     1       1.958   1.808  19.067  0.00  0.00    +0.000 A 
ATOM     16  C   UNL     1       3.301   2.184  19.048  0.00  0.00    +0.000 A 
ATOM     17  C   UNL     1       3.682   3.473  18.637  0.00  0.00    +0.000 A 
ATOM     18  C   UNL     1       5.032   3.867  18.613  0.00  0.00    +0.000 A 
ENDBRANCH   8   9
ENDBRANCH   5   8
ENDBRANCH   1   6
BRANCH   2  19
ATOM     19  C   UNL     1       8.946  11.264  17.850  0.00  0.00    +0.000 C 
BRANCH  19  20
ATOM     20  C   UNL     1       9.923  12.141  18.625  0.00  0.00    +0.000 C 
BRANCH  20  21
ATOM     21  C   UNL     1       9.211  12.833  19.769  0.00  0.00    +0.000 C 
ATOM     22  O   UNL     1       8.377  13.694  19.520  0.00  0.00    +0.000 OA
ATOM     23  N   UNL     1       9.670  12.469  21.024  0.00  0.00    +0.000 N 
ATOM     24  H   UNL     1      10.532  11.926  21.070  0.00  0.00    +0.000 HD
BRANCH  23  25
ATOM     25  C   UNL     1       9.186  12.989  22.246  0.00  0.00    +0.000 A 
ATOM     26  C   UNL     1       8.466  12.216  23.161  0.00  0.00    +0.000 A 
ATOM     27  C   UNL     1       7.936  12.784  24.319  0.00  0.00    +0.000 A 
ATOM     28  C   UNL     1       8.139  14.134  24.579  0.00  0.00    +0.000 A 
ATOM     29 BR   UNL     1       7.369  14.912  26.120  0.00  0.00    +0.000 Br
ATOM     30  C   UNL     1       8.895  14.910  23.703  0.00  0.00    +0.000 A 
ATOM     31  C   UNL     1       9.431  14.336  22.544  0.00  0.00    +0.000 A 
ENDBRANCH  23  25
ENDBRANCH  20  21
ENDBRANCH  19  20
ENDBRANCH   2  19
TORSDOF 7
ENDMDL
MODEL 4
REMARK VINA RESULT:      -8.1      6.354      8.085
REMARK  Name = 
REMARK  8 active torsions:
REMARK  status: ('A' for Active; 'I' for Inactive)
REMARK    1  A    between atoms: C_1  and  C_2
REMARK    2  A    between atoms: C_2  and  C_3
REMARK    3  A    between atoms: C_2  and  C_20
REMARK    4  A    between atoms: N_4  and  N_5
REMARK    5  A    between atoms: C_6  and  C_8
REMARK    6  A    between atoms: C_8  and  C_9
REMARK    7  A    between atoms: C_9  and  C_10
REMARK    8  A    between atoms: N_12  and  C_13
REMARK                            x       y       z     vdW  Elec       q    Type
REMARK                         _______ _______ _______ _____ _____    ______ ____
ROOT
ATOM      1  N   UNL     1       7.761   8.449  17.119  0.00  0.00    +0.000 N 
ATOM      2  C   UNL     1       8.367   8.672  18.345  0.00  0.00    +0.000 C 
ATOM      3  O   UNL     1       8.780   7.792  19.101  0.00  0.00    +0.000 OA
ATOM      4  H   UNL     1       7.517   9.218  16.502  0.00  0.00    +0.000 HD
ENDROOT
BRANCH   1   6
ATOM      5  C   UNL     1       6.411   6.634  16.979  0.00  0.00    +0.000 C 
ATOM      6  N   UNL     1       7.561   7.163  16.709  0.00  0.00    +0.000 NA
BRANCH   5   8
ATOM      7  C   UNL     1       6.118   5.061  15.054  0.00  0.00    +0.000 C 
ATOM      8  C   UNL     1       6.126   5.196  16.576  0.00  0.00    +0.000 C 
BRANCH   8   9
ATOM      9  C   UNL     1       4.839   4.685  17.201  0.00  0.00    +0.000 A 
ATOM     10  C   UNL     1       4.085   3.657  16.620  0.00  0.00    +0.000 A 
ATOM     11  C   UNL     1       2.909   3.204  17.225  0.00  0.00    +0.000 A 
ATOM     12  C   UNL     1       2.452   3.770  18.426  0.00  0.00    +0.000 A 
ATOM     13  C   UNL     1       1.272   3.327  19.047  0.00  0.00    +0.000 A 
ATOM     14  C   UNL     1       0.831   3.907  20.239  0.00  0.00    +0.000 A 
ATOM     15  C   UNL     1       1.563   4.936  20.823  0.00  0.00    +0.000 A 
ATOM     16  C   UNL     1       2.739   5.383  20.221  0.00  0.00    +0.000 A 
ATOM     17  C   UNL     1       3.197   4.809  19.023  0.00  0.00    +0.000 A 
ATOM     18  C   UNL     1       4.381   5.250  18.404  0.00  0.00    +0.000 A 
ENDBRANCH   8   9
ENDBRANCH   5   8
ENDBRANCH   1   6
BRANCH   2  19
ATOM     19  C   UNL     1       8.573  10.133  18.685  0.00  0.00    +0.000 C 
BRANCH  19  20
ATOM     20  C   UNL     1       9.924  10.331  19.363  0.00  0.00    +0.000 C 
BRANCH  20  21
ATOM     21  C   UNL     1       9.844  11.464  20.366  0.00  0.00    +0.000 C 
ATOM     22  O   UNL     1      10.606  12.416  20.253  0.00  0.00    +0.000 OA
ATOM     23  N   UNL     1       8.948  11.244  21.398  0.00  0.00    +0.000 N 
ATOM     24  H   UNL     1       8.564  10.305  21.495  0.00  0.00    +0.000 HD
BRANCH  23  25
ATOM     25  C   UNL     1       8.709  12.137  22.468  0.00  0.00    +0.000 A 
ATOM     26  C   UNL     1       8.876  13.519  22.347  0.00  0.00    +0.000 A 
ATOM     27  C   UNL     1       8.708  14.361  23.446  0.00  0.00    +0.000 A 
ATOM     28  C   UNL     1       8.354  13.822  24.678  0.00  0.00    +0.000 A 
ATOM     29 BR   UNL     1       8.185  14.959  26.177  0.00  0.00    +0.000 Br
ATOM     30  C   UNL     1       8.136  12.452  24.807  0.00  0.00    +0.000 A 
ATOM     31  C   UNL     1       8.299  11.611  23.700  0.00  0.00    +0.000 A 
ENDBRANCH  23  25
ENDBRANCH  20  21
ENDBRANCH  19  20
ENDBRANCH   2  19
TORSDOF 7
ENDMDL
MODEL 5
REMARK VINA RESULT:      -7.9      7.578     10.771
REMARK  Name = 
REMARK  8 active torsions:
REMARK  status: ('A' for Active; 'I' for Inactive)
REMARK    1  A    between atoms: C_1  and  C_2
REMARK    2  A    between atoms: C_2  and  C_3
REMARK    3  A    between atoms: C_2  and  C_20
REMARK    4  A    between atoms: N_4  and  N_5
REMARK    5  A    between atoms: C_6  and  C_8
REMARK    6  A    between atoms: C_8  and  C_9
REMARK    7  A    between atoms: C_9  and  C_10
REMARK    8  A    between atoms: N_12  and  C_13
REMARK                            x       y       z     vdW  Elec       q    Type
REMARK                         _______ _______ _______ _____ _____    ______ ____
ROOT
ATOM      1  N   UNL     1       7.851   8.180  17.520  0.00  0.00    +0.000 N 
ATOM      2  C   UNL     1       7.561   6.845  17.753  0.00  0.00    +0.000 C 
ATOM      3  O   UNL     1       7.910   6.207  18.746  0.00  0.00    +0.000 OA
ATOM      4  H   UNL     1       7.465   8.674  16.722  0.00  0.00    +0.000 HD
ENDROOT
BRANCH   1   6
ATOM      5  C   UNL     1       8.901  10.086  18.156  0.00  0.00    +0.000 C 
ATOM      6  N   UNL     1       8.613   8.854  18.430  0.00  0.00    +0.000 NA
BRANCH   5   8
ATOM      7  C   UNL     1       9.056  11.073  20.450  0.00  0.00    +0.000 C 
ATOM      8  C   UNL     1       9.767  10.892  19.109  0.00  0.00    +0.000 C 
BRANCH   8   9
ATOM      9  C   UNL     1      10.183  12.220  18.501  0.00  0.00    +0.000 A 
ATOM     10  C   UNL     1      11.065  12.299  17.415  0.00  0.00    +0.000 A 
ATOM     11  C   UNL     1      11.421  13.538  16.874  0.00  0.00    +0.000 A 
ATOM     12  C   UNL     1      10.909  14.732  17.405  0.00  0.00    +0.000 A 
ATOM     13  C   UNL     1      11.257  15.985  16.873  0.00  0.00    +0.000 A 
ATOM     14  C   UNL     1      10.740  17.162  17.421  0.00  0.00    +0.000 A 
ATOM     15  C   UNL     1       9.870  17.101  18.505  0.00  0.00    +0.000 A 
ATOM     16  C   UNL     1       9.512  15.863  19.041  0.00  0.00    +0.000 A 
ATOM     17  C   UNL     1      10.021  14.670  18.501  0.00  0.00    +0.000 A 
ATOM     18  C   UNL     1       9.669  13.416  19.031  0.00  0.00    +0.000 A 
ENDBRANCH   8   9
ENDBRANCH   5   8
ENDBRANCH   1   6
BRANCH   2  19
ATOM     19  C   UNL     1       6.680   6.204  16.702  0.00  0.00    +0.000 C 
BRANCH  19  20
ATOM     20  C   UNL     1       5.410   7.024  16.507  0.00  0.00    +0.000 C 
BRANCH  20  21
ATOM     21  C   UNL     1       4.322   6.533  17.440  0.00  0.00    +0.000 C 
ATOM     22  O   UNL     1       3.346   7.245  17.648  0.00  0.00    +0.000 OA
ATOM     23  N   UNL     1       4.607   5.327  18.057  0.00  0.00    +0.000 N 
ATOM     24  H   UNL     1       5.560   4.972  17.977  0.00  0.00    +0.000 HD
BRANCH  23  25
ATOM     25  C   UNL     1       3.767   4.673  18.987  0.00  0.00    +0.000 A 
ATOM     26  C   UNL     1       2.999   5.367  19.926  0.00  0.00    +0.000 A 
ATOM     27  C   UNL     1       2.243   4.685  20.879  0.00  0.00    +0.000 A 
ATOM     28  C   UNL     1       2.237   3.296  20.888  0.00  0.00    +0.000 A 
ATOM     29 BR   UNL     1       1.258   2.376  22.217  0.00  0.00    +0.000 Br
ATOM     30  C   UNL     1       2.958   2.585  19.929  0.00  0.00    +0.000 A 
ATOM     31  C   UNL     1       3.711   3.274  18.970  0.00  0.00    +0.000 A 
ENDBRANCH  23  25
ENDBRANCH  20  21
ENDBRANCH  19  20
ENDBRANCH   2  19
TORSDOF 7
ENDMDL
MODEL 6
REMARK VINA RESULT:      -7.9      1.740      2.565
REMARK  Name = 
REMARK  8 active torsions:
REMARK  status: ('A' for Active; 'I' for Inactive)
REMARK    1  A    between atoms: C_1  and  C_2
REMARK    2  A    between atoms: C_2  and  C_3
REMARK    3  A    between atoms: C_2  and  C_20
REMARK    4  A    between atoms: N_4  and  N_5
REMARK    5  A    between atoms: C_6  and  C_8
REMARK    6  A    between atoms: C_8  and  C_9
REMARK    7  A    between atoms: C_9  and  C_10
REMARK    8  A    between atoms: N_12  and  C_13
REMARK                            x       y       z     vdW  Elec       q    Type
REMARK                         _______ _______ _______ _____ _____    ______ ____
ROOT
ATOM      1  N   UNL     1       1.432   8.430  21.424  0.00  0.00    +0.000 N 
ATOM      2  C   UNL     1       0.150   8.851  21.736  0.00  0.00    +0.000 C 
ATOM      3  O   UNL     1      -0.841   8.122  21.793  0.00  0.00    +0.000 OA
ATOM      4  H   UNL     1       2.224   9.064  21.474  0.00  0.00    +0.000 HD
ENDROOT
BRANCH   1   6
ATOM      5  C   UNL     1       1.994   6.846  19.903  0.00  0.00    +0.000 C 
ATOM      6  N   UNL     1       1.635   7.116  21.117  0.00  0.00    +0.000 NA
BRANCH   5   8
ATOM      7  C   UNL     1       2.044   4.467  20.677  0.00  0.00    +0.000 C 
ATOM      8  C   UNL     1       2.213   5.403  19.480  0.00  0.00    +0.000 C 
BRANCH   8   9
ATOM      9  C   UNL     1       3.557   5.217  18.796  0.00  0.00    +0.000 A 
ATOM     10  C   UNL     1       4.766   5.267  19.503  0.00  0.00    +0.000 A 
ATOM     11  C   UNL     1       5.986   5.084  18.844  0.00  0.00    +0.000 A 
ATOM     12  C   UNL     1       6.030   4.850  17.461  0.00  0.00    +0.000 A 
ATOM     13  C   UNL     1       7.247   4.664  16.782  0.00  0.00    +0.000 A 
ATOM     14  C   UNL     1       7.270   4.438  15.404  0.00  0.00    +0.000 A 
ATOM     15  C   UNL     1       6.078   4.396  14.687  0.00  0.00    +0.000 A 
ATOM     16  C   UNL     1       4.862   4.574  15.347  0.00  0.00    +0.000 A 
ATOM     17  C   UNL     1       4.821   4.800  16.733  0.00  0.00    +0.000 A 
ATOM     18  C   UNL     1       3.602   4.981  17.412  0.00  0.00    +0.000 A 
ENDBRANCH   8   9
ENDBRANCH   5   8
ENDBRANCH   1   6
BRANCH   2  19
ATOM     19  C   UNL     1       0.043  10.318  22.096  0.00  0.00    +0.000 C 
BRANCH  19  20
ATOM     20  C   UNL     1      -1.043  10.526  23.145  0.00  0.00    +0.000 C 
BRANCH  20  21
ATOM     21  C   UNL     1      -1.839  11.777  22.833  0.00  0.00    +0.000 C 
ATOM     22  O   UNL     1      -1.366  12.611  22.070  0.00  0.00    +0.000 OA
ATOM     23  N   UNL     1      -3.018  11.891  23.549  0.00  0.00    +0.000 N 
ATOM     24  H   UNL     1      -3.162  11.244  24.324  0.00  0.00    +0.000 HD
BRANCH  23  25
ATOM     25  C   UNL     1      -3.922  12.974  23.455  0.00  0.00    +0.000 A 
ATOM     26  C   UNL     1      -5.018  12.967  22.588  0.00  0.00    +0.000 A 
ATOM     27  C   UNL     1      -5.842  14.086  22.465  0.00  0.00    +0.000 A 
ATOM     28  C   UNL     1      -5.582  15.219  23.226  0.00  0.00    +0.000 A 
ATOM     29 BR   UNL     1      -6.666  16.752  23.014  0.00  0.00    +0.000 Br
ATOM     30  C   UNL     1      -4.523  15.227  24.133  0.00  0.00    +0.000 A 
ATOM     31  C   UNL     1      -3.702  14.101  24.258  0.00  0.00    +0.000 A 
ENDBRANCH  23  25
ENDBRANCH  20  21
ENDBRANCH  19  20
ENDBRANCH   2  19
TORSDOF 7
ENDMDL
MODEL 7
REMARK VINA RESULT:      -7.9      6.796      9.312
REMARK  Name = 
REMARK  8 active torsions:
REMARK  status: ('A' for Active; 'I' for Inactive)
REMARK    1  A    between atoms: C_1  and  C_2
REMARK    2  A    between atoms: C_2  and  C_3
REMARK    3  A    between atoms: C_2  and  C_20
REMARK    4  A    between atoms: N_4  and  N_5
REMARK    5  A    between atoms: C_6  and  C_8
REMARK    6  A    between atoms: C_8  and  C_9
REMARK    7  A    between atoms: C_9  and  C_10
REMARK    8  A    between atoms: N_12  and  C_13
REMARK                            x       y       z     vdW  Elec       q    Type
REMARK                         _______ _______ _______ _____ _____    ______ ____
ROOT
ATOM      1  N   UNL     1       7.443   7.528  17.236  0.00  0.00    +0.000 N 
ATOM      2  C   UNL     1       8.240   7.849  18.323  0.00  0.00    +0.000 C 
ATOM      3  O   UNL     1       8.648   7.048  19.163  0.00  0.00    +0.000 OA
ATOM      4  H   UNL     1       7.206   8.218  16.531  0.00  0.00    +0.000 HD
ENDROOT
BRANCH   1   6
ATOM      5  C   UNL     1       6.200   5.994  16.122  0.00  0.00    +0.000 C 
ATOM      6  N   UNL     1       7.035   6.235  17.081  0.00  0.00    +0.000 NA
BRANCH   5   8
ATOM      7  C   UNL     1       5.357   4.356  14.428  0.00  0.00    +0.000 C 
ATOM      8  C   UNL     1       5.682   4.582  15.904  0.00  0.00    +0.000 C 
BRANCH   8   9
ATOM      9  C   UNL     1       4.496   4.276  16.803  0.00  0.00    +0.000 A 
ATOM     10  C   UNL     1       3.687   3.148  16.611  0.00  0.00    +0.000 A 
ATOM     11  C   UNL     1       2.607   2.892  17.462  0.00  0.00    +0.000 A 
ATOM     12  C   UNL     1       2.304   3.758  18.524  0.00  0.00    +0.000 A 
ATOM     13  C   UNL     1       1.223   3.515  19.388  0.00  0.00    +0.000 A 
ATOM     14  C   UNL     1       0.934   4.393  20.436  0.00  0.00    +0.000 A 
ATOM     15  C   UNL     1       1.722   5.522  20.633  0.00  0.00    +0.000 A 
ATOM     16  C   UNL     1       2.802   5.774  19.787  0.00  0.00    +0.000 A 
ATOM     17  C   UNL     1       3.107   4.901  18.729  0.00  0.00    +0.000 A 
ATOM     18  C   UNL     1       4.193   5.142  17.868  0.00  0.00    +0.000 A 
ENDBRANCH   8   9
ENDBRANCH   5   8
ENDBRANCH   1   6
BRANCH   2  19
ATOM     19  C   UNL     1       8.664   9.301  18.379  0.00  0.00    +0.000 C 
BRANCH  19  20
ATOM     20  C   UNL     1       7.631  10.180  17.684  0.00  0.00    +0.000 C 
BRANCH  20  21
ATOM     21  C   UNL     1       8.151  11.598  17.556  0.00  0.00    +0.000 C 
ATOM     22  O   UNL     1       7.509  12.413  16.905  0.00  0.00    +0.000 OA
ATOM     23  N   UNL     1       9.395  11.798  18.130  0.00  0.00    +0.000 N 
ATOM     24  H   UNL     1       9.916  10.972  18.422  0.00  0.00    +0.000 HD
BRANCH  23  25
ATOM     25  C   UNL     1      10.102  13.022  18.124  0.00  0.00    +0.000 A 
ATOM     26  C   UNL     1      10.045  13.931  19.184  0.00  0.00    +0.000 A 
ATOM     27  C   UNL     1      10.693  15.164  19.108  0.00  0.00    +0.000 A 
ATOM     28  C   UNL     1      11.421  15.489  17.970  0.00  0.00    +0.000 A 
ATOM     29 BR   UNL     1      12.249  17.183  17.847  0.00  0.00    +0.000 Br
ATOM     30  C   UNL     1      11.531  14.576  16.922  0.00  0.00    +0.000 A 
ATOM     31  C   UNL     1      10.884  13.337  17.005  0.00  0.00    +0.000 A 
ENDBRANCH  23  25
ENDBRANCH  20  21
ENDBRANCH  19  20
ENDBRANCH   2  19
TORSDOF 7
ENDMDL
MODEL 8
REMARK VINA RESULT:      -7.8      2.937      3.239
REMARK  Name = 
REMARK  8 active torsions:
REMARK  status: ('A' for Active; 'I' for Inactive)
REMARK    1  A    between atoms: C_1  and  C_2
REMARK    2  A    between atoms: C_2  and  C_3
REMARK    3  A    between atoms: C_2  and  C_20
REMARK    4  A    between atoms: N_4  and  N_5
REMARK    5  A    between atoms: C_6  and  C_8
REMARK    6  A    between atoms: C_8  and  C_9
REMARK    7  A    between atoms: C_9  and  C_10
REMARK    8  A    between atoms: N_12  and  C_13
REMARK                            x       y       z     vdW  Elec       q    Type
REMARK                         _______ _______ _______ _____ _____    ______ ____
ROOT
ATOM      1  N   UNL     1       1.756   8.164  20.803  0.00  0.00    +0.000 N 
ATOM      2  C   UNL     1       0.614   8.643  21.425  0.00  0.00    +0.000 C 
ATOM      3  O   UNL     1      -0.466   8.054  21.475  0.00  0.00    +0.000 OA
ATOM      4  H   UNL     1       2.640   8.658  20.867  0.00  0.00    +0.000 HD
ENDROOT
BRANCH   1   6
ATOM      5  C   UNL     1       1.826   5.900  20.884  0.00  0.00    +0.000 C 
ATOM      6  N   UNL     1       1.696   6.963  20.158  0.00  0.00    +0.000 NA
BRANCH   5   8
ATOM      7  C   UNL     1       1.906   3.432  21.292  0.00  0.00    +0.000 C 
ATOM      8  C   UNL     1       1.796   4.528  20.232  0.00  0.00    +0.000 C 
BRANCH   8   9
ATOM      9  C   UNL     1       2.865   4.394  19.160  0.00  0.00    +0.000 A 
ATOM     10  C   UNL     1       2.581   3.889  17.884  0.00  0.00    +0.000 A 
ATOM     11  C   UNL     1       3.587   3.787  16.918  0.00  0.00    +0.000 A 
ATOM     12  C   UNL     1       4.903   4.182  17.202  0.00  0.00    +0.000 A 
ATOM     13  C   UNL     1       5.926   4.085  16.242  0.00  0.00    +0.000 A 
ATOM     14  C   UNL     1       7.231   4.478  16.547  0.00  0.00    +0.000 A 
ATOM     15  C   UNL     1       7.530   4.971  17.814  0.00  0.00    +0.000 A 
ATOM     16  C   UNL     1       6.525   5.078  18.775  0.00  0.00    +0.000 A 
ATOM     17  C   UNL     1       5.207   4.688  18.484  0.00  0.00    +0.000 A 
ATOM     18  C   UNL     1       4.183   4.790  19.443  0.00  0.00    +0.000 A 
ENDBRANCH   8   9
ENDBRANCH   5   8
ENDBRANCH   1   6
BRANCH   2  19
ATOM     19  C   UNL     1       0.800   9.964  22.141  0.00  0.00    +0.000 C 
BRANCH  19  20
ATOM     20  C   UNL     1       0.581  11.123  21.176  0.00  0.00    +0.000 C 
BRANCH  20  21
ATOM     21  C   UNL     1      -0.899  11.419  21.041  0.00  0.00    +0.000 C 
ATOM     22  O   UNL     1      -1.612  11.365  22.036  0.00  0.00    +0.000 OA
ATOM     23  N   UNL     1      -1.318  11.632  19.739  0.00  0.00    +0.000 N 
ATOM     24  H   UNL     1      -0.663  11.405  18.992  0.00  0.00    +0.000 HD
BRANCH  23  25
ATOM     25  C   UNL     1      -2.650  11.903  19.350  0.00  0.00    +0.000 A 
ATOM     26  C   UNL     1      -3.510  12.698  20.112  0.00  0.00    +0.000 A 
ATOM     27  C   UNL     1      -4.842  12.877  19.736  0.00  0.00    +0.000 A 
ATOM     28  C   UNL     1      -5.318  12.271  18.580  0.00  0.00    +0.000 A 
ATOM     29 BR   UNL     1      -7.137  12.468  18.107  0.00  0.00    +0.000 Br
ATOM     30  C   UNL     1      -4.463  11.514  17.781  0.00  0.00    +0.000 A 
ATOM     31  C   UNL     1      -3.126  11.342  18.158  0.00  0.00    +0.000 A 
ENDBRANCH  23  25
ENDBRANCH  20  21
ENDBRANCH  19  20
ENDBRANCH   2  19
TORSDOF 7
ENDMDL
MODEL 9
REMARK VINA RESULT:      -7.7      1.645      2.318
REMARK  Name = 
REMARK  8 active torsions:
REMARK  status: ('A' for Active; 'I' for Inactive)
REMARK    1  A    between atoms: C_1  and  C_2
REMARK    2  A    between atoms: C_2  and  C_3
REMARK    3  A    between atoms: C_2  and  C_20
REMARK    4  A    between atoms: N_4  and  N_5
REMARK    5  A    between atoms: C_6  and  C_8
REMARK    6  A    between atoms: C_8  and  C_9
REMARK    7  A    between atoms: C_9  and  C_10
REMARK    8  A    between atoms: N_12  and  C_13
REMARK                            x       y       z     vdW  Elec       q    Type
REMARK                         _______ _______ _______ _____ _____    ______ ____
ROOT
ATOM      1  N   UNL     1       1.742   8.074  20.976  0.00  0.00    +0.000 N 
ATOM      2  C   UNL     1       1.004   9.181  20.587  0.00  0.00    +0.000 C 
ATOM      3  O   UNL     1       0.467   9.323  19.488  0.00  0.00    +0.000 OA
ATOM      4  H   UNL     1       2.090   7.978  21.925  0.00  0.00    +0.000 HD
ENDROOT
BRANCH   1   6
ATOM      5  C   UNL     1       1.765   5.856  20.509  0.00  0.00    +0.000 C 
ATOM      6  N   UNL     1       1.934   7.065  20.078  0.00  0.00    +0.000 NA
BRANCH   5   8
ATOM      7  C   UNL     1       1.737   3.362  20.307  0.00  0.00    +0.000 C 
ATOM      8  C   UNL     1       1.986   4.680  19.573  0.00  0.00    +0.000 C 
BRANCH   8   9
ATOM      9  C   UNL     1       3.363   4.725  18.933  0.00  0.00    +0.000 A 
ATOM     10  C   UNL     1       4.523   4.978  19.677  0.00  0.00    +0.000 A 
ATOM     11  C   UNL     1       5.776   5.004  19.057  0.00  0.00    +0.000 A 
ATOM     12  C   UNL     1       5.903   4.782  17.677  0.00  0.00    +0.000 A 
ATOM     13  C   UNL     1       7.155   4.806  17.038  0.00  0.00    +0.000 A 
ATOM     14  C   UNL     1       7.260   4.588  15.662  0.00  0.00    +0.000 A 
ATOM     15  C   UNL     1       6.115   4.346  14.909  0.00  0.00    +0.000 A 
ATOM     16  C   UNL     1       4.866   4.314  15.529  0.00  0.00    +0.000 A 
ATOM     17  C   UNL     1       4.744   4.529  16.912  0.00  0.00    +0.000 A 
ATOM     18  C   UNL     1       3.491   4.501  17.551  0.00  0.00    +0.000 A 
ENDBRANCH   8   9
ENDBRANCH   5   8
ENDBRANCH   1   6
BRANCH   2  19
ATOM     19  C   UNL     1       0.821  10.223  21.670  0.00  0.00    +0.000 C 
BRANCH  19  20
ATOM     20  C   UNL     1       0.920  11.623  21.076  0.00  0.00    +0.000 C 
BRANCH  20  21
ATOM     21  C   UNL     1      -0.232  12.480  21.561  0.00  0.00    +0.000 C 
ATOM     22  O   UNL     1      -0.007  13.619  21.952  0.00  0.00    +0.000 OA
ATOM     23  N   UNL     1      -1.449  11.821  21.603  0.00  0.00    +0.000 N 
ATOM     24  H   UNL     1      -1.440  10.809  21.481  0.00  0.00    +0.000 HD
BRANCH  23  25
ATOM     25  C   UNL     1      -2.666  12.392  22.040  0.00  0.00    +0.000 A 
ATOM     26  C   UNL     1      -3.499  13.129  21.193  0.00  0.00    +0.000 A 
ATOM     27  C   UNL     1      -4.652  13.745  21.680  0.00  0.00    +0.000 A 
ATOM     28  C   UNL     1      -4.988  13.613  23.022  0.00  0.00    +0.000 A 
ATOM     29 BR   UNL     1      -6.519  14.498  23.689  0.00  0.00    +0.000 Br
ATOM     30  C   UNL     1      -4.197  12.842  23.871  0.00  0.00    +0.000 A 
ATOM     31  C   UNL     1      -3.043  12.221  23.378  0.00  0.00    +0.000 A 
ENDBRANCH  23  25
ENDBRANCH  20  21
ENDBRANCH  19  20
ENDBRANCH   2  19
TORSDOF 7
ENDMDL
