MODEL 1
REMARK VINA RESULT:      -7.2      0.000      0.000
REMARK  Name = 
REMARK  5 active torsions:
REMARK  status: ('A' for Active; 'I' for Inactive)
REMARK    1  A    between atoms: C_1  and  C_2
REMARK    2  A    between atoms: C_2  and  C_3
REMARK    3  A    between atoms: C_2  and  O_17
REMARK    4  A    between atoms: C_3  and  N_4
REMARK    5  A    between atoms: O_17  and  C_18
REMARK                            x       y       z     vdW  Elec       q    Type
REMARK                         _______ _______ _______ _____ _____    ______ ____
ROOT
ATOM      1  N   UNL     1       2.269   4.128  18.624  0.00  0.00    +0.000 N 
ATOM      2  N   UNL     1       3.530   4.620  18.375  0.00  0.00    +0.000 NA
ATOM      3  C   UNL     1       4.412   3.887  17.748  0.00  0.00    +0.000 A 
ATOM      4  N   UNL     1       5.642   4.451  17.437  0.00  0.00    +0.000 N 
ATOM      5  C   UNL     1       6.489   4.036  16.312  0.00  0.00    +0.000 C 
ATOM      6  C   UNL     1       6.862   5.248  15.424  0.00  0.00    +0.000 C 
ATOM      7  N   UNL     1       7.470   6.360  16.174  0.00  0.00    +0.000 NA
ATOM      8  C   UNL     1       6.560   6.759  17.265  0.00  0.00    +0.000 C 
ATOM      9  C   UNL     1       6.189   5.589  18.198  0.00  0.00    +0.000 C 
ATOM     10  C   UNL     1       4.097   2.479  17.384  0.00  0.00    +0.000 A 
ATOM     11  C   UNL     1       2.903   1.982  17.705  0.00  0.00    +0.000 A 
ATOM     12  C   UNL     1       1.890   2.822  18.360  0.00  0.00    +0.000 A 
ATOM     13  O   UNL     1       0.781   2.346  18.601  0.00  0.00    +0.000 OA
ATOM     14  H   UNL     1       7.604   7.153  15.546  0.00  0.00    +0.000 HD
ENDROOT
BRANCH   1  15
ATOM     15  C   UNL     1       1.265   5.074  19.121  0.00  0.00    +0.000 C 
BRANCH  15  17
ATOM     16  C   UNL     1       2.290   4.582  21.388  0.00  0.00    +0.000 C 
ATOM     17  C   UNL     1       1.510   5.605  20.550  0.00  0.00    +0.000 C 
BRANCH  17  18
ATOM     18  O   UNL     1       2.284   6.818  20.447  0.00  0.00    +0.000 OA
BRANCH  18  19
ATOM     19  C   UNL     1       1.615   8.013  20.367  0.00  0.00    +0.000 A 
ATOM     20  C   UNL     1       0.873   8.566  21.416  0.00  0.00    +0.000 A 
ATOM     21  C   UNL     1       0.214   9.789  21.267  0.00  0.00    +0.000 A 
ATOM     22  C   UNL     1       0.285  10.478  20.061  0.00  0.00    +0.000 A 
ATOM     23  C   UNL     1       1.034   9.953  19.010  0.00  0.00    +0.000 A 
ATOM     24  C   UNL     1       1.705   8.733  19.164  0.00  0.00    +0.000 A 
ATOM     25 CL   UNL     1       2.627   8.146  17.824  0.00  0.00    +0.000 Cl
ENDBRANCH  18  19
ENDBRANCH  17  18
ENDBRANCH  15  17
ENDBRANCH   1  15
TORSDOF 4
ENDMDL
MODEL 2
REMARK VINA RESULT:      -7.2      1.101      1.546
REMARK  Name = 
REMARK  5 active torsions:
REMARK  status: ('A' for Active; 'I' for Inactive)
REMARK    1  A    between atoms: C_1  and  C_2
REMARK    2  A    between atoms: C_2  and  C_3
REMARK    3  A    between atoms: C_2  and  O_17
REMARK    4  A    between atoms: C_3  and  N_4
REMARK    5  A    between atoms: O_17  and  C_18
REMARK                            x       y       z     vdW  Elec       q    Type
REMARK                         _______ _______ _______ _____ _____    ______ ____
ROOT
ATOM      1  N   UNL     1       2.335   3.927  18.685  0.00  0.00    +0.000 N 
ATOM      2  N   UNL     1       3.574   4.461  18.416  0.00  0.00    +0.000 NA
ATOM      3  C   UNL     1       4.469   3.758  17.772  0.00  0.00    +0.000 A 
ATOM      4  N   UNL     1       5.673   4.363  17.441  0.00  0.00    +0.000 N 
ATOM      5  C   UNL     1       6.515   3.978  16.300  0.00  0.00    +0.000 C 
ATOM      6  C   UNL     1       6.832   5.203  15.409  0.00  0.00    +0.000 C 
ATOM      7  N   UNL     1       7.416   6.332  16.151  0.00  0.00    +0.000 NA
ATOM      8  C   UNL     1       6.513   6.700  17.259  0.00  0.00    +0.000 C 
ATOM      9  C   UNL     1       6.197   5.517  18.195  0.00  0.00    +0.000 C 
ATOM     10  C   UNL     1       4.193   2.341  17.409  0.00  0.00    +0.000 A 
ATOM     11  C   UNL     1       3.022   1.805  17.750  0.00  0.00    +0.000 A 
ATOM     12  C   UNL     1       1.994   2.609  18.424  0.00  0.00    +0.000 A 
ATOM     13  O   UNL     1       0.905   2.097  18.684  0.00  0.00    +0.000 OA
ATOM     14  H   UNL     1       7.513   7.131  15.523  0.00  0.00    +0.000 HD
ENDROOT
BRANCH   1  15
ATOM     15  C   UNL     1       1.309   4.838  19.202  0.00  0.00    +0.000 C 
BRANCH  15  17
ATOM     16  C   UNL     1       2.253   4.406  21.516  0.00  0.00    +0.000 C 
ATOM     17  C   UNL     1       1.605   5.446  20.590  0.00  0.00    +0.000 C 
BRANCH  17  18
ATOM     18  O   UNL     1       2.520   6.547  20.407  0.00  0.00    +0.000 OA
BRANCH  18  19
ATOM     19  C   UNL     1       2.097   7.632  19.680  0.00  0.00    +0.000 A 
ATOM     20  C   UNL     1       2.368   7.815  18.320  0.00  0.00    +0.000 A 
ATOM     21  C   UNL     1       1.906   8.945  17.639  0.00  0.00    +0.000 A 
ATOM     22  C   UNL     1       1.165   9.911  18.311  0.00  0.00    +0.000 A 
ATOM     23  C   UNL     1       0.869   9.737  19.662  0.00  0.00    +0.000 A 
ATOM     24  C   UNL     1       1.321   8.599  20.341  0.00  0.00    +0.000 A 
ATOM     25 CL   UNL     1       0.907   8.440  22.012  0.00  0.00    +0.000 Cl
ENDBRANCH  18  19
ENDBRANCH  17  18
ENDBRANCH  15  17
ENDBRANCH   1  15
TORSDOF 4
ENDMDL
MODEL 3
REMARK VINA RESULT:      -7.0      1.383      1.923
REMARK  Name = 
REMARK  5 active torsions:
REMARK  status: ('A' for Active; 'I' for Inactive)
REMARK    1  A    between atoms: C_1  and  C_2
REMARK    2  A    between atoms: C_2  and  C_3
REMARK    3  A    between atoms: C_2  and  O_17
REMARK    4  A    between atoms: C_3  and  N_4
REMARK    5  A    between atoms: O_17  and  C_18
REMARK                            x       y       z     vdW  Elec       q    Type
REMARK                         _______ _______ _______ _____ _____    ______ ____
ROOT
ATOM      1  N   UNL     1       2.680   5.028  19.622  0.00  0.00    +0.000 N 
ATOM      2  N   UNL     1       3.889   5.032  18.965  0.00  0.00    +0.000 NA
ATOM      3  C   UNL     1       4.082   4.251  17.934  0.00  0.00    +0.000 A 
ATOM      4  N   UNL     1       5.281   4.349  17.243  0.00  0.00    +0.000 N 
ATOM      5  C   UNL     1       5.457   4.014  15.824  0.00  0.00    +0.000 C 
ATOM      6  C   UNL     1       6.099   5.193  15.053  0.00  0.00    +0.000 C 
ATOM      7  N   UNL     1       7.356   5.671  15.652  0.00  0.00    +0.000 NA
ATOM      8  C   UNL     1       7.112   6.028  17.064  0.00  0.00    +0.000 C 
ATOM      9  C   UNL     1       6.505   4.870  17.881  0.00  0.00    +0.000 C 
ATOM     10  C   UNL     1       3.033   3.280  17.522  0.00  0.00    +0.000 A 
ATOM     11  C   UNL     1       1.897   3.222  18.218  0.00  0.00    +0.000 A 
ATOM     12  C   UNL     1       1.657   4.138  19.341  0.00  0.00    +0.000 A 
ATOM     13  O   UNL     1       0.579   4.090  19.934  0.00  0.00    +0.000 OA
ATOM     14  H   UNL     1       7.671   6.500  15.150  0.00  0.00    +0.000 HD
ENDROOT
BRANCH   1  15
ATOM     15  C   UNL     1       2.453   6.083  20.616  0.00  0.00    +0.000 C 
BRANCH  15  17
ATOM     16  C   UNL     1       2.441   7.539  18.539  0.00  0.00    +0.000 C 
ATOM     17  C   UNL     1       2.108   7.472  20.037  0.00  0.00    +0.000 C 
BRANCH  17  18
ATOM     18  O   UNL     1       0.693   7.688  20.215  0.00  0.00    +0.000 OA
BRANCH  18  19
ATOM     19  C   UNL     1       0.288   8.738  21.001  0.00  0.00    +0.000 A 
ATOM     20  C   UNL     1       0.248   8.699  22.398  0.00  0.00    +0.000 A 
ATOM     21  C   UNL     1      -0.175   9.806  23.139  0.00  0.00    +0.000 A 
ATOM     22  C   UNL     1      -0.567  10.972  22.490  0.00  0.00    +0.000 A 
ATOM     23  C   UNL     1      -0.516  11.037  21.099  0.00  0.00    +0.000 A 
ATOM     24  C   UNL     1      -0.080   9.932  20.357  0.00  0.00    +0.000 A 
ATOM     25 CL   UNL     1      -0.030  10.086  18.636  0.00  0.00    +0.000 Cl
ENDBRANCH  18  19
ENDBRANCH  17  18
ENDBRANCH  15  17
ENDBRANCH   1  15
TORSDOF 4
ENDMDL
MODEL 4
REMARK VINA RESULT:      -6.9      3.438      5.211
REMARK  Name = 
REMARK  5 active torsions:
REMARK  status: ('A' for Active; 'I' for Inactive)
REMARK    1  A    between atoms: C_1  and  C_2
REMARK    2  A    between atoms: C_2  and  C_3
REMARK    3  A    between atoms: C_2  and  O_17
REMARK    4  A    between atoms: C_3  and  N_4
REMARK    5  A    between atoms: O_17  and  C_18
REMARK                            x       y       z     vdW  Elec       q    Type
REMARK                         _______ _______ _______ _____ _____    ______ ____
ROOT
ATOM      1  N   UNL     1       1.867   8.045  19.672  0.00  0.00    +0.000 N 
ATOM      2  N   UNL     1       1.833   6.715  20.020  0.00  0.00    +0.000 NA
ATOM      3  C   UNL     1       2.364   5.814  19.235  0.00  0.00    +0.000 A 
ATOM      4  N   UNL     1       2.390   4.494  19.664  0.00  0.00    +0.000 N 
ATOM      5  C   UNL     1       3.382   3.498  19.239  0.00  0.00    +0.000 C 
ATOM      6  C   UNL     1       4.058   2.834  20.463  0.00  0.00    +0.000 C 
ATOM      7  N   UNL     1       3.100   2.263  21.423  0.00  0.00    +0.000 NA
ATOM      8  C   UNL     1       2.153   3.314  21.844  0.00  0.00    +0.000 C 
ATOM      9  C   UNL     1       1.429   3.981  20.657  0.00  0.00    +0.000 C 
ATOM     10  C   UNL     1       2.924   6.206  17.914  0.00  0.00    +0.000 A 
ATOM     11  C   UNL     1       2.876   7.486  17.546  0.00  0.00    +0.000 A 
ATOM     12  C   UNL     1       2.329   8.507  18.451  0.00  0.00    +0.000 A 
ATOM     13  O   UNL     1       2.341   9.688  18.100  0.00  0.00    +0.000 OA
ATOM     14  H   UNL     1       3.607   1.926  22.242  0.00  0.00    +0.000 HD
ENDROOT
BRANCH   1  15
ATOM     15  C   UNL     1       1.462   9.017  20.693  0.00  0.00    +0.000 C 
BRANCH  15  17
ATOM     16  C   UNL     1      -0.515   9.222  22.269  0.00  0.00    +0.000 C 
ATOM     17  C   UNL     1      -0.059   9.263  20.804  0.00  0.00    +0.000 C 
BRANCH  17  18
ATOM     18  O   UNL     1      -0.339  10.570  20.260  0.00  0.00    +0.000 OA
BRANCH  18  19
ATOM     19  C   UNL     1      -1.183  10.659  19.182  0.00  0.00    +0.000 A 
ATOM     20  C   UNL     1      -1.089   9.849  18.045  0.00  0.00    +0.000 A 
ATOM     21  C   UNL     1      -1.983   9.993  16.981  0.00  0.00    +0.000 A 
ATOM     22  C   UNL     1      -2.987  10.954  17.037  0.00  0.00    +0.000 A 
ATOM     23  C   UNL     1      -3.109  11.758  18.169  0.00  0.00    +0.000 A 
ATOM     24  C   UNL     1      -2.220  11.605  19.241  0.00  0.00    +0.000 A 
ATOM     25 CL   UNL     1      -2.436  12.627  20.619  0.00  0.00    +0.000 Cl
ENDBRANCH  18  19
ENDBRANCH  17  18
ENDBRANCH  15  17
ENDBRANCH   1  15
TORSDOF 4
ENDMDL
MODEL 5
REMARK VINA RESULT:      -6.9      1.594      2.143
REMARK  Name = 
REMARK  5 active torsions:
REMARK  status: ('A' for Active; 'I' for Inactive)
REMARK    1  A    between atoms: C_1  and  C_2
REMARK    2  A    between atoms: C_2  and  C_3
REMARK    3  A    between atoms: C_2  and  O_17
REMARK    4  A    between atoms: C_3  and  N_4
REMARK    5  A    between atoms: O_17  and  C_18
REMARK                            x       y       z     vdW  Elec       q    Type
REMARK                         _______ _______ _______ _____ _____    ______ ____
ROOT
ATOM      1  N   UNL     1       2.750   4.852  19.435  0.00  0.00    +0.000 N 
ATOM      2  N   UNL     1       3.980   4.920  18.821  0.00  0.00    +0.000 NA
ATOM      3  C   UNL     1       4.280   4.093  17.855  0.00  0.00    +0.000 A 
ATOM      4  N   UNL     1       5.494   4.252  17.200  0.00  0.00    +0.000 N 
ATOM      5  C   UNL     1       5.756   3.841  15.815  0.00  0.00    +0.000 C 
ATOM      6  C   UNL     1       6.324   5.019  14.987  0.00  0.00    +0.000 C 
ATOM      7  N   UNL     1       7.510   5.645  15.595  0.00  0.00    +0.000 NA
ATOM      8  C   UNL     1       7.179   6.071  16.968  0.00  0.00    +0.000 C 
ATOM      9  C   UNL     1       6.641   4.920  17.842  0.00  0.00    +0.000 C 
ATOM     10  C   UNL     1       3.337   3.007  17.474  0.00  0.00    +0.000 A 
ATOM     11  C   UNL     1       2.183   2.895  18.133  0.00  0.00    +0.000 A 
ATOM     12  C   UNL     1       1.820   3.858  19.181  0.00  0.00    +0.000 A 
ATOM     13  O   UNL     1       0.727   3.754  19.738  0.00  0.00    +0.000 OA
ATOM     14  H   UNL     1       7.773   6.464  15.047  0.00  0.00    +0.000 HD
ENDROOT
BRANCH   1  15
ATOM     15  C   UNL     1       2.393   5.946  20.345  0.00  0.00    +0.000 C 
BRANCH  15  17
ATOM     16  C   UNL     1       2.154   7.224  18.167  0.00  0.00    +0.000 C 
ATOM     17  C   UNL     1       2.292   7.341  19.692  0.00  0.00    +0.000 C 
BRANCH  17  18
ATOM     18  O   UNL     1       1.120   7.997  20.221  0.00  0.00    +0.000 OA
BRANCH  18  19
ATOM     19  C   UNL     1       1.021   9.359  20.090  0.00  0.00    +0.000 A 
ATOM     20  C   UNL     1       1.202  10.043  18.883  0.00  0.00    +0.000 A 
ATOM     21  C   UNL     1       1.086  11.434  18.819  0.00  0.00    +0.000 A 
ATOM     22  C   UNL     1       0.789  12.164  19.965  0.00  0.00    +0.000 A 
ATOM     23  C   UNL     1       0.587  11.499  21.173  0.00  0.00    +0.000 A 
ATOM     24  C   UNL     1       0.690  10.104  21.234  0.00  0.00    +0.000 A 
ATOM     25 CL   UNL     1       0.414   9.342  22.762  0.00  0.00    +0.000 Cl
ENDBRANCH  18  19
ENDBRANCH  17  18
ENDBRANCH  15  17
ENDBRANCH   1  15
TORSDOF 4
ENDMDL
MODEL 6
REMARK VINA RESULT:      -6.8      7.290     10.563
REMARK  Name = 
REMARK  5 active torsions:
REMARK  status: ('A' for Active; 'I' for Inactive)
REMARK    1  A    between atoms: C_1  and  C_2
REMARK    2  A    between atoms: C_2  and  C_3
REMARK    3  A    between atoms: C_2  and  O_17
REMARK    4  A    between atoms: C_3  and  N_4
REMARK    5  A    between atoms: O_17  and  C_18
REMARK                            x       y       z     vdW  Elec       q    Type
REMARK                         _______ _______ _______ _____ _____    ______ ____
ROOT
ATOM      1  N   UNL     1      -3.905  12.093  19.114  0.00  0.00    +0.000 N 
ATOM      2  N   UNL     1      -3.890  12.717  20.340  0.00  0.00    +0.000 NA
ATOM      3  C   UNL     1      -4.944  12.680  21.113  0.00  0.00    +0.000 A 
ATOM      4  N   UNL     1      -4.858  13.243  22.378  0.00  0.00    +0.000 N 
ATOM      5  C   UNL     1      -5.665  12.828  23.533  0.00  0.00    +0.000 C 
ATOM      6  C   UNL     1      -4.762  12.489  24.744  0.00  0.00    +0.000 C 
ATOM      7  N   UNL     1      -3.829  13.570  25.101  0.00  0.00    +0.000 NA
ATOM      8  C   UNL     1      -3.021  13.920  23.917  0.00  0.00    +0.000 C 
ATOM      9  C   UNL     1      -3.879  14.300  22.694  0.00  0.00    +0.000 C 
ATOM     10  C   UNL     1      -6.203  12.046  20.635  0.00  0.00    +0.000 A 
ATOM     11  C   UNL     1      -6.236  11.519  19.411  0.00  0.00    +0.000 A 
ATOM     12  C   UNL     1      -5.036  11.511  18.564  0.00  0.00    +0.000 A 
ATOM     13  O   UNL     1      -5.086  10.975  17.457  0.00  0.00    +0.000 OA
ATOM     14  H   UNL     1      -3.208  13.244  25.842  0.00  0.00    +0.000 HD
ENDROOT
BRANCH   1  15
ATOM     15  C   UNL     1      -2.628  11.978  18.403  0.00  0.00    +0.000 C 
BRANCH  15  17
ATOM     16  C   UNL     1      -1.387   9.989  17.434  0.00  0.00    +0.000 C 
ATOM     17  C   UNL     1      -1.807  10.710  18.723  0.00  0.00    +0.000 C 
BRANCH  17  18
ATOM     18  O   UNL     1      -0.623  11.116  19.442  0.00  0.00    +0.000 OA
BRANCH  18  19
ATOM     19  C   UNL     1      -0.429  10.623  20.708  0.00  0.00    +0.000 A 
ATOM     20  C   UNL     1      -1.109  11.085  21.840  0.00  0.00    +0.000 A 
ATOM     21  C   UNL     1      -0.862  10.538  23.102  0.00  0.00    +0.000 A 
ATOM     22  C   UNL     1       0.073   9.520  23.251  0.00  0.00    +0.000 A 
ATOM     23  C   UNL     1       0.747   9.033  22.133  0.00  0.00    +0.000 A 
ATOM     24  C   UNL     1       0.491   9.573  20.866  0.00  0.00    +0.000 A 
ATOM     25 CL   UNL     1       1.353   8.914  19.520  0.00  0.00    +0.000 Cl
ENDBRANCH  18  19
ENDBRANCH  17  18
ENDBRANCH  15  17
ENDBRANCH   1  15
TORSDOF 4
ENDMDL
MODEL 7
REMARK VINA RESULT:      -6.7      2.561      4.583
REMARK  Name = 
REMARK  5 active torsions:
REMARK  status: ('A' for Active; 'I' for Inactive)
REMARK    1  A    between atoms: C_1  and  C_2
REMARK    2  A    between atoms: C_2  and  C_3
REMARK    3  A    between atoms: C_2  and  O_17
REMARK    4  A    between atoms: C_3  and  N_4
REMARK    5  A    between atoms: O_17  and  C_18
REMARK                            x       y       z     vdW  Elec       q    Type
REMARK                         _______ _______ _______ _____ _____    ______ ____
ROOT
ATOM      1  N   UNL     1       3.699   6.695  17.457  0.00  0.00    +0.000 N 
ATOM      2  N   UNL     1       2.989   5.749  18.159  0.00  0.00    +0.000 NA
ATOM      3  C   UNL     1       3.411   4.512  18.210  0.00  0.00    +0.000 A 
ATOM      4  N   UNL     1       2.716   3.608  19.002  0.00  0.00    +0.000 N 
ATOM      5  C   UNL     1       3.307   2.413  19.618  0.00  0.00    +0.000 C 
ATOM      6  C   UNL     1       3.037   2.386  21.142  0.00  0.00    +0.000 C 
ATOM      7  N   UNL     1       1.613   2.520  21.487  0.00  0.00    +0.000 NA
ATOM      8  C   UNL     1       1.082   3.754  20.874  0.00  0.00    +0.000 C 
ATOM      9  C   UNL     1       1.298   3.808  19.349  0.00  0.00    +0.000 C 
ATOM     10  C   UNL     1       4.607   4.094  17.430  0.00  0.00    +0.000 A 
ATOM     11  C   UNL     1       5.239   4.999  16.684  0.00  0.00    +0.000 A 
ATOM     12  C   UNL     1       4.800   6.401  16.670  0.00  0.00    +0.000 A 
ATOM     13  O   UNL     1       5.434   7.222  16.006  0.00  0.00    +0.000 OA
ATOM     14  H   UNL     1       1.519   2.586  22.501  0.00  0.00    +0.000 HD
ENDROOT
BRANCH   1  15
ATOM     15  C   UNL     1       3.302   8.097  17.629  0.00  0.00    +0.000 C 
BRANCH  15  17
ATOM     16  C   UNL     1       2.032   7.856  19.812  0.00  0.00    +0.000 C 
ATOM     17  C   UNL     1       1.953   8.316  18.349  0.00  0.00    +0.000 C 
BRANCH  17  18
ATOM     18  O   UNL     1       1.656   9.728  18.315  0.00  0.00    +0.000 OA
BRANCH  18  19
ATOM     19  C   UNL     1       0.344  10.119  18.407  0.00  0.00    +0.000 A 
ATOM     20  C   UNL     1      -0.666   9.680  17.544  0.00  0.00    +0.000 A 
ATOM     21  C   UNL     1      -1.984  10.118  17.694  0.00  0.00    +0.000 A 
ATOM     22  C   UNL     1      -2.312  11.008  18.711  0.00  0.00    +0.000 A 
ATOM     23  C   UNL     1      -1.325  11.443  19.593  0.00  0.00    +0.000 A 
ATOM     24  C   UNL     1      -0.006  10.993  19.450  0.00  0.00    +0.000 A 
ATOM     25 CL   UNL     1       1.167  11.563  20.586  0.00  0.00    +0.000 Cl
ENDBRANCH  18  19
ENDBRANCH  17  18
ENDBRANCH  15  17
ENDBRANCH   1  15
TORSDOF 4
ENDMDL
MODEL 8
REMARK VINA RESULT:      -6.6      2.987      6.828
REMARK  Name = 
REMARK  5 active torsions:
REMARK  status: ('A' for Active; 'I' for Inactive)
REMARK    1  A    between atoms: C_1  and  C_2
REMARK    2  A    between atoms: C_2  and  C_3
REMARK    3  A    between atoms: C_2  and  O_17
REMARK    4  A    between atoms: C_3  and  N_4
REMARK    5  A    between atoms: O_17  and  C_18
REMARK                            x       y       z     vdW  Elec       q    Type
REMARK                         _______ _______ _______ _____ _____    ______ ____
ROOT
ATOM      1  N   UNL     1       1.870   6.389  19.584  0.00  0.00    +0.000 N 
ATOM      2  N   UNL     1       1.589   7.332  20.546  0.00  0.00    +0.000 NA
ATOM      3  C   UNL     1       1.579   8.603  20.239  0.00  0.00    +0.000 A 
ATOM      4  N   UNL     1       1.202   9.516  21.214  0.00  0.00    +0.000 N 
ATOM      5  C   UNL     1       0.603  10.829  20.941  0.00  0.00    +0.000 C 
ATOM      6  C   UNL     1      -0.723  11.004  21.721  0.00  0.00    +0.000 C 
ATOM      7  N   UNL     1      -0.588  10.764  23.168  0.00  0.00    +0.000 NA
ATOM      8  C   UNL     1      -0.018   9.420  23.382  0.00  0.00    +0.000 C 
ATOM      9  C   UNL     1       1.324   9.212  22.652  0.00  0.00    +0.000 C 
ATOM     10  C   UNL     1       1.966   9.050  18.874  0.00  0.00    +0.000 A 
ATOM     11  C   UNL     1       2.320   8.134  17.972  0.00  0.00    +0.000 A 
ATOM     12  C   UNL     1       2.278   6.703  18.298  0.00  0.00    +0.000 A 
ATOM     13  O   UNL     1       2.567   5.880  17.428  0.00  0.00    +0.000 OA
ATOM     14  H   UNL     1      -1.511  10.806  23.601  0.00  0.00    +0.000 HD
ENDROOT
BRANCH   1  15
ATOM     15  C   UNL     1       1.641   4.983  19.935  0.00  0.00    +0.000 C 
BRANCH  15  17
ATOM     16  C   UNL     1       2.223   3.618  21.992  0.00  0.00    +0.000 C 
ATOM     17  C   UNL     1       2.776   4.312  20.739  0.00  0.00    +0.000 C 
BRANCH  17  18
ATOM     18  O   UNL     1       3.398   3.325  19.890  0.00  0.00    +0.000 OA
BRANCH  18  19
ATOM     19  C   UNL     1       4.300   3.752  18.947  0.00  0.00    +0.000 A 
ATOM     20  C   UNL     1       5.358   4.626  19.216  0.00  0.00    +0.000 A 
ATOM     21  C   UNL     1       6.241   5.021  18.208  0.00  0.00    +0.000 A 
ATOM     22  C   UNL     1       6.075   4.549  16.910  0.00  0.00    +0.000 A 
ATOM     23  C   UNL     1       5.039   3.662  16.626  0.00  0.00    +0.000 A 
ATOM     24  C   UNL     1       4.162   3.256  17.640  0.00  0.00    +0.000 A 
ATOM     25 CL   UNL     1       2.905   2.145  17.220  0.00  0.00    +0.000 Cl
ENDBRANCH  18  19
ENDBRANCH  17  18
ENDBRANCH  15  17
ENDBRANCH   1  15
TORSDOF 4
ENDMDL
MODEL 9
REMARK VINA RESULT:      -6.6      2.416      4.419
REMARK  Name = 
REMARK  5 active torsions:
REMARK  status: ('A' for Active; 'I' for Inactive)
REMARK    1  A    between atoms: C_1  and  C_2
REMARK    2  A    between atoms: C_2  and  C_3
REMARK    3  A    between atoms: C_2  and  O_17
REMARK    4  A    between atoms: C_3  and  N_4
REMARK    5  A    between atoms: O_17  and  C_18
REMARK                            x       y       z     vdW  Elec       q    Type
REMARK                         _______ _______ _______ _____ _____    ______ ____
ROOT
ATOM      1  N   UNL     1       5.645   4.434  18.154  0.00  0.00    +0.000 N 
ATOM      2  N   UNL     1       5.526   4.417  16.783  0.00  0.00    +0.000 NA
ATOM      3  C   UNL     1       6.366   5.090  16.040  0.00  0.00    +0.000 A 
ATOM      4  N   UNL     1       6.269   4.974  14.660  0.00  0.00    +0.000 N 
ATOM      5  C   UNL     1       7.387   5.161  13.727  0.00  0.00    +0.000 C 
ATOM      6  C   UNL     1       7.535   3.937  12.790  0.00  0.00    +0.000 C 
ATOM      7  N   UNL     1       6.293   3.589  12.080  0.00  0.00    +0.000 NA
ATOM      8  C   UNL     1       5.217   3.377  13.067  0.00  0.00    +0.000 C 
ATOM      9  C   UNL     1       5.009   4.586  14.000  0.00  0.00    +0.000 C 
ATOM     10  C   UNL     1       7.397   5.958  16.670  0.00  0.00    +0.000 A 
ATOM     11  C   UNL     1       7.450   6.037  17.999  0.00  0.00    +0.000 A 
ATOM     12  C   UNL     1       6.544   5.238  18.836  0.00  0.00    +0.000 A 
ATOM     13  O   UNL     1       6.649   5.298  20.061  0.00  0.00    +0.000 OA
ATOM     14  H   UNL     1       6.438   2.726  11.556  0.00  0.00    +0.000 HD
ENDROOT
BRANCH   1  15
ATOM     15  C   UNL     1       4.823   3.485  18.911  0.00  0.00    +0.000 C 
BRANCH  15  17
ATOM     16  C   UNL     1       3.701   1.301  18.274  0.00  0.00    +0.000 C 
ATOM     17  C   UNL     1       3.673   2.828  18.116  0.00  0.00    +0.000 C 
BRANCH  17  18
ATOM     18  O   UNL     1       2.426   3.332  18.638  0.00  0.00    +0.000 OA
BRANCH  18  19
ATOM     19  C   UNL     1       2.336   4.670  18.930  0.00  0.00    +0.000 A 
ATOM     20  C   UNL     1       2.417   5.687  17.972  0.00  0.00    +0.000 A 
ATOM     21  C   UNL     1       2.317   7.032  18.337  0.00  0.00    +0.000 A 
ATOM     22  C   UNL     1       2.137   7.381  19.671  0.00  0.00    +0.000 A 
ATOM     23  C   UNL     1       2.035   6.383  20.638  0.00  0.00    +0.000 A 
ATOM     24  C   UNL     1       2.123   5.034  20.270  0.00  0.00    +0.000 A 
ATOM     25 CL   UNL     1       1.975   3.847  21.518  0.00  0.00    +0.000 Cl
ENDBRANCH  18  19
ENDBRANCH  17  18
ENDBRANCH  15  17
ENDBRANCH   1  15
TORSDOF 4
ENDMDL
