MODEL 1
REMARK VINA RESULT:      -7.9      0.000      0.000
REMARK  Name = 
REMARK  3 active torsions:
REMARK  status: ('A' for Active; 'I' for Inactive)
REMARK    1  A    between atoms: C_1  and  N_2
REMARK    2  A    between atoms: N_8  and  C_9
REMARK    3  A    between atoms: C_9  and  C_10
REMARK                            x       y       z     vdW  Elec       q    Type
REMARK                         _______ _______ _______ _____ _____    ______ ____
ROOT
ATOM      1  C   UNL     1       6.042   3.667  13.130  0.00  0.00    +0.000 C 
ATOM      2  N   UNL     1       6.418   4.438  14.283  0.00  0.00    +0.000 N 
ATOM      3  N   UNL     1       7.451   5.308  14.237  0.00  0.00    +0.000 NA
ATOM      4  N   UNL     1       7.604   5.818  15.459  0.00  0.00    +0.000 NA
ATOM      5  C   UNL     1       6.657   5.248  16.255  0.00  0.00    +0.000 A 
ATOM      6  C   UNL     1       6.397   5.405  17.661  0.00  0.00    +0.000 A 
ATOM      7  O   UNL     1       7.014   6.190  18.379  0.00  0.00    +0.000 OA
ATOM      8  N   UNL     1       5.358   4.576  18.113  0.00  0.00    +0.000 N 
ATOM      9  C   UNL     1       4.611   3.783  17.233  0.00  0.00    +0.000 A 
ATOM     10  N   UNL     1       4.826   3.646  15.956  0.00  0.00    +0.000 NA
ATOM     11  C   UNL     1       5.876   4.385  15.531  0.00  0.00    +0.000 A 
ENDROOT
BRANCH   8  12
ATOM     12  C   UNL     1       5.009   4.629  19.522  0.00  0.00    +0.000 C 
BRANCH  12  13
ATOM     13  C   UNL     1       3.586   4.208  19.834  0.00  0.00    +0.000 A 
ATOM     14  C   UNL     1       3.337   2.890  20.266  0.00  0.00    +0.000 A 
ATOM     15  C   UNL     1       2.077   2.512  20.739  0.00  0.00    +0.000 A 
ATOM     16  C   UNL     1       1.038   3.436  20.769  0.00  0.00    +0.000 A 
ATOM     17  C   UNL     1       1.247   4.725  20.282  0.00  0.00    +0.000 A 
ATOM     18  C   UNL     1       2.506   5.107  19.810  0.00  0.00    +0.000 A 
ATOM     19 CL   UNL     1       2.672   6.733  19.252  0.00  0.00    +0.000 Cl
ENDBRANCH  12  13
ENDBRANCH   8  12
TORSDOF 2
ENDMDL
MODEL 2
REMARK VINA RESULT:      -7.8      1.245      1.659
REMARK  Name = 
REMARK  3 active torsions:
REMARK  status: ('A' for Active; 'I' for Inactive)
REMARK    1  A    between atoms: C_1  and  N_2
REMARK    2  A    between atoms: N_8  and  C_9
REMARK    3  A    between atoms: C_9  and  C_10
REMARK                            x       y       z     vdW  Elec       q    Type
REMARK                         _______ _______ _______ _____ _____    ______ ____
ROOT
ATOM      1  C   UNL     1       5.848   3.719  13.297  0.00  0.00    +0.000 C 
ATOM      2  N   UNL     1       6.273   4.494  14.429  0.00  0.00    +0.000 N 
ATOM      3  N   UNL     1       7.418   5.213  14.396  0.00  0.00    +0.000 NA
ATOM      4  N   UNL     1       7.583   5.763  15.599  0.00  0.00    +0.000 NA
ATOM      5  C   UNL     1       6.531   5.371  16.370  0.00  0.00    +0.000 A 
ATOM      6  C   UNL     1       6.233   5.638  17.751  0.00  0.00    +0.000 A 
ATOM      7  O   UNL     1       6.918   6.371  18.462  0.00  0.00    +0.000 OA
ATOM      8  N   UNL     1       5.070   4.983  18.188  0.00  0.00    +0.000 N 
ATOM      9  C   UNL     1       4.262   4.252  17.309  0.00  0.00    +0.000 A 
ATOM     10  N   UNL     1       4.513   4.017  16.052  0.00  0.00    +0.000 NA
ATOM     11  C   UNL     1       5.673   4.583  15.648  0.00  0.00    +0.000 A 
ENDROOT
BRANCH   8  12
ATOM     12  C   UNL     1       4.668   5.160  19.572  0.00  0.00    +0.000 C 
BRANCH  12  13
ATOM     13  C   UNL     1       3.376   4.461  19.947  0.00  0.00    +0.000 A 
ATOM     14  C   UNL     1       2.177   5.201  19.984  0.00  0.00    +0.000 A 
ATOM     15  C   UNL     1       0.941   4.566  20.141  0.00  0.00    +0.000 A 
ATOM     16  C   UNL     1       0.882   3.184  20.288  0.00  0.00    +0.000 A 
ATOM     17  C   UNL     1       2.061   2.443  20.323  0.00  0.00    +0.000 A 
ATOM     18  C   UNL     1       3.299   3.074  20.163  0.00  0.00    +0.000 A 
ATOM     19 CL   UNL     1       4.702   2.066  20.195  0.00  0.00    +0.000 Cl
ENDBRANCH  12  13
ENDBRANCH   8  12
TORSDOF 2
ENDMDL
MODEL 3
REMARK VINA RESULT:      -7.6      1.809      2.753
REMARK  Name = 
REMARK  3 active torsions:
REMARK  status: ('A' for Active; 'I' for Inactive)
REMARK    1  A    between atoms: C_1  and  N_2
REMARK    2  A    between atoms: N_8  and  C_9
REMARK    3  A    between atoms: C_9  and  C_10
REMARK                            x       y       z     vdW  Elec       q    Type
REMARK                         _______ _______ _______ _____ _____    ______ ____
ROOT
ATOM      1  C   UNL     1       7.975   7.992  18.170  0.00  0.00    +0.000 C 
ATOM      2  N   UNL     1       7.516   6.885  17.378  0.00  0.00    +0.000 N 
ATOM      3  N   UNL     1       7.878   6.752  16.082  0.00  0.00    +0.000 NA
ATOM      4  N   UNL     1       7.249   5.682  15.595  0.00  0.00    +0.000 NA
ATOM      5  C   UNL     1       6.495   5.164  16.604  0.00  0.00    +0.000 A 
ATOM      6  C   UNL     1       5.595   4.043  16.618  0.00  0.00    +0.000 A 
ATOM      7  O   UNL     1       5.419   3.304  15.650  0.00  0.00    +0.000 OA
ATOM      8  N   UNL     1       4.955   3.880  17.857  0.00  0.00    +0.000 N 
ATOM      9  C   UNL     1       5.275   4.679  18.962  0.00  0.00    +0.000 A 
ATOM     10  N   UNL     1       6.101   5.686  18.966  0.00  0.00    +0.000 NA
ATOM     11  C   UNL     1       6.662   5.893  17.752  0.00  0.00    +0.000 A 
ENDROOT
BRANCH   8  12
ATOM     12  C   UNL     1       4.006   2.789  17.996  0.00  0.00    +0.000 C 
BRANCH  12  13
ATOM     13  C   UNL     1       3.027   2.949  19.143  0.00  0.00    +0.000 A 
ATOM     14  C   UNL     1       3.325   2.363  20.390  0.00  0.00    +0.000 A 
ATOM     15  C   UNL     1       2.549   2.637  21.520  0.00  0.00    +0.000 A 
ATOM     16  C   UNL     1       1.448   3.482  21.420  0.00  0.00    +0.000 A 
ATOM     17  C   UNL     1       1.097   4.015  20.182  0.00  0.00    +0.000 A 
ATOM     18  C   UNL     1       1.873   3.745  19.050  0.00  0.00    +0.000 A 
ATOM     19 CL   UNL     1       1.372   4.473  17.566  0.00  0.00    +0.000 Cl
ENDBRANCH  12  13
ENDBRANCH   8  12
TORSDOF 2
ENDMDL
MODEL 4
REMARK VINA RESULT:      -7.5      1.681      1.954
REMARK  Name = 
REMARK  3 active torsions:
REMARK  status: ('A' for Active; 'I' for Inactive)
REMARK    1  A    between atoms: C_1  and  N_2
REMARK    2  A    between atoms: N_8  and  C_9
REMARK    3  A    between atoms: C_9  and  C_10
REMARK                            x       y       z     vdW  Elec       q    Type
REMARK                         _______ _______ _______ _____ _____    ______ ____
ROOT
ATOM      1  C   UNL     1       7.186   4.835  14.306  0.00  0.00    +0.000 C 
ATOM      2  N   UNL     1       7.097   4.806  15.739  0.00  0.00    +0.000 N 
ATOM      3  N   UNL     1       8.093   4.289  16.492  0.00  0.00    +0.000 NA
ATOM      4  N   UNL     1       7.701   4.334  17.765  0.00  0.00    +0.000 NA
ATOM      5  C   UNL     1       6.454   4.881  17.784  0.00  0.00    +0.000 A 
ATOM      6  C   UNL     1       5.555   5.123  18.880  0.00  0.00    +0.000 A 
ATOM      7  O   UNL     1       5.845   4.904  20.055  0.00  0.00    +0.000 OA
ATOM      8  N   UNL     1       4.321   5.647  18.460  0.00  0.00    +0.000 N 
ATOM      9  C   UNL     1       4.081   5.985  17.123  0.00  0.00    +0.000 A 
ATOM     10  N   UNL     1       4.894   5.786  16.124  0.00  0.00    +0.000 NA
ATOM     11  C   UNL     1       6.054   5.210  16.515  0.00  0.00    +0.000 A 
ENDROOT
BRANCH   8  12
ATOM     12  C   UNL     1       3.317   5.921  19.474  0.00  0.00    +0.000 C 
BRANCH  12  13
ATOM     13  C   UNL     1       2.572   4.698  19.968  0.00  0.00    +0.000 A 
ATOM     14  C   UNL     1       2.770   4.259  21.293  0.00  0.00    +0.000 A 
ATOM     15  C   UNL     1       1.971   3.255  21.848  0.00  0.00    +0.000 A 
ATOM     16  C   UNL     1       0.976   2.654  21.083  0.00  0.00    +0.000 A 
ATOM     17  C   UNL     1       0.811   3.026  19.751  0.00  0.00    +0.000 A 
ATOM     18  C   UNL     1       1.607   4.032  19.193  0.00  0.00    +0.000 A 
ATOM     19 CL   UNL     1       1.308   4.441  17.542  0.00  0.00    +0.000 Cl
ENDBRANCH  12  13
ENDBRANCH   8  12
TORSDOF 2
ENDMDL
MODEL 5
REMARK VINA RESULT:      -7.5      1.397      1.826
REMARK  Name = 
REMARK  3 active torsions:
REMARK  status: ('A' for Active; 'I' for Inactive)
REMARK    1  A    between atoms: C_1  and  N_2
REMARK    2  A    between atoms: N_8  and  C_9
REMARK    3  A    between atoms: C_9  and  C_10
REMARK                            x       y       z     vdW  Elec       q    Type
REMARK                         _______ _______ _______ _____ _____    ______ ____
ROOT
ATOM      1  C   UNL     1       5.734   3.462  12.644  0.00  0.00    +0.000 C 
ATOM      2  N   UNL     1       6.334   4.238  13.693  0.00  0.00    +0.000 N 
ATOM      3  N   UNL     1       7.426   5.001  13.463  0.00  0.00    +0.000 NA
ATOM      4  N   UNL     1       7.793   5.541  14.625  0.00  0.00    +0.000 NA
ATOM      5  C   UNL     1       6.918   5.098  15.570  0.00  0.00    +0.000 A 
ATOM      6  C   UNL     1       6.872   5.334  16.988  0.00  0.00    +0.000 A 
ATOM      7  O   UNL     1       7.652   6.083  17.574  0.00  0.00    +0.000 OA
ATOM      8  N   UNL     1       5.836   4.628  17.619  0.00  0.00    +0.000 N 
ATOM      9  C   UNL     1       4.905   3.878  16.891  0.00  0.00    +0.000 A 
ATOM     10  N   UNL     1       4.926   3.670  15.605  0.00  0.00    +0.000 NA
ATOM     11  C   UNL     1       5.969   4.286  15.004  0.00  0.00    +0.000 A 
ENDROOT
BRANCH   8  12
ATOM     12  C   UNL     1       5.692   4.770  19.058  0.00  0.00    +0.000 C 
BRANCH  12  13
ATOM     13  C   UNL     1       4.262   4.707  19.557  0.00  0.00    +0.000 A 
ATOM     14  C   UNL     1       3.469   5.873  19.526  0.00  0.00    +0.000 A 
ATOM     15  C   UNL     1       2.099   5.821  19.799  0.00  0.00    +0.000 A 
ATOM     16  C   UNL     1       1.501   4.610  20.132  0.00  0.00    +0.000 A 
ATOM     17  C   UNL     1       2.281   3.460  20.235  0.00  0.00    +0.000 A 
ATOM     18  C   UNL     1       3.651   3.508  19.960  0.00  0.00    +0.000 A 
ATOM     19 CL   UNL     1       4.527   2.025  20.090  0.00  0.00    +0.000 Cl
ENDBRANCH  12  13
ENDBRANCH   8  12
TORSDOF 2
ENDMDL
MODEL 6
REMARK VINA RESULT:      -7.3      2.185      3.263
REMARK  Name = 
REMARK  3 active torsions:
REMARK  status: ('A' for Active; 'I' for Inactive)
REMARK    1  A    between atoms: C_1  and  N_2
REMARK    2  A    between atoms: N_8  and  C_9
REMARK    3  A    between atoms: C_9  and  C_10
REMARK                            x       y       z     vdW  Elec       q    Type
REMARK                         _______ _______ _______ _____ _____    ______ ____
ROOT
ATOM      1  C   UNL     1       8.409   7.826  18.782  0.00  0.00    +0.000 C 
ATOM      2  N   UNL     1       7.749   6.939  17.863  0.00  0.00    +0.000 N 
ATOM      3  N   UNL     1       7.909   7.070  16.528  0.00  0.00    +0.000 NA
ATOM      4  N   UNL     1       7.129   6.163  15.938  0.00  0.00    +0.000 NA
ATOM      5  C   UNL     1       6.487   5.480  16.926  0.00  0.00    +0.000 A 
ATOM      6  C   UNL     1       5.507   4.430  16.853  0.00  0.00    +0.000 A 
ATOM      7  O   UNL     1       5.132   3.927  15.795  0.00  0.00    +0.000 OA
ATOM      8  N   UNL     1       5.041   4.039  18.118  0.00  0.00    +0.000 N 
ATOM      9  C   UNL     1       5.582   4.564  19.298  0.00  0.00    +0.000 A 
ATOM     10  N   UNL     1       6.482   5.503  19.377  0.00  0.00    +0.000 NA
ATOM     11  C   UNL     1       6.877   5.936  18.158  0.00  0.00    +0.000 A 
ENDROOT
BRANCH   8  12
ATOM     12  C   UNL     1       4.033   2.994  18.180  0.00  0.00    +0.000 C 
BRANCH  12  13
ATOM     13  C   UNL     1       3.080   3.107  19.353  0.00  0.00    +0.000 A 
ATOM     14  C   UNL     1       1.866   3.805  19.191  0.00  0.00    +0.000 A 
ATOM     15  C   UNL     1       0.880   3.777  20.181  0.00  0.00    +0.000 A 
ATOM     16  C   UNL     1       1.096   3.073  21.361  0.00  0.00    +0.000 A 
ATOM     17  C   UNL     1       2.317   2.434  21.568  0.00  0.00    +0.000 A 
ATOM     18  C   UNL     1       3.305   2.457  20.579  0.00  0.00    +0.000 A 
ATOM     19 CL   UNL     1       4.774   1.614  20.920  0.00  0.00    +0.000 Cl
ENDBRANCH  12  13
ENDBRANCH   8  12
TORSDOF 2
ENDMDL
MODEL 7
REMARK VINA RESULT:      -7.0      2.608      3.506
REMARK  Name = 
REMARK  3 active torsions:
REMARK  status: ('A' for Active; 'I' for Inactive)
REMARK    1  A    between atoms: C_1  and  N_2
REMARK    2  A    between atoms: N_8  and  C_9
REMARK    3  A    between atoms: C_9  and  C_10
REMARK                            x       y       z     vdW  Elec       q    Type
REMARK                         _______ _______ _______ _____ _____    ______ ____
ROOT
ATOM      1  C   UNL     1       8.107   8.708  17.567  0.00  0.00    +0.000 C 
ATOM      2  N   UNL     1       7.676   7.456  18.125  0.00  0.00    +0.000 N 
ATOM      3  N   UNL     1       8.444   6.781  19.008  0.00  0.00    +0.000 NA
ATOM      4  N   UNL     1       7.822   5.637  19.291  0.00  0.00    +0.000 NA
ATOM      5  C   UNL     1       6.667   5.616  18.569  0.00  0.00    +0.000 A 
ATOM      6  C   UNL     1       5.647   4.608  18.464  0.00  0.00    +0.000 A 
ATOM      7  O   UNL     1       5.656   3.566  19.118  0.00  0.00    +0.000 OA
ATOM      8  N   UNL     1       4.641   4.952  17.547  0.00  0.00    +0.000 N 
ATOM      9  C   UNL     1       4.618   6.200  16.913  0.00  0.00    +0.000 A 
ATOM     10  N   UNL     1       5.527   7.127  17.013  0.00  0.00    +0.000 NA
ATOM     11  C   UNL     1       6.538   6.767  17.836  0.00  0.00    +0.000 A 
ENDROOT
BRANCH   8  12
ATOM     12  C   UNL     1       3.558   4.007  17.339  0.00  0.00    +0.000 C 
BRANCH  12  13
ATOM     13  C   UNL     1       2.734   3.710  18.576  0.00  0.00    +0.000 A 
ATOM     14  C   UNL     1       1.975   4.743  19.163  0.00  0.00    +0.000 A 
ATOM     15  C   UNL     1       1.062   4.475  20.187  0.00  0.00    +0.000 A 
ATOM     16  C   UNL     1       0.908   3.176  20.661  0.00  0.00    +0.000 A 
ATOM     17  C   UNL     1       1.699   2.154  20.141  0.00  0.00    +0.000 A 
ATOM     18  C   UNL     1       2.612   2.418  19.115  0.00  0.00    +0.000 A 
ATOM     19 CL   UNL     1       3.528   1.080  18.519  0.00  0.00    +0.000 Cl
ENDBRANCH  12  13
ENDBRANCH   8  12
TORSDOF 2
ENDMDL
MODEL 8
REMARK VINA RESULT:      -7.0      2.154      3.090
REMARK  Name = 
REMARK  3 active torsions:
REMARK  status: ('A' for Active; 'I' for Inactive)
REMARK    1  A    between atoms: C_1  and  N_2
REMARK    2  A    between atoms: N_8  and  C_9
REMARK    3  A    between atoms: C_9  and  C_10
REMARK                            x       y       z     vdW  Elec       q    Type
REMARK                         _______ _______ _______ _____ _____    ______ ____
ROOT
ATOM      1  C   UNL     1       8.163   8.489  17.539  0.00  0.00    +0.000 C 
ATOM      2  N   UNL     1       7.649   7.269  18.096  0.00  0.00    +0.000 N 
ATOM      3  N   UNL     1       8.286   6.638  19.108  0.00  0.00    +0.000 NA
ATOM      4  N   UNL     1       7.622   5.511  19.362  0.00  0.00    +0.000 NA
ATOM      5  C   UNL     1       6.574   5.455  18.493  0.00  0.00    +0.000 A 
ATOM      6  C   UNL     1       5.568   4.446  18.304  0.00  0.00    +0.000 A 
ATOM      7  O   UNL     1       5.480   3.439  19.005  0.00  0.00    +0.000 OA
ATOM      8  N   UNL     1       4.697   4.745  17.244  0.00  0.00    +0.000 N 
ATOM      9  C   UNL     1       4.770   5.958  16.550  0.00  0.00    +0.000 A 
ATOM     10  N   UNL     1       5.666   6.888  16.724  0.00  0.00    +0.000 NA
ATOM     11  C   UNL     1       6.554   6.568  17.693  0.00  0.00    +0.000 A 
ENDROOT
BRANCH   8  12
ATOM     12  C   UNL     1       3.643   3.793  16.940  0.00  0.00    +0.000 C 
BRANCH  12  13
ATOM     13  C   UNL     1       2.643   3.581  18.060  0.00  0.00    +0.000 A 
ATOM     14  C   UNL     1       2.386   2.272  18.515  0.00  0.00    +0.000 A 
ATOM     15  C   UNL     1       1.618   2.045  19.661  0.00  0.00    +0.000 A 
ATOM     16  C   UNL     1       1.074   3.118  20.360  0.00  0.00    +0.000 A 
ATOM     17  C   UNL     1       1.261   4.415  19.886  0.00  0.00    +0.000 A 
ATOM     18  C   UNL     1       2.030   4.646  18.741  0.00  0.00    +0.000 A 
ATOM     19 CL   UNL     1       2.225   6.290  18.248  0.00  0.00    +0.000 Cl
ENDBRANCH  12  13
ENDBRANCH   8  12
TORSDOF 2
ENDMDL
MODEL 9
REMARK VINA RESULT:      -7.0      1.316      1.838
REMARK  Name = 
REMARK  3 active torsions:
REMARK  status: ('A' for Active; 'I' for Inactive)
REMARK    1  A    between atoms: C_1  and  N_2
REMARK    2  A    between atoms: N_8  and  C_9
REMARK    3  A    between atoms: C_9  and  C_10
REMARK                            x       y       z     vdW  Elec       q    Type
REMARK                         _______ _______ _______ _____ _____    ______ ____
ROOT
ATOM      1  C   UNL     1       6.159   3.925  13.061  0.00  0.00    +0.000 C 
ATOM      2  N   UNL     1       6.487   4.530  14.323  0.00  0.00    +0.000 N 
ATOM      3  N   UNL     1       7.513   5.402  14.435  0.00  0.00    +0.000 NA
ATOM      4  N   UNL     1       7.618   5.737  15.722  0.00  0.00    +0.000 NA
ATOM      5  C   UNL     1       6.650   5.057  16.396  0.00  0.00    +0.000 A 
ATOM      6  C   UNL     1       6.341   5.015  17.800  0.00  0.00    +0.000 A 
ATOM      7  O   UNL     1       6.925   5.694  18.642  0.00  0.00    +0.000 OA
ATOM      8  N   UNL     1       5.295   4.126  18.095  0.00  0.00    +0.000 N 
ATOM      9  C   UNL     1       4.586   3.460  17.087  0.00  0.00    +0.000 A 
ATOM     10  N   UNL     1       4.846   3.504  15.811  0.00  0.00    +0.000 NA
ATOM     11  C   UNL     1       5.903   4.300  15.531  0.00  0.00    +0.000 A 
ENDROOT
BRANCH   8  12
ATOM     12  C   UNL     1       4.897   3.980  19.485  0.00  0.00    +0.000 C 
BRANCH  12  13
ATOM     13  C   UNL     1       3.684   4.799  19.881  0.00  0.00    +0.000 A 
ATOM     14  C   UNL     1       3.559   6.120  19.403  0.00  0.00    +0.000 A 
ATOM     15  C   UNL     1       2.378   6.845  19.588  0.00  0.00    +0.000 A 
ATOM     16  C   UNL     1       1.311   6.275  20.274  0.00  0.00    +0.000 A 
ATOM     17  C   UNL     1       1.441   4.997  20.813  0.00  0.00    +0.000 A 
ATOM     18  C   UNL     1       2.620   4.267  20.627  0.00  0.00    +0.000 A 
ATOM     19 CL   UNL     1       2.674   2.682  21.311  0.00  0.00    +0.000 Cl
ENDBRANCH  12  13
ENDBRANCH   8  12
TORSDOF 2
ENDMDL
