MODEL 1
REMARK VINA RESULT:      -8.0      0.000      0.000
REMARK  Name = 
REMARK  8 active torsions:
REMARK  status: ('A' for Active; 'I' for Inactive)
REMARK    1  A    between atoms: C_1  and  N_2
REMARK    2  A    between atoms: N_2  and  C_3
REMARK    3  A    between atoms: C_3  and  C_4
REMARK    4  A    between atoms: C_4  and  O_5
REMARK    5  A    between atoms: C_4  and  C_6
REMARK    6  A    between atoms: C_17  and  O_18
REMARK    7  A    between atoms: O_18  and  C_19
REMARK    8  A    between atoms: C_19  and  C_21
REMARK                            x       y       z     vdW  Elec       q    Type
REMARK                         _______ _______ _______ _____ _____    ______ ____
ROOT
ATOM      1  C   UNL     1       4.331   7.282  17.068  0.00  0.00    +0.000 C 
ATOM      2  N   UNL     1       4.823   6.076  17.890  0.00  0.00    +0.000 N 
ATOM      3  C   UNL     1       6.361   5.962  17.961  0.00  0.00    +0.000 C 
ATOM      4  C   UNL     1       6.605   4.547  18.499  0.00  0.00    +0.000 C 
ATOM      5  C   UNL     1       5.387   3.737  18.077  0.00  0.00    +0.000 C 
ATOM      6  C   UNL     1       4.501   4.707  17.284  0.00  0.00    +0.000 C 
ATOM      7  C   UNL     1       4.877   4.686  15.804  0.00  0.00    +0.000 C 
ATOM      8  C   UNL     1       6.191   5.397  15.436  0.00  0.00    +0.000 C 
ATOM      9  C   UNL     1       6.973   6.091  16.564  0.00  0.00    +0.000 C 
ENDROOT
BRANCH   2  10
ATOM     10  C   UNL     1       4.226   6.252  19.355  0.00  0.00    +0.000 C 
BRANCH  10  11
ATOM     11  C   UNL     1       2.669   6.281  19.426  0.00  0.00    +0.000 C 
BRANCH  11  12
ATOM     12  C   UNL     1       2.086   4.953  19.850  0.00  0.00    +0.000 A 
ATOM     13  C   UNL     1       2.201   4.522  21.179  0.00  0.00    +0.000 A 
ATOM     14  C   UNL     1       1.741   3.258  21.551  0.00  0.00    +0.000 A 
ATOM     15  C   UNL     1       1.167   2.415  20.602  0.00  0.00    +0.000 A 
ATOM     16  C   UNL     1       1.048   2.832  19.279  0.00  0.00    +0.000 A 
ATOM     17  C   UNL     1       1.501   4.094  18.903  0.00  0.00    +0.000 A 
ENDBRANCH  11  12
BRANCH  11  18
ATOM     18  O   UNL     1       2.223   7.270  20.357  0.00  0.00    +0.000 OA
ATOM     19  H   UNL     1       1.309   7.528  20.129  0.00  0.00    +0.000 HD
ENDBRANCH  11  18
ENDBRANCH  10  11
ENDBRANCH   2  10
BRANCH   8  20
ATOM     20  O   UNL     1       7.064   4.473  14.770  0.00  0.00    +0.000 OA
BRANCH  20  21
ATOM     21  C   UNL     1       7.262   4.746  13.449  0.00  0.00    +0.000 C 
ATOM     22  O   UNL     1       7.886   5.709  13.015  0.00  0.00    +0.000 OA
BRANCH  21  23
ATOM     23  C   UNL     1       6.611   3.732  12.596  0.00  0.00    +0.000 A 
ATOM     24  C   UNL     1       7.420   2.769  11.979  0.00  0.00    +0.000 A 
ATOM     25  C   UNL     1       6.852   1.819  11.133  0.00  0.00    +0.000 A 
ATOM     26  C   UNL     1       5.476   1.825  10.905  0.00  0.00    +0.000 A 
ATOM     27  C   UNL     1       4.665   2.775  11.525  0.00  0.00    +0.000 A 
ATOM     28  C   UNL     1       5.228   3.728  12.372  0.00  0.00    +0.000 A 
ENDBRANCH  21  23
ENDBRANCH  20  21
ENDBRANCH   8  20
TORSDOF 7
ENDMDL
MODEL 2
REMARK VINA RESULT:      -8.0      0.871      1.680
REMARK  Name = 
REMARK  8 active torsions:
REMARK  status: ('A' for Active; 'I' for Inactive)
REMARK    1  A    between atoms: C_1  and  N_2
REMARK    2  A    between atoms: N_2  and  C_3
REMARK    3  A    between atoms: C_3  and  C_4
REMARK    4  A    between atoms: C_4  and  O_5
REMARK    5  A    between atoms: C_4  and  C_6
REMARK    6  A    between atoms: C_17  and  O_18
REMARK    7  A    between atoms: O_18  and  C_19
REMARK    8  A    between atoms: C_19  and  C_21
REMARK                            x       y       z     vdW  Elec       q    Type
REMARK                         _______ _______ _______ _____ _____    ______ ____
ROOT
ATOM      1  C   UNL     1       4.101   4.264  16.712  0.00  0.00    +0.000 C 
ATOM      2  N   UNL     1       5.115   5.231  17.350  0.00  0.00    +0.000 N 
ATOM      3  C   UNL     1       5.427   6.465  16.477  0.00  0.00    +0.000 C 
ATOM      4  C   UNL     1       6.678   7.072  17.122  0.00  0.00    +0.000 C 
ATOM      5  C   UNL     1       7.386   5.910  17.806  0.00  0.00    +0.000 C 
ATOM      6  C   UNL     1       6.533   4.672  17.502  0.00  0.00    +0.000 C 
ATOM      7  C   UNL     1       6.983   4.019  16.197  0.00  0.00    +0.000 C 
ATOM      8  C   UNL     1       6.585   4.757  14.907  0.00  0.00    +0.000 C 
ATOM      9  C   UNL     1       5.747   6.040  15.041  0.00  0.00    +0.000 C 
ENDROOT
BRANCH   2  10
ATOM     10  C   UNL     1       4.489   5.695  18.738  0.00  0.00    +0.000 C 
BRANCH  10  11
ATOM     11  C   UNL     1       2.936   5.827  18.742  0.00  0.00    +0.000 C 
BRANCH  11  12
ATOM     12  C   UNL     1       2.270   4.768  19.589  0.00  0.00    +0.000 A 
ATOM     13  C   UNL     1       2.658   4.580  20.924  0.00  0.00    +0.000 A 
ATOM     14  C   UNL     1       2.105   3.545  21.678  0.00  0.00    +0.000 A 
ATOM     15  C   UNL     1       1.166   2.688  21.109  0.00  0.00    +0.000 A 
ATOM     16  C   UNL     1       0.773   2.864  19.785  0.00  0.00    +0.000 A 
ATOM     17  C   UNL     1       1.318   3.899  19.028  0.00  0.00    +0.000 A 
ENDBRANCH  11  12
BRANCH  11  18
ATOM     18  O   UNL     1       2.538   7.103  19.249  0.00  0.00    +0.000 OA
ATOM     19  H   UNL     1       2.033   7.573  18.558  0.00  0.00    +0.000 HD
ENDBRANCH  11  18
ENDBRANCH  10  11
ENDBRANCH   2  10
BRANCH   8  20
ATOM     20  O   UNL     1       7.763   5.055  14.143  0.00  0.00    +0.000 OA
BRANCH  20  21
ATOM     21  C   UNL     1       7.539   5.200  12.806  0.00  0.00    +0.000 C 
ATOM     22  O   UNL     1       7.793   6.209  12.156  0.00  0.00    +0.000 OA
BRANCH  21  23
ATOM     23  C   UNL     1       6.933   3.982  12.235  0.00  0.00    +0.000 A 
ATOM     24  C   UNL     1       5.536   3.883  12.220  0.00  0.00    +0.000 A 
ATOM     25  C   UNL     1       4.923   2.733  11.728  0.00  0.00    +0.000 A 
ATOM     26  C   UNL     1       5.702   1.681  11.246  0.00  0.00    +0.000 A 
ATOM     27  C   UNL     1       7.093   1.780  11.248  0.00  0.00    +0.000 A 
ATOM     28  C   UNL     1       7.712   2.928  11.739  0.00  0.00    +0.000 A 
ENDBRANCH  21  23
ENDBRANCH  20  21
ENDBRANCH   8  20
TORSDOF 7
ENDMDL
MODEL 3
REMARK VINA RESULT:      -7.9      0.916      1.721
REMARK  Name = 
REMARK  8 active torsions:
REMARK  status: ('A' for Active; 'I' for Inactive)
REMARK    1  A    between atoms: C_1  and  N_2
REMARK    2  A    between atoms: N_2  and  C_3
REMARK    3  A    between atoms: C_3  and  C_4
REMARK    4  A    between atoms: C_4  and  O_5
REMARK    5  A    between atoms: C_4  and  C_6
REMARK    6  A    between atoms: C_17  and  O_18
REMARK    7  A    between atoms: O_18  and  C_19
REMARK    8  A    between atoms: C_19  and  C_21
REMARK                            x       y       z     vdW  Elec       q    Type
REMARK                         _______ _______ _______ _____ _____    ______ ____
ROOT
ATOM      1  C   UNL     1       4.282   4.082  16.772  0.00  0.00    +0.000 C 
ATOM      2  N   UNL     1       5.228   5.145  17.361  0.00  0.00    +0.000 N 
ATOM      3  C   UNL     1       5.413   6.379  16.454  0.00  0.00    +0.000 C 
ATOM      4  C   UNL     1       6.626   7.102  17.052  0.00  0.00    +0.000 C 
ATOM      5  C   UNL     1       7.445   6.020  17.740  0.00  0.00    +0.000 C 
ATOM      6  C   UNL     1       6.691   4.708  17.487  0.00  0.00    +0.000 C 
ATOM      7  C   UNL     1       7.161   4.065  16.184  0.00  0.00    +0.000 C 
ATOM      8  C   UNL     1       6.670   4.737  14.889  0.00  0.00    +0.000 C 
ATOM      9  C   UNL     1       5.731   5.948  15.020  0.00  0.00    +0.000 C 
ENDROOT
BRANCH   2  10
ATOM     10  C   UNL     1       4.601   5.587  18.756  0.00  0.00    +0.000 C 
BRANCH  10  11
ATOM     11  C   UNL     1       3.047   5.700  18.767  0.00  0.00    +0.000 C 
BRANCH  11  12
ATOM     12  C   UNL     1       2.395   4.608  19.583  0.00  0.00    +0.000 A 
ATOM     13  C   UNL     1       1.360   3.837  19.035  0.00  0.00    +0.000 A 
ATOM     14  C   UNL     1       0.700   2.889  19.818  0.00  0.00    +0.000 A 
ATOM     15  C   UNL     1       1.064   2.705  21.151  0.00  0.00    +0.000 A 
ATOM     16  C   UNL     1       2.090   3.464  21.705  0.00  0.00    +0.000 A 
ATOM     17  C   UNL     1       2.756   4.409  20.927  0.00  0.00    +0.000 A 
ENDBRANCH  11  12
BRANCH  11  18
ATOM     18  O   UNL     1       2.634   6.956  19.312  0.00  0.00    +0.000 OA
ATOM     19  H   UNL     1       2.515   6.857  20.276  0.00  0.00    +0.000 HD
ENDBRANCH  11  18
ENDBRANCH  10  11
ENDBRANCH   2  10
BRANCH   8  20
ATOM     20  O   UNL     1       7.799   5.113  14.088  0.00  0.00    +0.000 OA
BRANCH  20  21
ATOM     21  C   UNL     1       7.528   5.216  12.755  0.00  0.00    +0.000 C 
ATOM     22  O   UNL     1       7.767   6.199  12.062  0.00  0.00    +0.000 OA
BRANCH  21  23
ATOM     23  C   UNL     1       6.890   3.985  12.249  0.00  0.00    +0.000 A 
ATOM     24  C   UNL     1       7.715   2.962  11.766  0.00  0.00    +0.000 A 
ATOM     25  C   UNL     1       7.153   1.801  11.241  0.00  0.00    +0.000 A 
ATOM     26  C   UNL     1       5.767   1.656  11.201  0.00  0.00    +0.000 A 
ATOM     27  C   UNL     1       4.940   2.667  11.691  0.00  0.00    +0.000 A 
ATOM     28  C   UNL     1       5.497   3.831  12.217  0.00  0.00    +0.000 A 
ENDBRANCH  21  23
ENDBRANCH  20  21
ENDBRANCH   8  20
TORSDOF 7
ENDMDL
MODEL 4
REMARK VINA RESULT:      -7.5      0.619      1.487
REMARK  Name = 
REMARK  8 active torsions:
REMARK  status: ('A' for Active; 'I' for Inactive)
REMARK    1  A    between atoms: C_1  and  N_2
REMARK    2  A    between atoms: N_2  and  C_3
REMARK    3  A    between atoms: C_3  and  C_4
REMARK    4  A    between atoms: C_4  and  O_5
REMARK    5  A    between atoms: C_4  and  C_6
REMARK    6  A    between atoms: C_17  and  O_18
REMARK    7  A    between atoms: O_18  and  C_19
REMARK    8  A    between atoms: C_19  and  C_21
REMARK                            x       y       z     vdW  Elec       q    Type
REMARK                         _______ _______ _______ _____ _____    ______ ____
ROOT
ATOM      1  C   UNL     1       5.817   7.453  17.646  0.00  0.00    +0.000 C 
ATOM      2  N   UNL     1       5.252   6.049  17.927  0.00  0.00    +0.000 N 
ATOM      3  C   UNL     1       6.340   4.969  18.110  0.00  0.00    +0.000 C 
ATOM      4  C   UNL     1       5.571   3.646  18.018  0.00  0.00    +0.000 C 
ATOM      5  C   UNL     1       4.348   3.946  17.163  0.00  0.00    +0.000 C 
ATOM      6  C   UNL     1       4.475   5.422  16.766  0.00  0.00    +0.000 C 
ATOM      7  C   UNL     1       5.266   5.560  15.467  0.00  0.00    +0.000 C 
ATOM      8  C   UNL     1       6.785   5.338  15.582  0.00  0.00    +0.000 C 
ATOM      9  C   UNL     1       7.366   5.044  16.975  0.00  0.00    +0.000 C 
ENDROOT
BRANCH   2  10
ATOM     10  C   UNL     1       4.380   6.167  19.252  0.00  0.00    +0.000 C 
BRANCH  10  11
ATOM     11  C   UNL     1       2.843   6.022  19.038  0.00  0.00    +0.000 C 
BRANCH  11  12
ATOM     12  C   UNL     1       2.277   4.805  19.733  0.00  0.00    +0.000 A 
ATOM     13  C   UNL     1       1.298   4.022  19.104  0.00  0.00    +0.000 A 
ATOM     14  C   UNL     1       0.713   2.951  19.781  0.00  0.00    +0.000 A 
ATOM     15  C   UNL     1       1.096   2.655  21.087  0.00  0.00    +0.000 A 
ATOM     16  C   UNL     1       2.067   3.425  21.722  0.00  0.00    +0.000 A 
ATOM     17  C   UNL     1       2.658   4.492  21.049  0.00  0.00    +0.000 A 
ENDBRANCH  11  12
BRANCH  11  18
ATOM     18  O   UNL     1       2.151   7.169  19.538  0.00  0.00    +0.000 OA
ATOM     19  H   UNL     1       1.947   7.764  18.791  0.00  0.00    +0.000 HD
ENDBRANCH  11  18
ENDBRANCH  10  11
ENDBRANCH   2  10
BRANCH   8  20
ATOM     20  O   UNL     1       7.183   4.289  14.686  0.00  0.00    +0.000 OA
BRANCH  20  21
ATOM     21  C   UNL     1       7.255   4.671  13.378  0.00  0.00    +0.000 C 
ATOM     22  O   UNL     1       7.816   5.683  12.971  0.00  0.00    +0.000 OA
BRANCH  21  23
ATOM     23  C   UNL     1       6.554   3.708  12.507  0.00  0.00    +0.000 A 
ATOM     24  C   UNL     1       5.170   3.850  12.343  0.00  0.00    +0.000 A 
ATOM     25  C   UNL     1       4.463   2.939  11.562  0.00  0.00    +0.000 A 
ATOM     26  C   UNL     1       5.135   1.887  10.940  0.00  0.00    +0.000 A 
ATOM     27  C   UNL     1       6.514   1.747  11.091  0.00  0.00    +0.000 A 
ATOM     28  C   UNL     1       7.227   2.656  11.871  0.00  0.00    +0.000 A 
ENDBRANCH  21  23
ENDBRANCH  20  21
ENDBRANCH   8  20
TORSDOF 7
ENDMDL
MODEL 5
REMARK VINA RESULT:      -7.3      3.402      6.200
REMARK  Name = 
REMARK  8 active torsions:
REMARK  status: ('A' for Active; 'I' for Inactive)
REMARK    1  A    between atoms: C_1  and  N_2
REMARK    2  A    between atoms: N_2  and  C_3
REMARK    3  A    between atoms: C_3  and  C_4
REMARK    4  A    between atoms: C_4  and  O_5
REMARK    5  A    between atoms: C_4  and  C_6
REMARK    6  A    between atoms: C_17  and  O_18
REMARK    7  A    between atoms: O_18  and  C_19
REMARK    8  A    between atoms: C_19  and  C_21
REMARK                            x       y       z     vdW  Elec       q    Type
REMARK                         _______ _______ _______ _____ _____    ______ ____
ROOT
ATOM      1  C   UNL     1       6.154   3.864  16.036  0.00  0.00    +0.000 C 
ATOM      2  N   UNL     1       5.109   4.499  16.972  0.00  0.00    +0.000 N 
ATOM      3  C   UNL     1       4.534   5.831  16.444  0.00  0.00    +0.000 C 
ATOM      4  C   UNL     1       3.818   6.435  17.657  0.00  0.00    +0.000 C 
ATOM      5  C   UNL     1       4.535   5.868  18.875  0.00  0.00    +0.000 C 
ATOM      6  C   UNL     1       5.657   4.984  18.318  0.00  0.00    +0.000 C 
ATOM      7  C   UNL     1       6.927   5.804  18.103  0.00  0.00    +0.000 C 
ATOM      8  C   UNL     1       6.914   6.755  16.894  0.00  0.00    +0.000 C 
ATOM      9  C   UNL     1       5.663   6.764  15.999  0.00  0.00    +0.000 C 
ENDROOT
BRANCH   2  10
ATOM     10  C   UNL     1       3.940   3.433  17.137  0.00  0.00    +0.000 C 
BRANCH  10  11
ATOM     11  C   UNL     1       4.125   2.438  18.323  0.00  0.00    +0.000 C 
BRANCH  11  12
ATOM     12  C   UNL     1       3.052   2.590  19.376  0.00  0.00    +0.000 A 
ATOM     13  C   UNL     1       1.734   2.893  19.005  0.00  0.00    +0.000 A 
ATOM     14  C   UNL     1       0.763   3.120  19.982  0.00  0.00    +0.000 A 
ATOM     15  C   UNL     1       1.099   3.049  21.332  0.00  0.00    +0.000 A 
ATOM     16  C   UNL     1       2.404   2.748  21.712  0.00  0.00    +0.000 A 
ATOM     17  C   UNL     1       3.376   2.517  20.742  0.00  0.00    +0.000 A 
ENDBRANCH  11  12
BRANCH  11  18
ATOM     18  O   UNL     1       4.093   1.086  17.860  0.00  0.00    +0.000 OA
ATOM     19  H   UNL     1       4.254   1.078  16.897  0.00  0.00    +0.000 HD
ENDBRANCH  11  18
ENDBRANCH  10  11
ENDBRANCH   2  10
BRANCH   8  20
ATOM     20  O   UNL     1       7.173   8.095  17.337  0.00  0.00    +0.000 OA
BRANCH  20  21
ATOM     21  C   UNL     1       8.157   8.192  18.277  0.00  0.00    +0.000 C 
ATOM     22  O   UNL     1       8.614   7.250  18.916  0.00  0.00    +0.000 OA
BRANCH  21  23
ATOM     23  C   UNL     1       8.598   9.591  18.440  0.00  0.00    +0.000 A 
ATOM     24  C   UNL     1       8.073  10.556  17.570  0.00  0.00    +0.000 A 
ATOM     25  C   UNL     1       8.493  11.880  17.663  0.00  0.00    +0.000 A 
ATOM     26  C   UNL     1       9.432  12.247  18.626  0.00  0.00    +0.000 A 
ATOM     27  C   UNL     1       9.949  11.293  19.502  0.00  0.00    +0.000 A 
ATOM     28  C   UNL     1       9.533   9.965  19.414  0.00  0.00    +0.000 A 
ENDBRANCH  21  23
ENDBRANCH  20  21
ENDBRANCH   8  20
TORSDOF 7
ENDMDL
MODEL 6
REMARK VINA RESULT:      -7.3      0.680      1.236
REMARK  Name = 
REMARK  8 active torsions:
REMARK  status: ('A' for Active; 'I' for Inactive)
REMARK    1  A    between atoms: C_1  and  N_2
REMARK    2  A    between atoms: N_2  and  C_3
REMARK    3  A    between atoms: C_3  and  C_4
REMARK    4  A    between atoms: C_4  and  O_5
REMARK    5  A    between atoms: C_4  and  C_6
REMARK    6  A    between atoms: C_17  and  O_18
REMARK    7  A    between atoms: O_18  and  C_19
REMARK    8  A    between atoms: C_19  and  C_21
REMARK                            x       y       z     vdW  Elec       q    Type
REMARK                         _______ _______ _______ _____ _____    ______ ____
ROOT
ATOM      1  C   UNL     1       3.151   5.831  17.082  0.00  0.00    +0.000 C 
ATOM      2  N   UNL     1       4.399   5.719  17.978  0.00  0.00    +0.000 N 
ATOM      3  C   UNL     1       5.627   6.474  17.426  0.00  0.00    +0.000 C 
ATOM      4  C   UNL     1       6.798   5.941  18.260  0.00  0.00    +0.000 C 
ATOM      5  C   UNL     1       6.380   4.545  18.700  0.00  0.00    +0.000 C 
ATOM      6  C   UNL     1       4.998   4.312  18.077  0.00  0.00    +0.000 C 
ATOM      7  C   UNL     1       5.135   3.700  16.685  0.00  0.00    +0.000 C 
ATOM      8  C   UNL     1       5.606   4.657  15.576  0.00  0.00    +0.000 C 
ATOM      9  C   UNL     1       5.850   6.129  15.952  0.00  0.00    +0.000 C 
ENDROOT
BRANCH   2  10
ATOM     10  C   UNL     1       3.993   6.311  19.398  0.00  0.00    +0.000 C 
BRANCH  10  11
ATOM     11  C   UNL     1       2.466   6.274  19.709  0.00  0.00    +0.000 C 
BRANCH  11  12
ATOM     12  C   UNL     1       2.007   4.915  20.184  0.00  0.00    +0.000 A 
ATOM     13  C   UNL     1       2.463   4.400  21.406  0.00  0.00    +0.000 A 
ATOM     14  C   UNL     1       2.110   3.110  21.801  0.00  0.00    +0.000 A 
ATOM     15  C   UNL     1       1.302   2.323  20.982  0.00  0.00    +0.000 A 
ATOM     16  C   UNL     1       0.843   2.823  19.767  0.00  0.00    +0.000 A 
ATOM     17  C   UNL     1       1.190   4.113  19.369  0.00  0.00    +0.000 A 
ENDBRANCH  11  12
BRANCH  11  18
ATOM     18  O   UNL     1       2.133   7.225  20.724  0.00  0.00    +0.000 OA
ATOM     19  H   UNL     1       1.713   8.000  20.304  0.00  0.00    +0.000 HD
ENDBRANCH  11  18
ENDBRANCH  10  11
ENDBRANCH   2  10
BRANCH   8  20
ATOM     20  O   UNL     1       6.795   4.134  14.966  0.00  0.00    +0.000 OA
BRANCH  20  21
ATOM     21  C   UNL     1       7.004   4.567  13.689  0.00  0.00    +0.000 C 
ATOM     22  O   UNL     1       7.675   5.546  13.380  0.00  0.00    +0.000 OA
BRANCH  21  23
ATOM     23  C   UNL     1       6.301   3.707  12.717  0.00  0.00    +0.000 A 
ATOM     24  C   UNL     1       4.951   3.972  12.454  0.00  0.00    +0.000 A 
ATOM     25  C   UNL     1       4.240   3.160  11.574  0.00  0.00    +0.000 A 
ATOM     26  C   UNL     1       4.874   2.085  10.951  0.00  0.00    +0.000 A 
ATOM     27  C   UNL     1       6.221   1.824  11.201  0.00  0.00    +0.000 A 
ATOM     28  C   UNL     1       6.938   2.633  12.081  0.00  0.00    +0.000 A 
ENDBRANCH  21  23
ENDBRANCH  20  21
ENDBRANCH   8  20
TORSDOF 7
ENDMDL
MODEL 7
REMARK VINA RESULT:      -7.2      1.473      1.917
REMARK  Name = 
REMARK  8 active torsions:
REMARK  status: ('A' for Active; 'I' for Inactive)
REMARK    1  A    between atoms: C_1  and  N_2
REMARK    2  A    between atoms: N_2  and  C_3
REMARK    3  A    between atoms: C_3  and  C_4
REMARK    4  A    between atoms: C_4  and  O_5
REMARK    5  A    between atoms: C_4  and  C_6
REMARK    6  A    between atoms: C_17  and  O_18
REMARK    7  A    between atoms: O_18  and  C_19
REMARK    8  A    between atoms: C_19  and  C_21
REMARK                            x       y       z     vdW  Elec       q    Type
REMARK                         _______ _______ _______ _____ _____    ______ ____
ROOT
ATOM      1  C   UNL     1       4.235   4.101  16.620  0.00  0.00    +0.000 C 
ATOM      2  N   UNL     1       5.220   5.080  17.285  0.00  0.00    +0.000 N 
ATOM      3  C   UNL     1       5.446   6.375  16.476  0.00  0.00    +0.000 C 
ATOM      4  C   UNL     1       6.686   7.005  17.121  0.00  0.00    +0.000 C 
ATOM      5  C   UNL     1       7.468   5.844  17.718  0.00  0.00    +0.000 C 
ATOM      6  C   UNL     1       6.667   4.584  17.367  0.00  0.00    +0.000 C 
ATOM      7  C   UNL     1       7.110   4.028  16.016  0.00  0.00    +0.000 C 
ATOM      8  C   UNL     1       6.639   4.816  14.781  0.00  0.00    +0.000 C 
ATOM      9  C   UNL     1       5.744   6.046  15.011  0.00  0.00    +0.000 C 
ENDROOT
BRANCH   2  10
ATOM     10  C   UNL     1       4.613   5.433  18.713  0.00  0.00    +0.000 C 
BRANCH  10  11
ATOM     11  C   UNL     1       4.647   4.266  19.745  0.00  0.00    +0.000 C 
BRANCH  11  12
ATOM     12  C   UNL     1       3.264   3.842  20.181  0.00  0.00    +0.000 A 
ATOM     13  C   UNL     1       3.103   2.887  21.195  0.00  0.00    +0.000 A 
ATOM     14  C   UNL     1       1.828   2.431  21.536  0.00  0.00    +0.000 A 
ATOM     15  C   UNL     1       0.708   2.922  20.868  0.00  0.00    +0.000 A 
ATOM     16  C   UNL     1       0.855   3.871  19.861  0.00  0.00    +0.000 A 
ATOM     17  C   UNL     1       2.125   4.332  19.519  0.00  0.00    +0.000 A 
ENDBRANCH  11  12
BRANCH  11  18
ATOM     18  O   UNL     1       5.299   3.120  19.191  0.00  0.00    +0.000 OA
ATOM     19  H   UNL     1       6.070   3.416  18.671  0.00  0.00    +0.000 HD
ENDBRANCH  11  18
ENDBRANCH  10  11
ENDBRANCH   2  10
BRANCH   8  20
ATOM     20  O   UNL     1       7.778   5.214  14.004  0.00  0.00    +0.000 OA
BRANCH  20  21
ATOM     21  C   UNL     1       7.550   5.259  12.660  0.00  0.00    +0.000 C 
ATOM     22  O   UNL     1       7.828   6.205  11.931  0.00  0.00    +0.000 OA
BRANCH  21  23
ATOM     23  C   UNL     1       6.905   4.017  12.191  0.00  0.00    +0.000 A 
ATOM     24  C   UNL     1       7.724   2.981  11.726  0.00  0.00    +0.000 A 
ATOM     25  C   UNL     1       7.155   1.808  11.236  0.00  0.00    +0.000 A 
ATOM     26  C   UNL     1       5.768   1.664  11.214  0.00  0.00    +0.000 A 
ATOM     27  C   UNL     1       4.948   2.688  11.686  0.00  0.00    +0.000 A 
ATOM     28  C   UNL     1       5.512   3.865  12.177  0.00  0.00    +0.000 A 
ENDBRANCH  21  23
ENDBRANCH  20  21
ENDBRANCH   8  20
TORSDOF 7
ENDMDL
MODEL 8
REMARK VINA RESULT:      -7.2      1.495      2.286
REMARK  Name = 
REMARK  8 active torsions:
REMARK  status: ('A' for Active; 'I' for Inactive)
REMARK    1  A    between atoms: C_1  and  N_2
REMARK    2  A    between atoms: N_2  and  C_3
REMARK    3  A    between atoms: C_3  and  C_4
REMARK    4  A    between atoms: C_4  and  O_5
REMARK    5  A    between atoms: C_4  and  C_6
REMARK    6  A    between atoms: C_17  and  O_18
REMARK    7  A    between atoms: O_18  and  C_19
REMARK    8  A    between atoms: C_19  and  C_21
REMARK                            x       y       z     vdW  Elec       q    Type
REMARK                         _______ _______ _______ _____ _____    ______ ____
ROOT
ATOM      1  C   UNL     1       7.298   4.638  18.497  0.00  0.00    +0.000 C 
ATOM      2  N   UNL     1       5.843   5.069  18.236  0.00  0.00    +0.000 N 
ATOM      3  C   UNL     1       5.100   4.165  17.229  0.00  0.00    +0.000 C 
ATOM      4  C   UNL     1       3.845   4.966  16.866  0.00  0.00    +0.000 C 
ATOM      5  C   UNL     1       4.220   6.426  17.075  0.00  0.00    +0.000 C 
ATOM      6  C   UNL     1       5.687   6.415  17.521  0.00  0.00    +0.000 C 
ATOM      7  C   UNL     1       6.615   6.477  16.310  0.00  0.00    +0.000 C 
ATOM      8  C   UNL     1       6.730   5.181  15.487  0.00  0.00    +0.000 C 
ATOM      9  C   UNL     1       5.950   3.949  15.975  0.00  0.00    +0.000 C 
ENDROOT
BRANCH   2  10
ATOM     10  C   UNL     1       5.101   5.036  19.643  0.00  0.00    +0.000 C 
BRANCH  10  11
ATOM     11  C   UNL     1       4.696   3.613  20.135  0.00  0.00    +0.000 C 
BRANCH  11  12
ATOM     12  C   UNL     1       3.215   3.355  19.993  0.00  0.00    +0.000 A 
ATOM     13  C   UNL     1       2.754   2.284  19.213  0.00  0.00    +0.000 A 
ATOM     14  C   UNL     1       1.386   2.099  19.011  0.00  0.00    +0.000 A 
ATOM     15  C   UNL     1       0.468   2.979  19.581  0.00  0.00    +0.000 A 
ATOM     16  C   UNL     1       0.913   4.045  20.358  0.00  0.00    +0.000 A 
ATOM     17  C   UNL     1       2.278   4.232  20.567  0.00  0.00    +0.000 A 
ENDBRANCH  11  12
BRANCH  11  18
ATOM     18  O   UNL     1       5.387   2.605  19.393  0.00  0.00    +0.000 OA
ATOM     19  H   UNL     1       5.209   1.736  19.801  0.00  0.00    +0.000 HD
ENDBRANCH  11  18
ENDBRANCH  10  11
ENDBRANCH   2  10
BRANCH   8  20
ATOM     20  O   UNL     1       6.369   5.446  14.124  0.00  0.00    +0.000 OA
BRANCH  20  21
ATOM     21  C   UNL     1       7.271   4.990  13.209  0.00  0.00    +0.000 C 
ATOM     22  O   UNL     1       8.376   5.482  13.004  0.00  0.00    +0.000 OA
BRANCH  21  23
ATOM     23  C   UNL     1       6.739   3.823  12.477  0.00  0.00    +0.000 A 
ATOM     24  C   UNL     1       7.651   2.952  11.868  0.00  0.00    +0.000 A 
ATOM     25  C   UNL     1       7.190   1.863  11.133  0.00  0.00    +0.000 A 
ATOM     26  C   UNL     1       5.820   1.636  11.009  0.00  0.00    +0.000 A 
ATOM     27  C   UNL     1       4.908   2.493  11.623  0.00  0.00    +0.000 A 
ATOM     28  C   UNL     1       5.363   3.586  12.360  0.00  0.00    +0.000 A 
ENDBRANCH  21  23
ENDBRANCH  20  21
ENDBRANCH   8  20
TORSDOF 7
ENDMDL
MODEL 9
REMARK VINA RESULT:      -7.2      1.492      2.223
REMARK  Name = 
REMARK  8 active torsions:
REMARK  status: ('A' for Active; 'I' for Inactive)
REMARK    1  A    between atoms: C_1  and  N_2
REMARK    2  A    between atoms: N_2  and  C_3
REMARK    3  A    between atoms: C_3  and  C_4
REMARK    4  A    between atoms: C_4  and  O_5
REMARK    5  A    between atoms: C_4  and  C_6
REMARK    6  A    between atoms: C_17  and  O_18
REMARK    7  A    between atoms: O_18  and  C_19
REMARK    8  A    between atoms: C_19  and  C_21
REMARK                            x       y       z     vdW  Elec       q    Type
REMARK                         _______ _______ _______ _____ _____    ______ ____
ROOT
ATOM      1  C   UNL     1       4.200   4.338  16.638  0.00  0.00    +0.000 C 
ATOM      2  N   UNL     1       5.292   5.186  17.315  0.00  0.00    +0.000 N 
ATOM      3  C   UNL     1       5.638   6.479  16.545  0.00  0.00    +0.000 C 
ATOM      4  C   UNL     1       6.946   6.956  17.187  0.00  0.00    +0.000 C 
ATOM      5  C   UNL     1       7.614   5.700  17.729  0.00  0.00    +0.000 C 
ATOM      6  C   UNL     1       6.681   4.542  17.352  0.00  0.00    +0.000 C 
ATOM      7  C   UNL     1       7.042   3.992  15.973  0.00  0.00    +0.000 C 
ATOM      8  C   UNL     1       6.635   4.868  14.775  0.00  0.00    +0.000 C 
ATOM      9  C   UNL     1       5.876   6.174  15.064  0.00  0.00    +0.000 C 
ENDROOT
BRANCH   2  10
ATOM     10  C   UNL     1       4.749   5.550  18.766  0.00  0.00    +0.000 C 
BRANCH  10  11
ATOM     11  C   UNL     1       4.648   4.343  19.747  0.00  0.00    +0.000 C 
BRANCH  11  12
ATOM     12  C   UNL     1       3.237   3.817  19.871  0.00  0.00    +0.000 A 
ATOM     13  C   UNL     1       2.886   2.586  19.300  0.00  0.00    +0.000 A 
ATOM     14  C   UNL     1       1.564   2.144  19.338  0.00  0.00    +0.000 A 
ATOM     15  C   UNL     1       0.581   2.925  19.943  0.00  0.00    +0.000 A 
ATOM     16  C   UNL     1       0.917   4.149  20.514  0.00  0.00    +0.000 A 
ATOM     17  C   UNL     1       2.237   4.594  20.482  0.00  0.00    +0.000 A 
ENDBRANCH  11  12
BRANCH  11  18
ATOM     18  O   UNL     1       5.477   3.263  19.309  0.00  0.00    +0.000 OA
ATOM     19  H   UNL     1       5.785   2.765  20.090  0.00  0.00    +0.000 HD
ENDBRANCH  11  18
ENDBRANCH  10  11
ENDBRANCH   2  10
BRANCH   8  20
ATOM     20  O   UNL     1       7.796   5.174  13.990  0.00  0.00    +0.000 OA
BRANCH  20  21
ATOM     21  C   UNL     1       7.556   5.262  12.650  0.00  0.00    +0.000 C 
ATOM     22  O   UNL     1       7.795   6.245  11.956  0.00  0.00    +0.000 OA
BRANCH  21  23
ATOM     23  C   UNL     1       6.953   4.016  12.137  0.00  0.00    +0.000 A 
ATOM     24  C   UNL     1       5.557   3.905  12.146  0.00  0.00    +0.000 A 
ATOM     25  C   UNL     1       4.948   2.730  11.709  0.00  0.00    +0.000 A 
ATOM     26  C   UNL     1       5.730   1.667  11.259  0.00  0.00    +0.000 A 
ATOM     27  C   UNL     1       7.120   1.777  11.237  0.00  0.00    +0.000 A 
ATOM     28  C   UNL     1       7.735   2.950  11.674  0.00  0.00    +0.000 A 
ENDBRANCH  21  23
ENDBRANCH  20  21
ENDBRANCH   8  20
TORSDOF 7
ENDMDL
