MODEL 1
REMARK VINA RESULT:      -7.9      0.000      0.000
REMARK  Name = 
REMARK  6 active torsions:
REMARK  status: ('A' for Active; 'I' for Inactive)
REMARK    1  A    between atoms: C_1  and  C_2
REMARK    2  A    between atoms: C_6  and  O_7
REMARK    3  A    between atoms: O_7  and  C_8
REMARK    4  A    between atoms: C_8  and  C_9
REMARK    5  A    between atoms: C_11  and  C_12
REMARK    6  A    between atoms: C_15  and  N_16
REMARK                            x       y       z     vdW  Elec       q    Type
REMARK                         _______ _______ _______ _____ _____    ______ ____
ROOT
ATOM      1  C   UNL     1       4.585   6.278  17.016  0.00  0.00    +0.000 A 
ATOM      2  N   UNL     1       4.024   7.374  17.474  0.00  0.00    +0.000 NA
ATOM      3  C   UNL     1       3.053   6.879  18.313  0.00  0.00    +0.000 A 
ATOM      4  N   UNL     1       3.007   5.538  18.371  0.00  0.00    +0.000 NA
ATOM      5  O   UNL     1       4.016   5.137  17.499  0.00  0.00    +0.000 OA
ENDROOT
BRANCH   3   6
ATOM      6  C   UNL     1       2.180   7.755  19.080  0.00  0.00    +0.000 A 
ATOM      7  C   UNL     1       1.786   7.396  20.373  0.00  0.00    +0.000 A 
ATOM      8  C   UNL     1       0.969   8.244  21.133  0.00  0.00    +0.000 A 
ATOM      9  C   UNL     1       0.517   9.459  20.599  0.00  0.00    +0.000 A 
ATOM     10  C   UNL     1       0.887   9.801  19.290  0.00  0.00    +0.000 A 
ATOM     11  C   UNL     1       1.718   8.960  18.543  0.00  0.00    +0.000 A 
BRANCH   9  12
ATOM     12  N   UNL     1      -0.294  10.341  21.379  0.00  0.00    +0.000 N 
ATOM     13  C   UNL     1      -0.995  11.445  20.923  0.00  0.00    +0.000 A 
ATOM     14  C   UNL     1      -1.678  12.021  21.970  0.00  0.00    +0.000 A 
ATOM     15  C   UNL     1      -1.390  11.265  23.119  0.00  0.00    +0.000 A 
ATOM     16  C   UNL     1      -0.545  10.245  22.737  0.00  0.00    +0.000 A 
ENDBRANCH   9  12
ENDBRANCH   3   6
BRANCH   1  17
ATOM     17  C   UNL     1       5.797   6.113  16.182  0.00  0.00    +0.000 C 
BRANCH  17  18
ATOM     18  O   UNL     1       5.913   4.734  15.828  0.00  0.00    +0.000 OA
BRANCH  18  24
ATOM     19  C   UNL     1       5.276   2.456  11.455  0.00  0.00    +0.000 C 
ATOM     20  C   UNL     1       6.008   3.416  12.344  0.00  0.00    +0.000 A 
ATOM     21  C   UNL     1       7.114   4.135  11.881  0.00  0.00    +0.000 A 
ATOM     22  C   UNL     1       7.782   5.019  12.727  0.00  0.00    +0.000 A 
ATOM     23  C   UNL     1       7.348   5.190  14.043  0.00  0.00    +0.000 A 
ATOM     24  C   UNL     1       6.245   4.481  14.522  0.00  0.00    +0.000 A 
ATOM     25  C   UNL     1       5.580   3.595  13.668  0.00  0.00    +0.000 A 
ENDBRANCH  18  24
ENDBRANCH  17  18
ENDBRANCH   1  17
TORSDOF 5
ENDMDL
MODEL 2
REMARK VINA RESULT:      -7.9      6.092      8.143
REMARK  Name = 
REMARK  6 active torsions:
REMARK  status: ('A' for Active; 'I' for Inactive)
REMARK    1  A    between atoms: C_1  and  C_2
REMARK    2  A    between atoms: C_6  and  O_7
REMARK    3  A    between atoms: O_7  and  C_8
REMARK    4  A    between atoms: C_8  and  C_9
REMARK    5  A    between atoms: C_11  and  C_12
REMARK    6  A    between atoms: C_15  and  N_16
REMARK                            x       y       z     vdW  Elec       q    Type
REMARK                         _______ _______ _______ _____ _____    ______ ____
ROOT
ATOM      1  C   UNL     1       7.589   6.462  17.880  0.00  0.00    +0.000 A 
ATOM      2  N   UNL     1       8.334   7.326  18.531  0.00  0.00    +0.000 NA
ATOM      3  C   UNL     1       7.998   8.517  17.931  0.00  0.00    +0.000 A 
ATOM      4  N   UNL     1       7.090   8.400  16.947  0.00  0.00    +0.000 NA
ATOM      5  O   UNL     1       6.827   7.033  16.905  0.00  0.00    +0.000 OA
ENDROOT
BRANCH   3   6
ATOM      6  C   UNL     1       8.572   9.783  18.359  0.00  0.00    +0.000 A 
ATOM      7  C   UNL     1       9.307   9.854  19.547  0.00  0.00    +0.000 A 
ATOM      8  C   UNL     1       9.889  11.062  19.955  0.00  0.00    +0.000 A 
ATOM      9  C   UNL     1       9.726  12.224  19.187  0.00  0.00    +0.000 A 
ATOM     10  C   UNL     1       8.961  12.157  18.015  0.00  0.00    +0.000 A 
ATOM     11  C   UNL     1       8.397  10.945  17.601  0.00  0.00    +0.000 A 
BRANCH   9  12
ATOM     12  N   UNL     1      10.340  13.452  19.586  0.00  0.00    +0.000 N 
ATOM     13  C   UNL     1      10.128  14.141  20.768  0.00  0.00    +0.000 A 
ATOM     14  C   UNL     1      10.921  15.265  20.795  0.00  0.00    +0.000 A 
ATOM     15  C   UNL     1      11.646  15.290  19.590  0.00  0.00    +0.000 A 
ATOM     16  C   UNL     1      11.276  14.176  18.868  0.00  0.00    +0.000 A 
ENDBRANCH   9  12
ENDBRANCH   3   6
BRANCH   1  17
ATOM     17  C   UNL     1       7.363   5.021  18.139  0.00  0.00    +0.000 C 
BRANCH  17  18
ATOM     18  O   UNL     1       6.455   4.900  19.233  0.00  0.00    +0.000 OA
BRANCH  18  24
ATOM     19  C   UNL     1       1.561   5.031  20.106  0.00  0.00    +0.000 C 
ATOM     20  C   UNL     1       2.734   4.690  19.235  0.00  0.00    +0.000 A 
ATOM     21  C   UNL     1       2.560   4.089  17.986  0.00  0.00    +0.000 A 
ATOM     22  C   UNL     1       3.666   3.777  17.196  0.00  0.00    +0.000 A 
ATOM     23  C   UNL     1       4.954   4.064  17.651  0.00  0.00    +0.000 A 
ATOM     24  C   UNL     1       5.146   4.665  18.896  0.00  0.00    +0.000 A 
ATOM     25  C   UNL     1       4.033   4.975  19.684  0.00  0.00    +0.000 A 
ENDBRANCH  18  24
ENDBRANCH  17  18
ENDBRANCH   1  17
TORSDOF 5
ENDMDL
MODEL 3
REMARK VINA RESULT:      -7.9      6.187      8.040
REMARK  Name = 
REMARK  6 active torsions:
REMARK  status: ('A' for Active; 'I' for Inactive)
REMARK    1  A    between atoms: C_1  and  C_2
REMARK    2  A    between atoms: C_6  and  O_7
REMARK    3  A    between atoms: O_7  and  C_8
REMARK    4  A    between atoms: C_8  and  C_9
REMARK    5  A    between atoms: C_11  and  C_12
REMARK    6  A    between atoms: C_15  and  N_16
REMARK                            x       y       z     vdW  Elec       q    Type
REMARK                         _______ _______ _______ _____ _____    ______ ____
ROOT
ATOM      1  C   UNL     1       7.681   6.508  18.213  0.00  0.00    +0.000 A 
ATOM      2  N   UNL     1       8.333   7.458  18.846  0.00  0.00    +0.000 NA
ATOM      3  C   UNL     1       8.128   8.548  18.033  0.00  0.00    +0.000 A 
ATOM      4  N   UNL     1       7.388   8.290  16.942  0.00  0.00    +0.000 NA
ATOM      5  O   UNL     1       7.101   6.931  17.054  0.00  0.00    +0.000 OA
ENDROOT
BRANCH   3   6
ATOM      6  C   UNL     1       8.657   9.862  18.362  0.00  0.00    +0.000 A 
ATOM      7  C   UNL     1       8.339  10.967  17.565  0.00  0.00    +0.000 A 
ATOM      8  C   UNL     1       8.818  12.243  17.888  0.00  0.00    +0.000 A 
ATOM      9  C   UNL     1       9.643  12.430  19.007  0.00  0.00    +0.000 A 
ATOM     10  C   UNL     1       9.988  11.315  19.785  0.00  0.00    +0.000 A 
ATOM     11  C   UNL     1       9.491  10.045  19.470  0.00  0.00    +0.000 A 
BRANCH   9  12
ATOM     12  N   UNL     1      10.114  13.733  19.357  0.00  0.00    +0.000 N 
ATOM     13  C   UNL     1       9.645  14.943  18.872  0.00  0.00    +0.000 A 
ATOM     14  C   UNL     1      10.333  15.975  19.466  0.00  0.00    +0.000 A 
ATOM     15  C   UNL     1      11.268  15.399  20.344  0.00  0.00    +0.000 A 
ATOM     16  C   UNL     1      11.118  14.032  20.261  0.00  0.00    +0.000 A 
ENDBRANCH   9  12
ENDBRANCH   3   6
BRANCH   1  17
ATOM     17  C   UNL     1       7.382   5.121  18.637  0.00  0.00    +0.000 C 
BRANCH  17  18
ATOM     18  O   UNL     1       6.307   5.162  19.576  0.00  0.00    +0.000 OA
BRANCH  18  24
ATOM     19  C   UNL     1       2.889   1.980  17.868  0.00  0.00    +0.000 C 
ATOM     20  C   UNL     1       3.332   3.367  18.230  0.00  0.00    +0.000 A 
ATOM     21  C   UNL     1       2.482   4.464  18.070  0.00  0.00    +0.000 A 
ATOM     22  C   UNL     1       2.918   5.745  18.408  0.00  0.00    +0.000 A 
ATOM     23  C   UNL     1       4.207   5.936  18.908  0.00  0.00    +0.000 A 
ATOM     24  C   UNL     1       5.068   4.851  19.075  0.00  0.00    +0.000 A 
ATOM     25  C   UNL     1       4.626   3.569  18.733  0.00  0.00    +0.000 A 
ENDBRANCH  18  24
ENDBRANCH  17  18
ENDBRANCH   1  17
TORSDOF 5
ENDMDL
MODEL 4
REMARK VINA RESULT:      -7.8      1.225      1.762
REMARK  Name = 
REMARK  6 active torsions:
REMARK  status: ('A' for Active; 'I' for Inactive)
REMARK    1  A    between atoms: C_1  and  C_2
REMARK    2  A    between atoms: C_6  and  O_7
REMARK    3  A    between atoms: O_7  and  C_8
REMARK    4  A    between atoms: C_8  and  C_9
REMARK    5  A    between atoms: C_11  and  C_12
REMARK    6  A    between atoms: C_15  and  N_16
REMARK                            x       y       z     vdW  Elec       q    Type
REMARK                         _______ _______ _______ _____ _____    ______ ____
ROOT
ATOM      1  C   UNL     1       5.261   4.895  17.159  0.00  0.00    +0.000 A 
ATOM      2  N   UNL     1       4.866   6.123  17.407  0.00  0.00    +0.000 NA
ATOM      3  C   UNL     1       3.661   5.923  18.040  0.00  0.00    +0.000 A 
ATOM      4  N   UNL     1       3.319   4.631  18.176  0.00  0.00    +0.000 NA
ATOM      5  O   UNL     1       4.376   3.947  17.579  0.00  0.00    +0.000 OA
ENDROOT
BRANCH   3   6
ATOM      6  C   UNL     1       2.858   7.031  18.534  0.00  0.00    +0.000 A 
ATOM      7  C   UNL     1       2.604   8.134  17.713  0.00  0.00    +0.000 A 
ATOM      8  C   UNL     1       1.809   9.195  18.167  0.00  0.00    +0.000 A 
ATOM      9  C   UNL     1       1.271   9.175  19.461  0.00  0.00    +0.000 A 
ATOM     10  C   UNL     1       1.555   8.083  20.294  0.00  0.00    +0.000 A 
ATOM     11  C   UNL     1       2.334   7.018  19.830  0.00  0.00    +0.000 A 
BRANCH   9  12
ATOM     12  N   UNL     1       0.437  10.242  19.920  0.00  0.00    +0.000 N 
ATOM     13  C   UNL     1       0.747  11.179  20.891  0.00  0.00    +0.000 A 
ATOM     14  C   UNL     1      -0.302  12.058  21.035  0.00  0.00    +0.000 A 
ATOM     15  C   UNL     1      -1.305  11.657  20.135  0.00  0.00    +0.000 A 
ATOM     16  C   UNL     1      -0.834  10.547  19.466  0.00  0.00    +0.000 A 
ENDBRANCH   9  12
ENDBRANCH   3   6
BRANCH   1  17
ATOM     17  C   UNL     1       6.554   4.406  16.629  0.00  0.00    +0.000 C 
BRANCH  17  18
ATOM     18  O   UNL     1       7.040   5.359  15.683  0.00  0.00    +0.000 OA
BRANCH  18  24
ATOM     19  C   UNL     1       5.368   2.557  11.931  0.00  0.00    +0.000 C 
ATOM     20  C   UNL     1       6.261   3.633  12.474  0.00  0.00    +0.000 A 
ATOM     21  C   UNL     1       7.160   4.314  11.648  0.00  0.00    +0.000 A 
ATOM     22  C   UNL     1       7.984   5.307  12.176  0.00  0.00    +0.000 A 
ATOM     23  C   UNL     1       7.913   5.626  13.534  0.00  0.00    +0.000 A 
ATOM     24  C   UNL     1       7.020   4.958  14.371  0.00  0.00    +0.000 A 
ATOM     25  C   UNL     1       6.197   3.961  13.836  0.00  0.00    +0.000 A 
ENDBRANCH  18  24
ENDBRANCH  17  18
ENDBRANCH   1  17
TORSDOF 5
ENDMDL
MODEL 5
REMARK VINA RESULT:      -7.8      1.519      1.915
REMARK  Name = 
REMARK  6 active torsions:
REMARK  status: ('A' for Active; 'I' for Inactive)
REMARK    1  A    between atoms: C_1  and  C_2
REMARK    2  A    between atoms: C_6  and  O_7
REMARK    3  A    between atoms: O_7  and  C_8
REMARK    4  A    between atoms: C_8  and  C_9
REMARK    5  A    between atoms: C_11  and  C_12
REMARK    6  A    between atoms: C_15  and  N_16
REMARK                            x       y       z     vdW  Elec       q    Type
REMARK                         _______ _______ _______ _____ _____    ______ ____
ROOT
ATOM      1  C   UNL     1       4.353   4.667  17.583  0.00  0.00    +0.000 A 
ATOM      2  N   UNL     1       3.584   5.702  17.329  0.00  0.00    +0.000 NA
ATOM      3  C   UNL     1       3.357   6.216  18.584  0.00  0.00    +0.000 A 
ATOM      4  N   UNL     1       3.951   5.531  19.575  0.00  0.00    +0.000 NA
ATOM      5  O   UNL     1       4.603   4.494  18.912  0.00  0.00    +0.000 OA
ENDROOT
BRANCH   3   6
ATOM      6  C   UNL     1       2.558   7.414  18.791  0.00  0.00    +0.000 A 
ATOM      7  C   UNL     1       2.370   8.322  17.744  0.00  0.00    +0.000 A 
ATOM      8  C   UNL     1       1.580   9.465  17.923  0.00  0.00    +0.000 A 
ATOM      9  C   UNL     1       0.980   9.727  19.163  0.00  0.00    +0.000 A 
ATOM     10  C   UNL     1       1.198   8.832  20.221  0.00  0.00    +0.000 A 
ATOM     11  C   UNL     1       1.972   7.682  20.032  0.00  0.00    +0.000 A 
BRANCH   9  12
ATOM     12  N   UNL     1       0.151  10.878  19.343  0.00  0.00    +0.000 N 
ATOM     13  C   UNL     1      -1.230  10.899  19.435  0.00  0.00    +0.000 A 
ATOM     14  C   UNL     1      -1.659  12.192  19.632  0.00  0.00    +0.000 A 
ATOM     15  C   UNL     1      -0.515  13.009  19.655  0.00  0.00    +0.000 A 
ATOM     16  C   UNL     1       0.577  12.187  19.477  0.00  0.00    +0.000 A 
ENDBRANCH   9  12
ENDBRANCH   3   6
BRANCH   1  17
ATOM     17  C   UNL     1       5.076   3.773  16.651  0.00  0.00    +0.000 C 
BRANCH  17  18
ATOM     18  O   UNL     1       6.220   4.470  16.157  0.00  0.00    +0.000 OA
BRANCH  18  24
ATOM     19  C   UNL     1       5.238   2.663  11.630  0.00  0.00    +0.000 C 
ATOM     20  C   UNL     1       6.032   3.538  12.554  0.00  0.00    +0.000 A 
ATOM     21  C   UNL     1       7.084   4.326  12.081  0.00  0.00    +0.000 A 
ATOM     22  C   UNL     1       7.812   5.127  12.959  0.00  0.00    +0.000 A 
ATOM     23  C   UNL     1       7.491   5.146  14.318  0.00  0.00    +0.000 A 
ATOM     24  C   UNL     1       6.442   4.367  14.807  0.00  0.00    +0.000 A 
ATOM     25  C   UNL     1       5.717   3.564  13.921  0.00  0.00    +0.000 A 
ENDBRANCH  18  24
ENDBRANCH  17  18
ENDBRANCH   1  17
TORSDOF 5
ENDMDL
MODEL 6
REMARK VINA RESULT:      -7.8      5.958      7.867
REMARK  Name = 
REMARK  6 active torsions:
REMARK  status: ('A' for Active; 'I' for Inactive)
REMARK    1  A    between atoms: C_1  and  C_2
REMARK    2  A    between atoms: C_6  and  O_7
REMARK    3  A    between atoms: O_7  and  C_8
REMARK    4  A    between atoms: C_8  and  C_9
REMARK    5  A    between atoms: C_11  and  C_12
REMARK    6  A    between atoms: C_15  and  N_16
REMARK                            x       y       z     vdW  Elec       q    Type
REMARK                         _______ _______ _______ _____ _____    ______ ____
ROOT
ATOM      1  C   UNL     1       7.320   6.647  17.285  0.00  0.00    +0.000 A 
ATOM      2  N   UNL     1       7.490   7.937  17.102  0.00  0.00    +0.000 NA
ATOM      3  C   UNL     1       8.218   8.299  18.211  0.00  0.00    +0.000 A 
ATOM      4  N   UNL     1       8.485   7.284  19.050  0.00  0.00    +0.000 NA
ATOM      5  O   UNL     1       7.877   6.188  18.442  0.00  0.00    +0.000 OA
ENDROOT
BRANCH   3   6
ATOM      6  C   UNL     1       8.670   9.665  18.421  0.00  0.00    +0.000 A 
ATOM      7  C   UNL     1       8.261  10.682  17.552  0.00  0.00    +0.000 A 
ATOM      8  C   UNL     1       8.666  12.007  17.761  0.00  0.00    +0.000 A 
ATOM      9  C   UNL     1       9.507  12.331  18.835  0.00  0.00    +0.000 A 
ATOM     10  C   UNL     1       9.943  11.305  19.685  0.00  0.00    +0.000 A 
ATOM     11  C   UNL     1       9.520   9.986  19.484  0.00  0.00    +0.000 A 
BRANCH   9  12
ATOM     12  N   UNL     1       9.902  13.685  19.069  0.00  0.00    +0.000 N 
ATOM     13  C   UNL     1      10.930  14.120  19.888  0.00  0.00    +0.000 A 
ATOM     14  C   UNL     1      11.016  15.492  19.830  0.00  0.00    +0.000 A 
ATOM     15  C   UNL     1      10.007  15.935  18.956  0.00  0.00    +0.000 A 
ATOM     16  C   UNL     1       9.339  14.817  18.504  0.00  0.00    +0.000 A 
ENDBRANCH   9  12
ENDBRANCH   3   6
BRANCH   1  17
ATOM     17  C   UNL     1       6.747   5.628  16.376  0.00  0.00    +0.000 C 
BRANCH  17  18
ATOM     18  O   UNL     1       5.423   6.035  16.027  0.00  0.00    +0.000 OA
BRANCH  18  24
ATOM     19  C   UNL     1       2.687   2.268  17.773  0.00  0.00    +0.000 C 
ATOM     20  C   UNL     1       3.028   3.728  17.707  0.00  0.00    +0.000 A 
ATOM     21  C   UNL     1       2.314   4.673  18.448  0.00  0.00    +0.000 A 
ATOM     22  C   UNL     1       2.646   6.025  18.367  0.00  0.00    +0.000 A 
ATOM     23  C   UNL     1       3.694   6.440  17.543  0.00  0.00    +0.000 A 
ATOM     24  C   UNL     1       4.417   5.509  16.797  0.00  0.00    +0.000 A 
ATOM     25  C   UNL     1       4.079   4.154  16.881  0.00  0.00    +0.000 A 
ENDBRANCH  18  24
ENDBRANCH  17  18
ENDBRANCH   1  17
TORSDOF 5
ENDMDL
MODEL 7
REMARK VINA RESULT:      -7.7      0.980      1.305
REMARK  Name = 
REMARK  6 active torsions:
REMARK  status: ('A' for Active; 'I' for Inactive)
REMARK    1  A    between atoms: C_1  and  C_2
REMARK    2  A    between atoms: C_6  and  O_7
REMARK    3  A    between atoms: O_7  and  C_8
REMARK    4  A    between atoms: C_8  and  C_9
REMARK    5  A    between atoms: C_11  and  C_12
REMARK    6  A    between atoms: C_15  and  N_16
REMARK                            x       y       z     vdW  Elec       q    Type
REMARK                         _______ _______ _______ _____ _____    ______ ____
ROOT
ATOM      1  C   UNL     1       4.234   4.630  17.588  0.00  0.00    +0.000 A 
ATOM      2  N   UNL     1       3.310   5.563  17.570  0.00  0.00    +0.000 NA
ATOM      3  C   UNL     1       3.335   6.030  18.863  0.00  0.00    +0.000 A 
ATOM      4  N   UNL     1       4.229   5.412  19.653  0.00  0.00    +0.000 NA
ATOM      5  O   UNL     1       4.818   4.473  18.810  0.00  0.00    +0.000 OA
ENDROOT
BRANCH   3   6
ATOM      6  C   UNL     1       2.474   7.115  19.306  0.00  0.00    +0.000 A 
ATOM      7  C   UNL     1       1.936   7.103  20.597  0.00  0.00    +0.000 A 
ATOM      8  C   UNL     1       1.129   8.158  21.044  0.00  0.00    +0.000 A 
ATOM      9  C   UNL     1       0.832   9.234  20.196  0.00  0.00    +0.000 A 
ATOM     10  C   UNL     1       1.344   9.227  18.891  0.00  0.00    +0.000 A 
ATOM     11  C   UNL     1       2.166   8.181  18.455  0.00  0.00    +0.000 A 
BRANCH   9  12
ATOM     12  N   UNL     1       0.031  10.325  20.656  0.00  0.00    +0.000 N 
ATOM     13  C   UNL     1      -0.167  10.713  21.971  0.00  0.00    +0.000 A 
ATOM     14  C   UNL     1      -0.980  11.822  22.006  0.00  0.00    +0.000 A 
ATOM     15  C   UNL     1      -1.312  12.136  20.677  0.00  0.00    +0.000 A 
ATOM     16  C   UNL     1      -0.685  11.211  19.870  0.00  0.00    +0.000 A 
ENDBRANCH   9  12
ENDBRANCH   3   6
BRANCH   1  17
ATOM     17  C   UNL     1       4.810   3.844  16.473  0.00  0.00    +0.000 C 
BRANCH  17  18
ATOM     18  O   UNL     1       6.008   4.490  16.042  0.00  0.00    +0.000 OA
BRANCH  18  24
ATOM     19  C   UNL     1       5.353   2.510  11.528  0.00  0.00    +0.000 C 
ATOM     20  C   UNL     1       6.058   3.446  12.465  0.00  0.00    +0.000 A 
ATOM     21  C   UNL     1       7.100   4.265  12.024  0.00  0.00    +0.000 A 
ATOM     22  C   UNL     1       7.743   5.124  12.915  0.00  0.00    +0.000 A 
ATOM     23  C   UNL     1       7.348   5.168  14.253  0.00  0.00    +0.000 A 
ATOM     24  C   UNL     1       6.308   4.358  14.709  0.00  0.00    +0.000 A 
ATOM     25  C   UNL     1       5.667   3.497  13.812  0.00  0.00    +0.000 A 
ENDBRANCH  18  24
ENDBRANCH  17  18
ENDBRANCH   1  17
TORSDOF 5
ENDMDL
MODEL 8
REMARK VINA RESULT:      -7.7      2.266      3.344
REMARK  Name = 
REMARK  6 active torsions:
REMARK  status: ('A' for Active; 'I' for Inactive)
REMARK    1  A    between atoms: C_1  and  C_2
REMARK    2  A    between atoms: C_6  and  O_7
REMARK    3  A    between atoms: O_7  and  C_8
REMARK    4  A    between atoms: C_8  and  C_9
REMARK    5  A    between atoms: C_11  and  C_12
REMARK    6  A    between atoms: C_15  and  N_16
REMARK                            x       y       z     vdW  Elec       q    Type
REMARK                         _______ _______ _______ _____ _____    ______ ____
ROOT
ATOM      1  C   UNL     1       3.372   4.472  19.612  0.00  0.00    +0.000 A 
ATOM      2  N   UNL     1       3.259   5.647  19.034  0.00  0.00    +0.000 NA
ATOM      3  C   UNL     1       2.337   6.282  19.834  0.00  0.00    +0.000 A 
ATOM      4  N   UNL     1       1.892   5.536  20.859  0.00  0.00    +0.000 NA
ATOM      5  O   UNL     1       2.570   4.328  20.704  0.00  0.00    +0.000 OA
ENDROOT
BRANCH   3   6
ATOM      6  C   UNL     1       1.917   7.652  19.584  0.00  0.00    +0.000 A 
ATOM      7  C   UNL     1       1.297   8.391  20.597  0.00  0.00    +0.000 A 
ATOM      8  C   UNL     1       0.913   9.720  20.378  0.00  0.00    +0.000 A 
ATOM      9  C   UNL     1       1.127  10.325  19.131  0.00  0.00    +0.000 A 
ATOM     10  C   UNL     1       1.718   9.571  18.107  0.00  0.00    +0.000 A 
ATOM     11  C   UNL     1       2.117   8.249  18.336  0.00  0.00    +0.000 A 
BRANCH   9  12
ATOM     12  N   UNL     1       0.762  11.690  18.910  0.00  0.00    +0.000 N 
ATOM     13  C   UNL     1      -0.494  12.169  18.577  0.00  0.00    +0.000 A 
ATOM     14  C   UNL     1      -0.451  13.541  18.476  0.00  0.00    +0.000 A 
ATOM     15  C   UNL     1       0.872  13.935  18.742  0.00  0.00    +0.000 A 
ATOM     16  C   UNL     1       1.594  12.791  19.004  0.00  0.00    +0.000 A 
ENDBRANCH   9  12
ENDBRANCH   3   6
BRANCH   1  17
ATOM     17  C   UNL     1       4.318   3.367  19.334  0.00  0.00    +0.000 C 
BRANCH  17  18
ATOM     18  O   UNL     1       5.642   3.902  19.331  0.00  0.00    +0.000 OA
BRANCH  18  24
ATOM     19  C   UNL     1       5.904   4.127  14.371  0.00  0.00    +0.000 C 
ATOM     20  C   UNL     1       6.228   4.668  15.732  0.00  0.00    +0.000 A 
ATOM     21  C   UNL     1       6.994   5.826  15.888  0.00  0.00    +0.000 A 
ATOM     22  C   UNL     1       7.287   6.307  17.164  0.00  0.00    +0.000 A 
ATOM     23  C   UNL     1       6.816   5.632  18.292  0.00  0.00    +0.000 A 
ATOM     24  C   UNL     1       6.049   4.475  18.153  0.00  0.00    +0.000 A 
ATOM     25  C   UNL     1       5.759   3.996  16.871  0.00  0.00    +0.000 A 
ENDBRANCH  18  24
ENDBRANCH  17  18
ENDBRANCH   1  17
TORSDOF 5
ENDMDL
MODEL 9
REMARK VINA RESULT:      -7.7      3.524      9.373
REMARK  Name = 
REMARK  6 active torsions:
REMARK  status: ('A' for Active; 'I' for Inactive)
REMARK    1  A    between atoms: C_1  and  C_2
REMARK    2  A    between atoms: C_6  and  O_7
REMARK    3  A    between atoms: O_7  and  C_8
REMARK    4  A    between atoms: C_8  and  C_9
REMARK    5  A    between atoms: C_11  and  C_12
REMARK    6  A    between atoms: C_15  and  N_16
REMARK                            x       y       z     vdW  Elec       q    Type
REMARK                         _______ _______ _______ _____ _____    ______ ____
ROOT
ATOM      1  C   UNL     1      -0.133  10.113  20.376  0.00  0.00    +0.000 A 
ATOM      2  N   UNL     1       0.700   9.705  19.445  0.00  0.00    +0.000 NA
ATOM      3  C   UNL     1       1.214   8.553  19.994  0.00  0.00    +0.000 A 
ATOM      4  N   UNL     1       0.729   8.260  21.212  0.00  0.00    +0.000 NA
ATOM      5  O   UNL     1      -0.156   9.304  21.472  0.00  0.00    +0.000 OA
ENDROOT
BRANCH   3   6
ATOM      6  C   UNL     1       2.179   7.728  19.285  0.00  0.00    +0.000 A 
ATOM      7  C   UNL     1       2.698   8.153  18.058  0.00  0.00    +0.000 A 
ATOM      8  C   UNL     1       3.650   7.380  17.379  0.00  0.00    +0.000 A 
ATOM      9  C   UNL     1       4.083   6.157  17.911  0.00  0.00    +0.000 A 
ATOM     10  C   UNL     1       3.535   5.718  19.125  0.00  0.00    +0.000 A 
ATOM     11  C   UNL     1       2.599   6.502  19.809  0.00  0.00    +0.000 A 
BRANCH   9  12
ATOM     12  N   UNL     1       5.073   5.378  17.236  0.00  0.00    +0.000 N 
ATOM     13  C   UNL     1       4.850   4.393  16.289  0.00  0.00    +0.000 A 
ATOM     14  C   UNL     1       6.055   3.891  15.854  0.00  0.00    +0.000 A 
ATOM     15  C   UNL     1       7.066   4.572  16.555  0.00  0.00    +0.000 A 
ATOM     16  C   UNL     1       6.445   5.474  17.393  0.00  0.00    +0.000 A 
ENDBRANCH   9  12
ENDBRANCH   3   6
BRANCH   1  17
ATOM     17  C   UNL     1      -1.119  11.218  20.346  0.00  0.00    +0.000 C 
BRANCH  17  18
ATOM     18  O   UNL     1      -1.067  11.829  19.057  0.00  0.00    +0.000 OA
BRANCH  18  24
ATOM     19  C   UNL     1      -3.021  10.135  14.810  0.00  0.00    +0.000 C 
ATOM     20  C   UNL     1      -3.164  10.735  16.178  0.00  0.00    +0.000 A 
ATOM     21  C   UNL     1      -4.419  11.055  16.701  0.00  0.00    +0.000 A 
ATOM     22  C   UNL     1      -4.527  11.616  17.973  0.00  0.00    +0.000 A 
ATOM     23  C   UNL     1      -3.379  11.860  18.729  0.00  0.00    +0.000 A 
ATOM     24  C   UNL     1      -2.118  11.546  18.222  0.00  0.00    +0.000 A 
ATOM     25  C   UNL     1      -2.016  10.984  16.945  0.00  0.00    +0.000 A 
ENDBRANCH  18  24
ENDBRANCH  17  18
ENDBRANCH   1  17
TORSDOF 5
ENDMDL
