MODEL 1
REMARK VINA RESULT:      -8.1      0.000      0.000
REMARK  Name = 
REMARK  5 active torsions:
REMARK  status: ('A' for Active; 'I' for Inactive)
REMARK    1  A    between atoms: C_2  and  C_11
REMARK    2  A    between atoms: N_3  and  C_4
REMARK    3  A    between atoms: C_8  and  O_9
REMARK    4  A    between atoms: C_14  and  N_15
REMARK    5  A    between atoms: C_16  and  C_18
REMARK                            x       y       z     vdW  Elec       q    Type
REMARK                         _______ _______ _______ _____ _____    ______ ____
ROOT
ATOM      1  C   UNL     1       2.386   7.642  18.672  0.00  0.00    +0.000 A 
ATOM      2  C   UNL     1       1.977   8.795  18.009  0.00  0.00    +0.000 A 
ATOM      3  C   UNL     1       1.199   9.744  18.673  0.00  0.00    +0.000 A 
ATOM      4  C   UNL     1       0.821   9.576  20.008  0.00  0.00    +0.000 A 
ATOM      5  C   UNL     1       1.278   8.444  20.692  0.00  0.00    +0.000 A 
ATOM      6  C   UNL     1       2.056   7.484  20.027  0.00  0.00    +0.000 A 
ENDROOT
BRANCH   1   8
ATOM      7  O   UNL     1       2.726   5.445  18.002  0.00  0.00    +0.000 OA
ATOM      8  C   UNL     1       3.186   6.581  18.005  0.00  0.00    +0.000 C 
ATOM      9  N   UNL     1       4.389   6.972  17.434  0.00  0.00    +0.000 N 
ATOM     10  H   UNL     1       4.682   7.933  17.542  0.00  0.00    +0.000 HD
BRANCH   9  11
ATOM     11  C   UNL     1       5.301   6.140  16.750  0.00  0.00    +0.000 A 
ATOM     12  C   UNL     1       5.220   5.879  15.379  0.00  0.00    +0.000 A 
ATOM     13  C   UNL     1       6.123   5.011  14.762  0.00  0.00    +0.000 A 
ATOM     14  C   UNL     1       7.118   4.389  15.511  0.00  0.00    +0.000 A 
ATOM     15  C   UNL     1       7.214   4.665  16.870  0.00  0.00    +0.000 A 
ATOM     16  C   UNL     1       6.333   5.550  17.490  0.00  0.00    +0.000 A 
BRANCH  15  17
ATOM     17  O   UNL     1       8.164   4.064  17.645  0.00  0.00    +0.000 OA
ATOM     18  H   UNL     1       8.046   4.364  18.562  0.00  0.00    +0.000 HD
ENDBRANCH  15  17
ENDBRANCH   9  11
ENDBRANCH   1   8
BRANCH   4  19
ATOM     19  N   UNL     1      -0.005  10.496  20.693  0.00  0.00    +0.000 N 
ATOM     20  C   UNL     1       0.404  11.697  21.248  0.00  0.00    +0.000 C 
ATOM     21  O   UNL     1       1.543  12.157  21.221  0.00  0.00    +0.000 OA
ATOM     22  H   UNL     1      -0.992  10.274  20.795  0.00  0.00    +0.000 HD
BRANCH  20  23
ATOM     23  C   UNL     1      -0.736  12.515  21.869  0.00  0.00    +0.000 C 
ATOM     24  C   UNL     1      -1.438  11.686  22.937  0.00  0.00    +0.000 C 
ATOM     25  C   UNL     1      -2.835  12.235  22.926  0.00  0.00    +0.000 C 
ATOM     26  C   UNL     1      -3.025  12.587  21.467  0.00  0.00    +0.000 C 
ATOM     27  O   UNL     1      -1.737  12.955  20.946  0.00  0.00    +0.000 OA
ENDBRANCH  20  23
ENDBRANCH   4  19
TORSDOF 5
ENDMDL
MODEL 2
REMARK VINA RESULT:      -7.8      0.312      1.030
REMARK  Name = 
REMARK  5 active torsions:
REMARK  status: ('A' for Active; 'I' for Inactive)
REMARK    1  A    between atoms: C_2  and  C_11
REMARK    2  A    between atoms: N_3  and  C_4
REMARK    3  A    between atoms: C_8  and  O_9
REMARK    4  A    between atoms: C_14  and  N_15
REMARK    5  A    between atoms: C_16  and  C_18
REMARK                            x       y       z     vdW  Elec       q    Type
REMARK                         _______ _______ _______ _____ _____    ______ ____
ROOT
ATOM      1  C   UNL     1       2.329   7.344  18.961  0.00  0.00    +0.000 A 
ATOM      2  C   UNL     1       1.956   7.124  20.283  0.00  0.00    +0.000 A 
ATOM      3  C   UNL     1       1.204   8.080  20.966  0.00  0.00    +0.000 A 
ATOM      4  C   UNL     1       0.795   9.266  20.351  0.00  0.00    +0.000 A 
ATOM      5  C   UNL     1       1.122   9.464  19.005  0.00  0.00    +0.000 A 
ATOM      6  C   UNL     1       1.883   8.508  18.316  0.00  0.00    +0.000 A 
ENDROOT
BRANCH   1   8
ATOM      7  O   UNL     1       2.720   5.243  18.054  0.00  0.00    +0.000 OA
ATOM      8  C   UNL     1       3.159   6.378  18.196  0.00  0.00    +0.000 C 
ATOM      9  N   UNL     1       4.367   6.849  17.699  0.00  0.00    +0.000 N 
ATOM     10  H   UNL     1       4.642   7.795  17.921  0.00  0.00    +0.000 HD
BRANCH   9  11
ATOM     11  C   UNL     1       5.307   6.114  16.944  0.00  0.00    +0.000 A 
ATOM     12  C   UNL     1       5.240   5.984  15.555  0.00  0.00    +0.000 A 
ATOM     13  C   UNL     1       6.171   5.206  14.864  0.00  0.00    +0.000 A 
ATOM     14  C   UNL     1       7.180   4.543  15.557  0.00  0.00    +0.000 A 
ATOM     15  C   UNL     1       7.261   4.690  16.937  0.00  0.00    +0.000 A 
ATOM     16  C   UNL     1       6.352   5.484  17.633  0.00  0.00    +0.000 A 
BRANCH  15  17
ATOM     17  O   UNL     1       8.225   4.044  17.658  0.00  0.00    +0.000 OA
ATOM     18  H   UNL     1       9.089   4.413  17.411  0.00  0.00    +0.000 HD
ENDBRANCH  15  17
ENDBRANCH   9  11
ENDBRANCH   1   8
BRANCH   4  19
ATOM     19  N   UNL     1       0.073  10.273  21.030  0.00  0.00    +0.000 N 
ATOM     20  C   UNL     1       0.529  11.549  21.313  0.00  0.00    +0.000 C 
ATOM     21  O   UNL     1       1.626  12.011  21.006  0.00  0.00    +0.000 OA
ATOM     22  H   UNL     1      -0.870  10.060  21.346  0.00  0.00    +0.000 HD
BRANCH  20  23
ATOM     23  C   UNL     1      -0.509  12.443  22.004  0.00  0.00    +0.000 C 
ATOM     24  C   UNL     1      -1.339  11.608  22.971  0.00  0.00    +0.000 C 
ATOM     25  C   UNL     1      -2.652  12.336  23.002  0.00  0.00    +0.000 C 
ATOM     26  C   UNL     1      -2.759  12.858  21.587  0.00  0.00    +0.000 C 
ATOM     27  O   UNL     1      -1.422  13.104  21.121  0.00  0.00    +0.000 OA
ENDBRANCH  20  23
ENDBRANCH   4  19
TORSDOF 5
ENDMDL
MODEL 3
REMARK VINA RESULT:      -7.7      1.044      1.556
REMARK  Name = 
REMARK  5 active torsions:
REMARK  status: ('A' for Active; 'I' for Inactive)
REMARK    1  A    between atoms: C_2  and  C_11
REMARK    2  A    between atoms: N_3  and  C_4
REMARK    3  A    between atoms: C_8  and  O_9
REMARK    4  A    between atoms: C_14  and  N_15
REMARK    5  A    between atoms: C_16  and  C_18
REMARK                            x       y       z     vdW  Elec       q    Type
REMARK                         _______ _______ _______ _____ _____    ______ ____
ROOT
ATOM      1  C   UNL     1       2.409   7.649  18.679  0.00  0.00    +0.000 A 
ATOM      2  C   UNL     1       1.960   7.530  19.991  0.00  0.00    +0.000 A 
ATOM      3  C   UNL     1       1.243   8.571  20.581  0.00  0.00    +0.000 A 
ATOM      4  C   UNL     1       0.946   9.743  19.881  0.00  0.00    +0.000 A 
ATOM      5  C   UNL     1       1.349   9.842  18.546  0.00  0.00    +0.000 A 
ATOM      6  C   UNL     1       2.075   8.800  17.949  0.00  0.00    +0.000 A 
ENDROOT
BRANCH   1   8
ATOM      7  O   UNL     1       2.748   5.452  18.009  0.00  0.00    +0.000 OA
ATOM      8  C   UNL     1       3.207   6.587  18.011  0.00  0.00    +0.000 C 
ATOM      9  N   UNL     1       4.411   6.978  17.439  0.00  0.00    +0.000 N 
ATOM     10  H   UNL     1       4.704   7.938  17.546  0.00  0.00    +0.000 HD
BRANCH   9  11
ATOM     11  C   UNL     1       5.321   6.145  16.753  0.00  0.00    +0.000 A 
ATOM     12  C   UNL     1       5.241   5.889  15.381  0.00  0.00    +0.000 A 
ATOM     13  C   UNL     1       6.143   5.019  14.763  0.00  0.00    +0.000 A 
ATOM     14  C   UNL     1       7.134   4.393  15.512  0.00  0.00    +0.000 A 
ATOM     15  C   UNL     1       7.229   4.665  16.872  0.00  0.00    +0.000 A 
ATOM     16  C   UNL     1       6.350   5.550  17.493  0.00  0.00    +0.000 A 
BRANCH  15  17
ATOM     17  O   UNL     1       8.177   4.059  17.646  0.00  0.00    +0.000 OA
ATOM     18  H   UNL     1       7.885   4.098  18.573  0.00  0.00    +0.000 HD
ENDBRANCH  15  17
ENDBRANCH   9  11
ENDBRANCH   1   8
BRANCH   4  19
ATOM     19  N   UNL     1       0.262  10.833  20.467  0.00  0.00    +0.000 N 
ATOM     20  C   UNL     1      -0.967  11.330  20.068  0.00  0.00    +0.000 C 
ATOM     21  O   UNL     1      -1.662  10.894  19.153  0.00  0.00    +0.000 OA
ATOM     22  H   UNL     1       0.696  11.307  21.255  0.00  0.00    +0.000 HD
BRANCH  20  23
ATOM     23  C   UNL     1      -1.487  12.480  20.941  0.00  0.00    +0.000 C 
ATOM     24  C   UNL     1      -0.378  12.961  21.867  0.00  0.00    +0.000 C 
ATOM     25  C   UNL     1      -1.134  13.489  23.052  0.00  0.00    +0.000 C 
ATOM     26  C   UNL     1      -2.324  12.558  23.109  0.00  0.00    +0.000 C 
ATOM     27  O   UNL     1      -2.615  12.154  21.760  0.00  0.00    +0.000 OA
ENDBRANCH  20  23
ENDBRANCH   4  19
TORSDOF 5
ENDMDL
MODEL 4
REMARK VINA RESULT:      -7.7      0.830      1.483
REMARK  Name = 
REMARK  5 active torsions:
REMARK  status: ('A' for Active; 'I' for Inactive)
REMARK    1  A    between atoms: C_2  and  C_11
REMARK    2  A    between atoms: N_3  and  C_4
REMARK    3  A    between atoms: C_8  and  O_9
REMARK    4  A    between atoms: C_14  and  N_15
REMARK    5  A    between atoms: C_16  and  C_18
REMARK                            x       y       z     vdW  Elec       q    Type
REMARK                         _______ _______ _______ _____ _____    ______ ____
ROOT
ATOM      1  C   UNL     1       2.389   7.549  18.684  0.00  0.00    +0.000 A 
ATOM      2  C   UNL     1       2.007   7.521  20.022  0.00  0.00    +0.000 A 
ATOM      3  C   UNL     1       1.235   8.556  20.550  0.00  0.00    +0.000 A 
ATOM      4  C   UNL     1       0.816   9.632  19.762  0.00  0.00    +0.000 A 
ATOM      5  C   UNL     1       1.153   9.634  18.405  0.00  0.00    +0.000 A 
ATOM      6  C   UNL     1       1.935   8.598  17.870  0.00  0.00    +0.000 A 
ENDROOT
BRANCH   1   8
ATOM      7  O   UNL     1       2.903   5.328  18.247  0.00  0.00    +0.000 OA
ATOM      8  C   UNL     1       3.241   6.493  18.076  0.00  0.00    +0.000 C 
ATOM      9  N   UNL     1       4.349   6.921  17.359  0.00  0.00    +0.000 N 
ATOM     10  H   UNL     1       4.548   7.910  17.327  0.00  0.00    +0.000 HD
BRANCH   9  11
ATOM     11  C   UNL     1       5.286   6.098  16.697  0.00  0.00    +0.000 A 
ATOM     12  C   UNL     1       5.234   5.826  15.327  0.00  0.00    +0.000 A 
ATOM     13  C   UNL     1       6.162   4.968  14.733  0.00  0.00    +0.000 A 
ATOM     14  C   UNL     1       7.153   4.367  15.505  0.00  0.00    +0.000 A 
ATOM     15  C   UNL     1       7.220   4.655  16.863  0.00  0.00    +0.000 A 
ATOM     16  C   UNL     1       6.314   5.530  17.460  0.00  0.00    +0.000 A 
BRANCH  15  17
ATOM     17  O   UNL     1       8.165   4.075  17.659  0.00  0.00    +0.000 OA
ATOM     18  H   UNL     1       7.880   4.161  18.585  0.00  0.00    +0.000 HD
ENDBRANCH  15  17
ENDBRANCH   9  11
ENDBRANCH   1   8
BRANCH   4  19
ATOM     19  N   UNL     1       0.074  10.718  20.280  0.00  0.00    +0.000 N 
ATOM     20  C   UNL     1       0.597  11.824  20.927  0.00  0.00    +0.000 C 
ATOM     21  O   UNL     1       1.788  12.043  21.140  0.00  0.00    +0.000 OA
ATOM     22  H   UNL     1      -0.937  10.703  20.176  0.00  0.00    +0.000 HD
BRANCH  20  23
ATOM     23  C   UNL     1      -0.454  12.872  21.317  0.00  0.00    +0.000 C 
ATOM     24  C   UNL     1       0.238  14.097  21.903  0.00  0.00    +0.000 C 
ATOM     25  C   UNL     1      -0.796  14.653  22.838  0.00  0.00    +0.000 C 
ATOM     26  C   UNL     1      -1.480  13.399  23.336  0.00  0.00    +0.000 C 
ATOM     27  O   UNL     1      -1.421  12.431  22.276  0.00  0.00    +0.000 OA
ENDBRANCH  20  23
ENDBRANCH   4  19
TORSDOF 5
ENDMDL
MODEL 5
REMARK VINA RESULT:      -7.6      1.112      1.123
REMARK  Name = 
REMARK  5 active torsions:
REMARK  status: ('A' for Active; 'I' for Inactive)
REMARK    1  A    between atoms: C_2  and  C_11
REMARK    2  A    between atoms: N_3  and  C_4
REMARK    3  A    between atoms: C_8  and  O_9
REMARK    4  A    between atoms: C_14  and  N_15
REMARK    5  A    between atoms: C_16  and  C_18
REMARK                            x       y       z     vdW  Elec       q    Type
REMARK                         _______ _______ _______ _____ _____    ______ ____
ROOT
ATOM      1  C   UNL     1       2.383   7.912  18.550  0.00  0.00    +0.000 A 
ATOM      2  C   UNL     1       2.121   9.088  17.853  0.00  0.00    +0.000 A 
ATOM      3  C   UNL     1       1.369  10.100  18.449  0.00  0.00    +0.000 A 
ATOM      4  C   UNL     1       0.872   9.974  19.749  0.00  0.00    +0.000 A 
ATOM      5  C   UNL     1       1.181   8.816  20.471  0.00  0.00    +0.000 A 
ATOM      6  C   UNL     1       1.932   7.792  19.873  0.00  0.00    +0.000 A 
ENDROOT
BRANCH   1   8
ATOM      7  O   UNL     1       2.635   5.674  17.986  0.00  0.00    +0.000 OA
ATOM      8  C   UNL     1       3.148   6.786  17.953  0.00  0.00    +0.000 C 
ATOM      9  N   UNL     1       4.383   7.094  17.399  0.00  0.00    +0.000 N 
ATOM     10  H   UNL     1       4.719   8.044  17.473  0.00  0.00    +0.000 HD
BRANCH   9  11
ATOM     11  C   UNL     1       5.272   6.191  16.778  0.00  0.00    +0.000 A 
ATOM     12  C   UNL     1       5.207   5.864  15.421  0.00  0.00    +0.000 A 
ATOM     13  C   UNL     1       6.084   4.927  14.868  0.00  0.00    +0.000 A 
ATOM     14  C   UNL     1       7.035   4.303  15.670  0.00  0.00    +0.000 A 
ATOM     15  C   UNL     1       7.116   4.644  17.015  0.00  0.00    +0.000 A 
ATOM     16  C   UNL     1       6.262   5.595  17.570  0.00  0.00    +0.000 A 
BRANCH  15  17
ATOM     17  O   UNL     1       8.023   4.043  17.839  0.00  0.00    +0.000 OA
ATOM     18  H   UNL     1       8.773   3.739  17.299  0.00  0.00    +0.000 HD
ENDBRANCH  15  17
ENDBRANCH   9  11
ENDBRANCH   1   8
BRANCH   4  19
ATOM     19  N   UNL     1       0.068  10.962  20.362  0.00  0.00    +0.000 N 
ATOM     20  C   UNL     1      -1.194  11.353  19.949  0.00  0.00    +0.000 C 
ATOM     21  O   UNL     1      -1.819  10.893  18.995  0.00  0.00    +0.000 OA
ATOM     22  H   UNL     1       0.432  11.439  21.183  0.00  0.00    +0.000 HD
BRANCH  20  23
ATOM     23  C   UNL     1      -1.849  12.403  20.856  0.00  0.00    +0.000 C 
ATOM     24  C   UNL     1      -1.814  11.924  22.302  0.00  0.00    +0.000 C 
ATOM     25  C   UNL     1      -3.016  12.589  22.906  0.00  0.00    +0.000 C 
ATOM     26  C   UNL     1      -3.987  12.602  21.748  0.00  0.00    +0.000 C 
ATOM     27  O   UNL     1      -3.212  12.708  20.542  0.00  0.00    +0.000 OA
ENDBRANCH  20  23
ENDBRANCH   4  19
TORSDOF 5
ENDMDL
MODEL 6
REMARK VINA RESULT:      -7.5      1.073      1.628
REMARK  Name = 
REMARK  5 active torsions:
REMARK  status: ('A' for Active; 'I' for Inactive)
REMARK    1  A    between atoms: C_2  and  C_11
REMARK    2  A    between atoms: N_3  and  C_4
REMARK    3  A    between atoms: C_8  and  O_9
REMARK    4  A    between atoms: C_14  and  N_15
REMARK    5  A    between atoms: C_16  and  C_18
REMARK                            x       y       z     vdW  Elec       q    Type
REMARK                         _______ _______ _______ _____ _____    ______ ____
ROOT
ATOM      1  C   UNL     1       2.373   7.375  19.047  0.00  0.00    +0.000 A 
ATOM      2  C   UNL     1       1.912   7.221  20.351  0.00  0.00    +0.000 A 
ATOM      3  C   UNL     1       1.110   8.206  20.929  0.00  0.00    +0.000 A 
ATOM      4  C   UNL     1       0.741   9.354  20.225  0.00  0.00    +0.000 A 
ATOM      5  C   UNL     1       1.158   9.484  18.897  0.00  0.00    +0.000 A 
ATOM      6  C   UNL     1       1.969   8.500  18.312  0.00  0.00    +0.000 A 
ENDROOT
BRANCH   1   8
ATOM      7  O   UNL     1       3.003   5.191  18.572  0.00  0.00    +0.000 OA
ATOM      8  C   UNL     1       3.258   6.376  18.392  0.00  0.00    +0.000 C 
ATOM      9  N   UNL     1       4.301   6.875  17.623  0.00  0.00    +0.000 N 
ATOM     10  H   UNL     1       4.436   7.875  17.587  0.00  0.00    +0.000 HD
BRANCH   9  11
ATOM     11  C   UNL     1       5.255   6.115  16.911  0.00  0.00    +0.000 A 
ATOM     12  C   UNL     1       5.204   5.925  15.528  0.00  0.00    +0.000 A 
ATOM     13  C   UNL     1       6.150   5.125  14.882  0.00  0.00    +0.000 A 
ATOM     14  C   UNL     1       7.156   4.501  15.614  0.00  0.00    +0.000 A 
ATOM     15  C   UNL     1       7.221   4.709  16.987  0.00  0.00    +0.000 A 
ATOM     16  C   UNL     1       6.297   5.525  17.638  0.00  0.00    +0.000 A 
BRANCH  15  17
ATOM     17  O   UNL     1       8.181   4.103  17.745  0.00  0.00    +0.000 OA
ATOM     18  H   UNL     1       8.368   3.230  17.361  0.00  0.00    +0.000 HD
ENDBRANCH  15  17
ENDBRANCH   9  11
ENDBRANCH   1   8
BRANCH   4  19
ATOM     19  N   UNL     1      -0.031  10.390  20.800  0.00  0.00    +0.000 N 
ATOM     20  C   UNL     1      -0.118  10.684  22.150  0.00  0.00    +0.000 C 
ATOM     21  O   UNL     1       0.471  10.102  23.058  0.00  0.00    +0.000 OA
ATOM     22  H   UNL     1      -0.576  10.985  20.181  0.00  0.00    +0.000 HD
BRANCH  20  23
ATOM     23  C   UNL     1      -0.984  11.912  22.465  0.00  0.00    +0.000 C 
ATOM     24  C   UNL     1      -1.505  12.516  21.168  0.00  0.00    +0.000 C 
ATOM     25  C   UNL     1      -1.672  13.967  21.516  0.00  0.00    +0.000 C 
ATOM     26  C   UNL     1      -0.534  14.193  22.486  0.00  0.00    +0.000 C 
ATOM     27  O   UNL     1      -0.315  12.955  23.183  0.00  0.00    +0.000 OA
ENDBRANCH  20  23
ENDBRANCH   4  19
TORSDOF 5
ENDMDL
MODEL 7
REMARK VINA RESULT:      -7.5      6.100      8.193
REMARK  Name = 
REMARK  5 active torsions:
REMARK  status: ('A' for Active; 'I' for Inactive)
REMARK    1  A    between atoms: C_2  and  C_11
REMARK    2  A    between atoms: N_3  and  C_4
REMARK    3  A    between atoms: C_8  and  O_9
REMARK    4  A    between atoms: C_14  and  N_15
REMARK    5  A    between atoms: C_16  and  C_18
REMARK                            x       y       z     vdW  Elec       q    Type
REMARK                         _______ _______ _______ _____ _____    ______ ____
ROOT
ATOM      1  C   UNL     1       6.119   5.952  18.343  0.00  0.00    +0.000 A 
ATOM      2  C   UNL     1       5.721   6.935  17.442  0.00  0.00    +0.000 A 
ATOM      3  C   UNL     1       6.561   8.016  17.171  0.00  0.00    +0.000 A 
ATOM      4  C   UNL     1       7.815   8.138  17.775  0.00  0.00    +0.000 A 
ATOM      5  C   UNL     1       8.239   7.122  18.637  0.00  0.00    +0.000 A 
ATOM      6  C   UNL     1       7.396   6.037  18.919  0.00  0.00    +0.000 A 
ENDROOT
BRANCH   1   8
ATOM      7  O   UNL     1       5.796   3.715  18.873  0.00  0.00    +0.000 OA
ATOM      8  C   UNL     1       5.252   4.798  18.698  0.00  0.00    +0.000 C 
ATOM      9  N   UNL     1       3.891   5.050  18.807  0.00  0.00    +0.000 N 
ATOM     10  H   UNL     1       3.556   5.979  18.594  0.00  0.00    +0.000 HD
BRANCH   9  11
ATOM     11  C   UNL     1       2.889   4.112  19.136  0.00  0.00    +0.000 A 
ATOM     12  C   UNL     1       2.036   3.538  18.190  0.00  0.00    +0.000 A 
ATOM     13  C   UNL     1       1.032   2.648  18.580  0.00  0.00    +0.000 A 
ATOM     14  C   UNL     1       0.867   2.326  19.924  0.00  0.00    +0.000 A 
ATOM     15  C   UNL     1       1.729   2.879  20.863  0.00  0.00    +0.000 A 
ATOM     16  C   UNL     1       2.750   3.747  20.482  0.00  0.00    +0.000 A 
BRANCH  15  17
ATOM     17  O   UNL     1       1.591   2.602  22.193  0.00  0.00    +0.000 OA
ATOM     18  H   UNL     1       1.175   3.368  22.623  0.00  0.00    +0.000 HD
ENDBRANCH  15  17
ENDBRANCH   9  11
ENDBRANCH   1   8
BRANCH   4  19
ATOM     19  N   UNL     1       8.667   9.244  17.555  0.00  0.00    +0.000 N 
ATOM     20  C   UNL     1       9.110  10.131  18.520  0.00  0.00    +0.000 C 
ATOM     21  O   UNL     1       8.845  10.089  19.720  0.00  0.00    +0.000 OA
ATOM     22  H   UNL     1       8.996   9.418  16.609  0.00  0.00    +0.000 HD
BRANCH  20  23
ATOM     23  C   UNL     1      10.083  11.193  17.990  0.00  0.00    +0.000 C 
ATOM     24  C   UNL     1      11.123  11.512  19.057  0.00  0.00    +0.000 C 
ATOM     25  C   UNL     1      11.495  12.934  18.750  0.00  0.00    +0.000 C 
ATOM     26  C   UNL     1      10.187  13.502  18.247  0.00  0.00    +0.000 C 
ATOM     27  O   UNL     1       9.475  12.431  17.605  0.00  0.00    +0.000 OA
ENDBRANCH  20  23
ENDBRANCH   4  19
TORSDOF 5
ENDMDL
MODEL 8
REMARK VINA RESULT:      -7.3      2.631      2.728
REMARK  Name = 
REMARK  5 active torsions:
REMARK  status: ('A' for Active; 'I' for Inactive)
REMARK    1  A    between atoms: C_2  and  C_11
REMARK    2  A    between atoms: N_3  and  C_4
REMARK    3  A    between atoms: C_8  and  O_9
REMARK    4  A    between atoms: C_14  and  N_15
REMARK    5  A    between atoms: C_16  and  C_18
REMARK                            x       y       z     vdW  Elec       q    Type
REMARK                         _______ _______ _______ _____ _____    ______ ____
ROOT
ATOM      1  C   UNL     1       2.071   7.965  18.935  0.00  0.00    +0.000 A 
ATOM      2  C   UNL     1       1.904   9.036  18.062  0.00  0.00    +0.000 A 
ATOM      3  C   UNL     1       1.241  10.188  18.487  0.00  0.00    +0.000 A 
ATOM      4  C   UNL     1       0.741  10.306  19.787  0.00  0.00    +0.000 A 
ATOM      5  C   UNL     1       0.957   9.253  20.681  0.00  0.00    +0.000 A 
ATOM      6  C   UNL     1       1.618   8.091  20.257  0.00  0.00    +0.000 A 
ENDROOT
BRANCH   1   8
ATOM      7  O   UNL     1       3.716   6.789  17.796  0.00  0.00    +0.000 OA
ATOM      8  C   UNL     1       2.737   6.701  18.526  0.00  0.00    +0.000 C 
ATOM      9  N   UNL     1       2.192   5.521  19.015  0.00  0.00    +0.000 N 
ATOM     10  H   UNL     1       1.353   5.576  19.575  0.00  0.00    +0.000 HD
BRANCH   9  11
ATOM     11  C   UNL     1       2.661   4.214  18.763  0.00  0.00    +0.000 A 
ATOM     12  C   UNL     1       2.128   3.387  17.771  0.00  0.00    +0.000 A 
ATOM     13  C   UNL     1       2.602   2.084  17.597  0.00  0.00    +0.000 A 
ATOM     14  C   UNL     1       3.613   1.593  18.417  0.00  0.00    +0.000 A 
ATOM     15  C   UNL     1       4.161   2.423  19.388  0.00  0.00    +0.000 A 
ATOM     16  C   UNL     1       3.712   3.732  19.554  0.00  0.00    +0.000 A 
BRANCH  15  17
ATOM     17  O   UNL     1       5.143   1.975  20.224  0.00  0.00    +0.000 OA
ATOM     18  H   UNL     1       5.883   1.654  19.682  0.00  0.00    +0.000 HD
ENDBRANCH  15  17
ENDBRANCH   9  11
ENDBRANCH   1   8
BRANCH   4  19
ATOM     19  N   UNL     1       0.025  11.441  20.232  0.00  0.00    +0.000 N 
ATOM     20  C   UNL     1       0.558  12.520  20.917  0.00  0.00    +0.000 C 
ATOM     21  O   UNL     1       1.736  12.668  21.232  0.00  0.00    +0.000 OA
ATOM     22  H   UNL     1      -0.972  11.487  20.040  0.00  0.00    +0.000 HD
BRANCH  20  23
ATOM     23  C   UNL     1      -0.457  13.634  21.208  0.00  0.00    +0.000 C 
ATOM     24  C   UNL     1      -0.802  13.636  22.692  0.00  0.00    +0.000 C 
ATOM     25  C   UNL     1      -2.199  14.185  22.712  0.00  0.00    +0.000 C 
ATOM     26  C   UNL     1      -2.772  13.641  21.423  0.00  0.00    +0.000 C 
ATOM     27  O   UNL     1      -1.688  13.535  20.485  0.00  0.00    +0.000 OA
ENDBRANCH  20  23
ENDBRANCH   4  19
TORSDOF 5
ENDMDL
MODEL 9
REMARK VINA RESULT:      -7.3      0.954      1.363
REMARK  Name = 
REMARK  5 active torsions:
REMARK  status: ('A' for Active; 'I' for Inactive)
REMARK    1  A    between atoms: C_2  and  C_11
REMARK    2  A    between atoms: N_3  and  C_4
REMARK    3  A    between atoms: C_8  and  O_9
REMARK    4  A    between atoms: C_14  and  N_15
REMARK    5  A    between atoms: C_16  and  C_18
REMARK                            x       y       z     vdW  Elec       q    Type
REMARK                         _______ _______ _______ _____ _____    ______ ____
ROOT
ATOM      1  C   UNL     1       2.301   7.602  18.735  0.00  0.00    +0.000 A 
ATOM      2  C   UNL     1       1.881   8.707  18.002  0.00  0.00    +0.000 A 
ATOM      3  C   UNL     1       1.108   9.697  18.609  0.00  0.00    +0.000 A 
ATOM      4  C   UNL     1       0.747   9.619  19.957  0.00  0.00    +0.000 A 
ATOM      5  C   UNL     1       1.215   8.537  20.710  0.00  0.00    +0.000 A 
ATOM      6  C   UNL     1       1.987   7.536  20.102  0.00  0.00    +0.000 A 
ENDROOT
BRANCH   1   8
ATOM      7  O   UNL     1       2.549   5.410  18.013  0.00  0.00    +0.000 OA
ATOM      8  C   UNL     1       3.095   6.500  18.132  0.00  0.00    +0.000 C 
ATOM      9  N   UNL     1       4.394   6.804  17.748  0.00  0.00    +0.000 N 
ATOM     10  H   UNL     1       4.747   7.731  17.940  0.00  0.00    +0.000 HD
BRANCH   9  11
ATOM     11  C   UNL     1       5.320   5.921  17.153  0.00  0.00    +0.000 A 
ATOM     12  C   UNL     1       6.461   5.450  17.810  0.00  0.00    +0.000 A 
ATOM     13  C   UNL     1       7.368   4.613  17.155  0.00  0.00    +0.000 A 
ATOM     14  C   UNL     1       7.146   4.239  15.833  0.00  0.00    +0.000 A 
ATOM     15  C   UNL     1       6.000   4.688  15.187  0.00  0.00    +0.000 A 
ATOM     16  C   UNL     1       5.076   5.503  15.838  0.00  0.00    +0.000 A 
BRANCH  15  17
ATOM     17  O   UNL     1       5.752   4.359  13.885  0.00  0.00    +0.000 OA
ATOM     18  H   UNL     1       6.547   3.933  13.521  0.00  0.00    +0.000 HD
ENDBRANCH  15  17
ENDBRANCH   9  11
ENDBRANCH   1   8
BRANCH   4  19
ATOM     19  N   UNL     1      -0.073  10.582  20.588  0.00  0.00    +0.000 N 
ATOM     20  C   UNL     1       0.359  11.765  21.161  0.00  0.00    +0.000 C 
ATOM     21  O   UNL     1       1.518  12.172  21.200  0.00  0.00    +0.000 OA
ATOM     22  H   UNL     1      -1.074  10.408  20.633  0.00  0.00    +0.000 HD
BRANCH  20  23
ATOM     23  C   UNL     1      -0.776  12.641  21.711  0.00  0.00    +0.000 C 
ATOM     24  C   UNL     1      -1.454  11.928  22.874  0.00  0.00    +0.000 C 
ATOM     25  C   UNL     1      -2.855  12.467  22.827  0.00  0.00    +0.000 C 
ATOM     26  C   UNL     1      -3.072  12.660  21.343  0.00  0.00    +0.000 C 
ATOM     27  O   UNL     1      -1.795  12.975  20.763  0.00  0.00    +0.000 OA
ENDBRANCH  20  23
ENDBRANCH   4  19
TORSDOF 5
ENDMDL
