MODEL 1
REMARK VINA RESULT:      -6.1      0.000      0.000
REMARK  Name = 
REMARK  2 active torsions:
REMARK  status: ('A' for Active; 'I' for Inactive)
REMARK    1  A    between atoms: C_1  and  O_2
REMARK    2  A    between atoms: O_2  and  C_3
REMARK                            x       y       z     vdW  Elec       q    Type
REMARK                         _______ _______ _______ _____ _____    ______ ____
ROOT
ATOM      1  C   UNL     1      11.646  11.894  18.233  0.00  0.00    +0.000 C 
ATOM      2  C   UNL     1      11.876  11.881  19.746  0.00  0.00    +0.000 C 
ATOM      3  C   UNL     1      11.152  13.045  20.451  0.00  0.00    +0.000 C 
ATOM      4  C   UNL     1       9.610  13.112  20.132  0.00  0.00    +0.000 C 
ATOM      5  C   UNL     1       9.451  13.115  18.598  0.00  0.00    +0.000 C 
ATOM      6  C   UNL     1      10.141  11.920  17.936  0.00  0.00    +0.000 C 
ATOM      7  C   UNL     1       8.904  11.878  20.772  0.00  0.00    +0.000 C 
ATOM      8  C   UNL     1       8.721  12.349  22.183  0.00  0.00    +0.000 A 
ATOM      9  C   UNL     1       8.424  11.566  23.281  0.00  0.00    +0.000 A 
ATOM     10  C   UNL     1       8.246  12.203  24.507  0.00  0.00    +0.000 A 
ATOM     11  C   UNL     1       8.379  13.598  24.609  0.00  0.00    +0.000 A 
ATOM     12 BR   UNL     1       8.095  14.423  26.289  0.00  0.00    +0.000 Br
ATOM     13  C   UNL     1       8.673  14.387  23.489  0.00  0.00    +0.000 A 
ATOM     14  C   UNL     1       8.816  13.749  22.266  0.00  0.00    +0.000 A 
ATOM     15  C   UNL     1       8.884  14.332  20.860  0.00  0.00    +0.000 C 
ATOM     16  C   UNL     1       7.400  14.587  20.498  0.00  0.00    +0.000 C 
ATOM     17  S   UNL     1       7.442  15.836  19.218  0.00  0.00    +0.000 S 
ATOM     18  C   UNL     1       8.990  16.351  19.812  0.00  0.00    +0.000 C 
ATOM     19  N   UNL     1       9.389  17.538  19.287  0.00  0.00    +0.000 N 
ATOM     20  N   UNL     1       9.628  15.602  20.644  0.00  0.00    +0.000 NA
ATOM     21  H   UNL     1       8.691  17.900  18.646  0.00  0.00    +0.000 HD
ATOM     22  H   UNL     1      10.284  17.454  18.816  0.00  0.00    +0.000 HD
ENDROOT
BRANCH   1  24
ATOM     23  C   UNL     1      12.206  13.229  16.322  0.00  0.00    +0.000 C 
ATOM     24  O   UNL     1      12.327  13.045  17.722  0.00  0.00    +0.000 OA
ENDBRANCH   1  24
TORSDOF 1
ENDMDL
MODEL 2
REMARK VINA RESULT:      -5.9      9.412     11.378
REMARK  Name = 
REMARK  2 active torsions:
REMARK  status: ('A' for Active; 'I' for Inactive)
REMARK    1  A    between atoms: C_1  and  O_2
REMARK    2  A    between atoms: O_2  and  C_3
REMARK                            x       y       z     vdW  Elec       q    Type
REMARK                         _______ _______ _______ _____ _____    ______ ____
ROOT
ATOM      1  C   UNL     1       2.489   6.084  19.279  0.00  0.00    +0.000 C 
ATOM      2  C   UNL     1       2.536   6.241  17.758  0.00  0.00    +0.000 C 
ATOM      3  C   UNL     1       3.974   6.443  17.242  0.00  0.00    +0.000 C 
ATOM      4  C   UNL     1       4.973   5.318  17.707  0.00  0.00    +0.000 C 
ATOM      5  C   UNL     1       4.871   5.208  19.242  0.00  0.00    +0.000 C 
ATOM      6  C   UNL     1       3.436   4.960  19.716  0.00  0.00    +0.000 C 
ATOM      7  C   UNL     1       4.585   3.975  17.017  0.00  0.00    +0.000 C 
ATOM      8  C   UNL     1       5.249   4.134  15.682  0.00  0.00    +0.000 A 
ATOM      9  C   UNL     1       4.999   3.392  14.544  0.00  0.00    +0.000 A 
ATOM     10  C   UNL     1       5.758   3.664  13.408  0.00  0.00    +0.000 A 
ATOM     11  C   UNL     1       6.738   4.671  13.433  0.00  0.00    +0.000 A 
ATOM     12 BR   UNL     1       7.769   4.982  11.877  0.00  0.00    +0.000 Br
ATOM     13  C   UNL     1       6.991   5.414  14.594  0.00  0.00    +0.000 A 
ATOM     14  C   UNL     1       6.254   5.115  15.730  0.00  0.00    +0.000 A 
ATOM     15  C   UNL     1       6.458   5.554  17.173  0.00  0.00    +0.000 C 
ATOM     16  C   UNL     1       7.557   4.595  17.695  0.00  0.00    +0.000 C 
ATOM     17  S   UNL     1       8.297   5.447  19.083  0.00  0.00    +0.000 S 
ATOM     18  C   UNL     1       7.769   6.954  18.402  0.00  0.00    +0.000 C 
ATOM     19  N   UNL     1       8.335   8.032  19.003  0.00  0.00    +0.000 N 
ATOM     20  N   UNL     1       6.907   6.947  17.444  0.00  0.00    +0.000 NA
ATOM     21  H   UNL     1       8.971   7.742  19.738  0.00  0.00    +0.000 HD
ATOM     22  H   UNL     1       7.633   8.660  19.378  0.00  0.00    +0.000 HD
ENDROOT
BRANCH   1  24
ATOM     23  C   UNL     1       1.766   8.079  20.394  0.00  0.00    +0.000 C 
ATOM     24  O   UNL     1       2.848   7.353  19.836  0.00  0.00    +0.000 OA
ENDBRANCH   1  24
TORSDOF 1
ENDMDL
MODEL 3
REMARK VINA RESULT:      -5.7     10.454     12.268
REMARK  Name = 
REMARK  2 active torsions:
REMARK  status: ('A' for Active; 'I' for Inactive)
REMARK    1  A    between atoms: C_1  and  O_2
REMARK    2  A    between atoms: O_2  and  C_3
REMARK                            x       y       z     vdW  Elec       q    Type
REMARK                         _______ _______ _______ _____ _____    ______ ____
ROOT
ATOM      1  C   UNL     1      -5.021  14.266  22.342  0.00  0.00    +0.000 C 
ATOM      2  C   UNL     1      -4.751  12.809  21.961  0.00  0.00    +0.000 C 
ATOM      3  C   UNL     1      -3.431  12.650  21.182  0.00  0.00    +0.000 C 
ATOM      4  C   UNL     1      -2.184  13.261  21.927  0.00  0.00    +0.000 C 
ATOM      5  C   UNL     1      -2.524  14.721  22.287  0.00  0.00    +0.000 C 
ATOM      6  C   UNL     1      -3.816  14.837  23.100  0.00  0.00    +0.000 C 
ATOM      7  C   UNL     1      -1.890  12.417  23.205  0.00  0.00    +0.000 C 
ATOM      8  C   UNL     1      -1.099  11.282  22.627  0.00  0.00    +0.000 A 
ATOM      9  C   UNL     1      -0.827  10.073  23.236  0.00  0.00    +0.000 A 
ATOM     10  C   UNL     1      -0.029   9.161  22.549  0.00  0.00    +0.000 A 
ATOM     11  C   UNL     1       0.466   9.473  21.271  0.00  0.00    +0.000 A 
ATOM     12 BR   UNL     1       1.573   8.217  20.389  0.00  0.00    +0.000 Br
ATOM     13  C   UNL     1       0.191  10.705  20.662  0.00  0.00    +0.000 A 
ATOM     14  C   UNL     1      -0.575  11.620  21.367  0.00  0.00    +0.000 A 
ATOM     15  C   UNL     1      -0.831  13.097  21.097  0.00  0.00    +0.000 C 
ATOM     16  C   UNL     1       0.431  13.795  21.661  0.00  0.00    +0.000 C 
ATOM     17  S   UNL     1       0.513  15.366  20.810  0.00  0.00    +0.000 S 
ATOM     18  C   UNL     1      -0.413  14.678  19.512  0.00  0.00    +0.000 C 
ATOM     19  N   UNL     1      -0.427  15.459  18.402  0.00  0.00    +0.000 N 
ATOM     20  N   UNL     1      -1.010  13.550  19.691  0.00  0.00    +0.000 NA
ATOM     21  H   UNL     1       0.120  16.301  18.547  0.00  0.00    +0.000 HD
ATOM     22  H   UNL     1      -1.374  15.702  18.129  0.00  0.00    +0.000 HD
ENDROOT
BRANCH   1  24
ATOM     23  C   UNL     1      -6.032  16.164  21.283  0.00  0.00    +0.000 C 
ATOM     24  O   UNL     1      -5.287  14.969  21.124  0.00  0.00    +0.000 OA
ENDBRANCH   1  24
TORSDOF 1
ENDMDL
MODEL 4
REMARK VINA RESULT:      -5.5     10.006     11.867
REMARK  Name = 
REMARK  2 active torsions:
REMARK  status: ('A' for Active; 'I' for Inactive)
REMARK    1  A    between atoms: C_1  and  O_2
REMARK    2  A    between atoms: O_2  and  C_3
REMARK                            x       y       z     vdW  Elec       q    Type
REMARK                         _______ _______ _______ _____ _____    ______ ____
ROOT
ATOM      1  C   UNL     1      -4.052  13.881  23.065  0.00  0.00    +0.000 C 
ATOM      2  C   UNL     1      -3.909  12.581  22.270  0.00  0.00    +0.000 C 
ATOM      3  C   UNL     1      -2.835  12.692  21.170  0.00  0.00    +0.000 C 
ATOM      4  C   UNL     1      -1.431  13.164  21.707  0.00  0.00    +0.000 C 
ATOM      5  C   UNL     1      -1.648  14.468  22.500  0.00  0.00    +0.000 C 
ATOM      6  C   UNL     1      -2.685  14.308  23.615  0.00  0.00    +0.000 C 
ATOM      7  C   UNL     1      -0.830  12.044  22.611  0.00  0.00    +0.000 C 
ATOM      8  C   UNL     1      -0.229  11.134  21.583  0.00  0.00    +0.000 A 
ATOM      9  C   UNL     1       0.176   9.827  21.775  0.00  0.00    +0.000 A 
ATOM     10  C   UNL     1       0.757   9.159  20.700  0.00  0.00    +0.000 A 
ATOM     11  C   UNL     1       0.912   9.806  19.462  0.00  0.00    +0.000 A 
ATOM     12 BR   UNL     1       1.739   8.870  18.039  0.00  0.00    +0.000 Br
ATOM     13  C   UNL     1       0.506  11.134  19.277  0.00  0.00    +0.000 A 
ATOM     14  C   UNL     1      -0.042  11.803  20.361  0.00  0.00    +0.000 A 
ATOM     15  C   UNL     1      -0.339  13.284  20.549  0.00  0.00    +0.000 C 
ATOM     16  C   UNL     1       1.035  13.886  20.936  0.00  0.00    +0.000 C 
ATOM     17  S   UNL     1       0.916  15.622  20.521  0.00  0.00    +0.000 S 
ATOM     18  C   UNL     1      -0.322  15.231  19.367  0.00  0.00    +0.000 C 
ATOM     19  N   UNL     1      -0.610  16.262  18.533  0.00  0.00    +0.000 N 
ATOM     20  N   UNL     1      -0.867  14.063  19.397  0.00  0.00    +0.000 NA
ATOM     21  H   UNL     1      -0.034  17.069  18.745  0.00  0.00    +0.000 HD
ATOM     22  H   UNL     1      -1.592  16.515  18.579  0.00  0.00    +0.000 HD
ENDROOT
BRANCH   1  24
ATOM     23  C   UNL     1      -6.030  14.840  22.108  0.00  0.00    +0.000 C 
ATOM     24  O   UNL     1      -4.613  14.850  22.174  0.00  0.00    +0.000 OA
ENDBRANCH   1  24
TORSDOF 1
ENDMDL
MODEL 5
REMARK VINA RESULT:      -5.4      9.296     10.920
REMARK  Name = 
REMARK  2 active torsions:
REMARK  status: ('A' for Active; 'I' for Inactive)
REMARK    1  A    between atoms: C_1  and  O_2
REMARK    2  A    between atoms: O_2  and  C_3
REMARK                            x       y       z     vdW  Elec       q    Type
REMARK                         _______ _______ _______ _____ _____    ______ ____
ROOT
ATOM      1  C   UNL     1       2.524  14.929  19.760  0.00  0.00    +0.000 C 
ATOM      2  C   UNL     1       1.167  15.166  19.093  0.00  0.00    +0.000 C 
ATOM      3  C   UNL     1       0.471  13.844  18.715  0.00  0.00    +0.000 C 
ATOM      4  C   UNL     1       0.320  12.845  19.924  0.00  0.00    +0.000 C 
ATOM      5  C   UNL     1       1.716  12.657  20.551  0.00  0.00    +0.000 C 
ATOM      6  C   UNL     1       2.358  13.986  20.958  0.00  0.00    +0.000 C 
ATOM      7  C   UNL     1      -0.688  13.440  20.954  0.00  0.00    +0.000 C 
ATOM      8  C   UNL     1      -1.996  13.037  20.345  0.00  0.00    +0.000 A 
ATOM      9  C   UNL     1      -3.242  13.546  20.656  0.00  0.00    +0.000 A 
ATOM     10  C   UNL     1      -4.349  13.004  20.008  0.00  0.00    +0.000 A 
ATOM     11  C   UNL     1      -4.186  11.978  19.061  0.00  0.00    +0.000 A 
ATOM     12 BR   UNL     1      -5.722  11.248  18.230  0.00  0.00    +0.000 Br
ATOM     13  C   UNL     1      -2.919  11.461  18.756  0.00  0.00    +0.000 A 
ATOM     14  C   UNL     1      -1.826  11.984  19.430  0.00  0.00    +0.000 A 
ATOM     15  C   UNL     1      -0.391  11.479  19.507  0.00  0.00    +0.000 C 
ATOM     16  C   UNL     1      -0.455  10.361  20.578  0.00  0.00    +0.000 C 
ATOM     17  S   UNL     1       0.959   9.317  20.244  0.00  0.00    +0.000 S 
ATOM     18  C   UNL     1       0.944   9.873  18.599  0.00  0.00    +0.000 C 
ATOM     19  N   UNL     1       1.745   9.137  17.786  0.00  0.00    +0.000 N 
ATOM     20  N   UNL     1       0.234  10.902  18.286  0.00  0.00    +0.000 NA
ATOM     21  H   UNL     1       2.196   8.391  18.304  0.00  0.00    +0.000 HD
ATOM     22  H   UNL     1       2.443   9.715  17.329  0.00  0.00    +0.000 HD
ENDROOT
BRANCH   1  24
ATOM     23  C   UNL     1       3.941  15.359  17.874  0.00  0.00    +0.000 C 
ATOM     24  O   UNL     1       3.390  14.393  18.754  0.00  0.00    +0.000 OA
ENDBRANCH   1  24
TORSDOF 1
ENDMDL
MODEL 6
REMARK VINA RESULT:      -5.4      8.938     11.108
REMARK  Name = 
REMARK  2 active torsions:
REMARK  status: ('A' for Active; 'I' for Inactive)
REMARK    1  A    between atoms: C_1  and  O_2
REMARK    2  A    between atoms: O_2  and  C_3
REMARK                            x       y       z     vdW  Elec       q    Type
REMARK                         _______ _______ _______ _____ _____    ______ ____
ROOT
ATOM      1  C   UNL     1      -3.473  13.233  22.078  0.00  0.00    +0.000 C 
ATOM      2  C   UNL     1      -2.324  14.166  22.466  0.00  0.00    +0.000 C 
ATOM      3  C   UNL     1      -0.947  13.517  22.226  0.00  0.00    +0.000 C 
ATOM      4  C   UNL     1      -0.749  12.986  20.757  0.00  0.00    +0.000 C 
ATOM      5  C   UNL     1      -1.940  12.062  20.430  0.00  0.00    +0.000 C 
ATOM      6  C   UNL     1      -3.290  12.754  20.633  0.00  0.00    +0.000 C 
ATOM      7  C   UNL     1      -0.690  14.200  19.780  0.00  0.00    +0.000 C 
ATOM      8  C   UNL     1       0.744  14.612  19.917  0.00  0.00    +0.000 A 
ATOM      9  C   UNL     1       1.297  15.814  19.520  0.00  0.00    +0.000 A 
ATOM     10  C   UNL     1       2.669  15.989  19.692  0.00  0.00    +0.000 A 
ATOM     11  C   UNL     1       3.449  14.970  20.263  0.00  0.00    +0.000 A 
ATOM     12 BR   UNL     1       5.313  15.239  20.446  0.00  0.00    +0.000 Br
ATOM     13  C   UNL     1       2.881  13.750  20.657  0.00  0.00    +0.000 A 
ATOM     14  C   UNL     1       1.522  13.571  20.451  0.00  0.00    +0.000 A 
ATOM     15  C   UNL     1       0.678  12.306  20.535  0.00  0.00    +0.000 C 
ATOM     16  C   UNL     1       0.924  11.612  19.173  0.00  0.00    +0.000 C 
ATOM     17  S   UNL     1       0.539   9.888  19.453  0.00  0.00    +0.000 S 
ATOM     18  C   UNL     1       0.867  10.119  21.142  0.00  0.00    +0.000 C 
ATOM     19  N   UNL     1       0.960   8.951  21.827  0.00  0.00    +0.000 N 
ATOM     20  N   UNL     1       0.969  11.317  21.607  0.00  0.00    +0.000 NA
ATOM     21  H   UNL     1       0.824   8.159  21.208  0.00  0.00    +0.000 HD
ATOM     22  H   UNL     1       0.293   8.913  22.591  0.00  0.00    +0.000 HD
ENDROOT
BRANCH   1  24
ATOM     23  C   UNL     1      -4.028  12.471  24.283  0.00  0.00    +0.000 C 
ATOM     24  O   UNL     1      -3.465  12.155  23.020  0.00  0.00    +0.000 OA
ENDBRANCH   1  24
TORSDOF 1
ENDMDL
MODEL 7
REMARK VINA RESULT:      -5.4      8.297      9.909
REMARK  Name = 
REMARK  2 active torsions:
REMARK  status: ('A' for Active; 'I' for Inactive)
REMARK    1  A    between atoms: C_1  and  O_2
REMARK    2  A    between atoms: O_2  and  C_3
REMARK                            x       y       z     vdW  Elec       q    Type
REMARK                         _______ _______ _______ _____ _____    ______ ____
ROOT
ATOM      1  C   UNL     1       2.272  15.725  19.392  0.00  0.00    +0.000 C 
ATOM      2  C   UNL     1       3.090  14.442  19.551  0.00  0.00    +0.000 C 
ATOM      3  C   UNL     1       2.311  13.350  20.310  0.00  0.00    +0.000 C 
ATOM      4  C   UNL     1       0.903  13.029  19.680  0.00  0.00    +0.000 C 
ATOM      5  C   UNL     1       0.138  14.360  19.543  0.00  0.00    +0.000 C 
ATOM      6  C   UNL     1       0.921  15.404  18.742  0.00  0.00    +0.000 C 
ATOM      7  C   UNL     1       1.110  12.349  18.292  0.00  0.00    +0.000 C 
ATOM      8  C   UNL     1       1.350  10.926  18.700  0.00  0.00    +0.000 A 
ATOM      9  C   UNL     1       1.890   9.925  17.917  0.00  0.00    +0.000 A 
ATOM     10  C   UNL     1       1.989   8.649  18.466  0.00  0.00    +0.000 A 
ATOM     11  C   UNL     1       1.558   8.407  19.782  0.00  0.00    +0.000 A 
ATOM     12 BR   UNL     1       1.680   6.650  20.475  0.00  0.00    +0.000 Br
ATOM     13  C   UNL     1       1.004   9.427  20.568  0.00  0.00    +0.000 A 
ATOM     14  C   UNL     1       0.878  10.686  20.001  0.00  0.00    +0.000 A 
ATOM     15  C   UNL     1       0.109  11.906  20.490  0.00  0.00    +0.000 C 
ATOM     16  C   UNL     1      -1.348  11.619  20.052  0.00  0.00    +0.000 C 
ATOM     17  S   UNL     1      -2.364  12.619  21.133  0.00  0.00    +0.000 S 
ATOM     18  C   UNL     1      -1.080  12.609  22.301  0.00  0.00    +0.000 C 
ATOM     19  N   UNL     1      -1.469  13.071  23.517  0.00  0.00    +0.000 N 
ATOM     20  N   UNL     1       0.093  12.210  21.946  0.00  0.00    +0.000 NA
ATOM     21  H   UNL     1      -2.449  13.329  23.507  0.00  0.00    +0.000 HD
ATOM     22  H   UNL     1      -0.904  13.861  23.813  0.00  0.00    +0.000 HD
ENDROOT
BRANCH   1  24
ATOM     23  C   UNL     1       1.748  17.655  20.716  0.00  0.00    +0.000 C 
ATOM     24  O   UNL     1       2.134  16.290  20.700  0.00  0.00    +0.000 OA
ENDBRANCH   1  24
TORSDOF 1
ENDMDL
MODEL 8
REMARK VINA RESULT:      -5.4      9.033     10.274
REMARK  Name = 
REMARK  2 active torsions:
REMARK  status: ('A' for Active; 'I' for Inactive)
REMARK    1  A    between atoms: C_1  and  O_2
REMARK    2  A    between atoms: O_2  and  C_3
REMARK                            x       y       z     vdW  Elec       q    Type
REMARK                         _______ _______ _______ _____ _____    ______ ____
ROOT
ATOM      1  C   UNL     1      -0.157  10.096  18.809  0.00  0.00    +0.000 C 
ATOM      2  C   UNL     1      -0.207  10.165  20.337  0.00  0.00    +0.000 C 
ATOM      3  C   UNL     1       0.103  11.581  20.862  0.00  0.00    +0.000 C 
ATOM      4  C   UNL     1      -0.811  12.699  20.232  0.00  0.00    +0.000 C 
ATOM      5  C   UNL     1      -0.720  12.568  18.699  0.00  0.00    +0.000 C 
ATOM      6  C   UNL     1      -1.080  11.163  18.209  0.00  0.00    +0.000 C 
ATOM      7  C   UNL     1      -2.276  12.500  20.731  0.00  0.00    +0.000 C 
ATOM      8  C   UNL     1      -2.220  13.176  22.068  0.00  0.00    +0.000 A 
ATOM      9  C   UNL     1      -3.138  13.051  23.093  0.00  0.00    +0.000 A 
ATOM     10  C   UNL     1      -2.932  13.803  24.248  0.00  0.00    +0.000 A 
ATOM     11  C   UNL     1      -1.814  14.648  24.355  0.00  0.00    +0.000 A 
ATOM     12 BR   UNL     1      -1.594  15.676  25.929  0.00  0.00    +0.000 Br
ATOM     13  C   UNL     1      -0.892  14.775  23.308  0.00  0.00    +0.000 A 
ATOM     14  C   UNL     1      -1.122  14.049  22.149  0.00  0.00    +0.000 A 
ATOM     15  C   UNL     1      -0.465  14.157  20.780  0.00  0.00    +0.000 C 
ATOM     16  C   UNL     1      -1.196  15.351  20.117  0.00  0.00    +0.000 C 
ATOM     17  S   UNL     1      -0.073  15.941  18.855  0.00  0.00    +0.000 S 
ATOM     18  C   UNL     1       1.246  15.250  19.747  0.00  0.00    +0.000 C 
ATOM     19  N   UNL     1       2.460  15.661  19.298  0.00  0.00    +0.000 N 
ATOM     20  N   UNL     1       0.998  14.422  20.703  0.00  0.00    +0.000 NA
ATOM     21  H   UNL     1       2.357  16.306  18.523  0.00  0.00    +0.000 HD
ATOM     22  H   UNL     1       3.040  14.875  19.022  0.00  0.00    +0.000 HD
ENDROOT
BRANCH   1  24
ATOM     23  C   UNL     1       1.824   9.136  17.858  0.00  0.00    +0.000 C 
ATOM     24  O   UNL     1       1.212  10.279  18.433  0.00  0.00    +0.000 OA
ENDBRANCH   1  24
TORSDOF 1
ENDMDL
MODEL 9
REMARK VINA RESULT:      -5.3      0.966      1.055
REMARK  Name = 
REMARK  2 active torsions:
REMARK  status: ('A' for Active; 'I' for Inactive)
REMARK    1  A    between atoms: C_1  and  O_2
REMARK    2  A    between atoms: O_2  and  C_3
REMARK                            x       y       z     vdW  Elec       q    Type
REMARK                         _______ _______ _______ _____ _____    ______ ____
ROOT
ATOM      1  C   UNL     1      10.821  12.316  18.740  0.00  0.00    +0.000 C 
ATOM      2  C   UNL     1      11.270  12.331  20.203  0.00  0.00    +0.000 C 
ATOM      3  C   UNL     1      10.644  13.500  20.988  0.00  0.00    +0.000 C 
ATOM      4  C   UNL     1       9.072  13.548  20.898  0.00  0.00    +0.000 C 
ATOM      5  C   UNL     1       8.689  13.523  19.404  0.00  0.00    +0.000 C 
ATOM      6  C   UNL     1       9.289  12.324  18.666  0.00  0.00    +0.000 C 
ATOM      7  C   UNL     1       8.481  12.318  21.653  0.00  0.00    +0.000 C 
ATOM      8  C   UNL     1       8.501  12.811  23.068  0.00  0.00    +0.000 A 
ATOM      9  C   UNL     1       8.377  12.044  24.210  0.00  0.00    +0.000 A 
ATOM     10  C   UNL     1       8.374  12.699  25.439  0.00  0.00    +0.000 A 
ATOM     11  C   UNL     1       8.505  14.097  25.499  0.00  0.00    +0.000 A 
ATOM     12 BR   UNL     1       8.461  14.947  27.190  0.00  0.00    +0.000 Br
ATOM     13  C   UNL     1       8.622  14.870  24.336  0.00  0.00    +0.000 A 
ATOM     14  C   UNL     1       8.591  14.213  23.115  0.00  0.00    +0.000 A 
ATOM     15  C   UNL     1       8.446  14.772  21.706  0.00  0.00    +0.000 C 
ATOM     16  C   UNL     1       6.922  15.008  21.562  0.00  0.00    +0.000 C 
ATOM     17  S   UNL     1       6.762  16.236  20.271  0.00  0.00    +0.000 S 
ATOM     18  C   UNL     1       8.374  16.775  20.623  0.00  0.00    +0.000 C 
ATOM     19  N   UNL     1       8.678  17.956  20.027  0.00  0.00    +0.000 N 
ATOM     20  N   UNL     1       9.136  16.045  21.364  0.00  0.00    +0.000 NA
ATOM     21  H   UNL     1       7.891  18.301  19.490  0.00  0.00    +0.000 HD
ATOM     22  H   UNL     1       9.496  17.873  19.431  0.00  0.00    +0.000 HD
ENDROOT
BRANCH   1  24
ATOM     23  C   UNL     1      11.788  13.271  16.765  0.00  0.00    +0.000 C 
ATOM     24  O   UNL     1      11.407  13.464  18.117  0.00  0.00    +0.000 OA
ENDBRANCH   1  24
TORSDOF 1
ENDMDL
