MODEL 1
REMARK VINA RESULT:      -6.4      0.000      0.000
REMARK  Name = 
REMARK  4 active torsions:
REMARK  status: ('A' for Active; 'I' for Inactive)
REMARK    1  A    between atoms: C_2  and  C_12
REMARK    2  A    between atoms: N_3  and  C_4
REMARK    3  A    between atoms: C_4  and  C_5
REMARK    4  A    between atoms: C_5  and  N_6
REMARK                            x       y       z     vdW  Elec       q    Type
REMARK                         _______ _______ _______ _____ _____    ______ ____
ROOT
ATOM      1  O   UNL     1       3.826   6.208  19.355  0.00  0.00    +0.000 OA
ATOM      2  C   UNL     1       4.067   5.005  19.422  0.00  0.00    +0.000 C 
ATOM      3  N   UNL     1       5.331   4.462  19.352  0.00  0.00    +0.000 N 
ATOM      4  H   UNL     1       5.398   3.459  19.220  0.00  0.00    +0.000 HD
ENDROOT
BRANCH   2   5
ATOM      5  C   UNL     1       2.930   4.091  19.653  0.00  0.00    +0.000 A 
ATOM      6  C   UNL     1       2.447   4.034  20.975  0.00  0.00    +0.000 A 
ATOM      7  C   UNL     1       1.343   3.248  21.296  0.00  0.00    +0.000 A 
ATOM      8  C   UNL     1       0.707   2.515  20.299  0.00  0.00    +0.000 A 
ATOM      9  C   UNL     1       1.181   2.566  18.983  0.00  0.00    +0.000 A 
ATOM     10  C   UNL     1       2.290   3.351  18.655  0.00  0.00    +0.000 A 
ATOM     11 CL   UNL     1       2.758   3.389  16.992  0.00  0.00    +0.000 Cl
ENDBRANCH   2   5
BRANCH   3  12
ATOM     12  C   UNL     1       6.518   5.236  19.004  0.00  0.00    +0.000 C 
BRANCH  12  13
ATOM     13  C   UNL     1       7.309   4.693  17.796  0.00  0.00    +0.000 C 
BRANCH  13  14
ATOM     14  N   UNL     1       7.516   5.637  16.678  0.00  0.00    +0.000 NA
ATOM     15  C   UNL     1       6.397   6.617  16.659  0.00  0.00    +0.000 C 
ATOM     16  C   UNL     1       5.044   6.042  16.182  0.00  0.00    +0.000 C 
ATOM     17  O   UNL     1       5.164   5.402  14.903  0.00  0.00    +0.000 OA
ATOM     18  C   UNL     1       6.169   4.381  14.936  0.00  0.00    +0.000 C 
ATOM     19  C   UNL     1       7.528   4.969  15.355  0.00  0.00    +0.000 C 
ENDBRANCH  13  14
ENDBRANCH  12  13
ENDBRANCH   3  12
TORSDOF 4
ENDMDL
MODEL 2
REMARK VINA RESULT:      -6.3      1.161      1.161
REMARK  Name = 
REMARK  4 active torsions:
REMARK  status: ('A' for Active; 'I' for Inactive)
REMARK    1  A    between atoms: C_2  and  C_12
REMARK    2  A    between atoms: N_3  and  C_4
REMARK    3  A    between atoms: C_4  and  C_5
REMARK    4  A    between atoms: C_5  and  N_6
REMARK                            x       y       z     vdW  Elec       q    Type
REMARK                         _______ _______ _______ _____ _____    ______ ____
ROOT
ATOM      1  O   UNL     1       5.293   2.555  19.907  0.00  0.00    +0.000 OA
ATOM      2  C   UNL     1       4.525   3.463  19.604  0.00  0.00    +0.000 C 
ATOM      3  N   UNL     1       4.925   4.678  19.089  0.00  0.00    +0.000 N 
ATOM      4  H   UNL     1       4.234   5.419  19.060  0.00  0.00    +0.000 HD
ENDROOT
BRANCH   2   5
ATOM      5  C   UNL     1       3.077   3.212  19.744  0.00  0.00    +0.000 A 
ATOM      6  C   UNL     1       2.597   3.111  21.064  0.00  0.00    +0.000 A 
ATOM      7  C   UNL     1       1.239   2.931  21.316  0.00  0.00    +0.000 A 
ATOM      8  C   UNL     1       0.346   2.855  20.251  0.00  0.00    +0.000 A 
ATOM      9  C   UNL     1       0.815   2.954  18.936  0.00  0.00    +0.000 A 
ATOM     10  C   UNL     1       2.177   3.133  18.677  0.00  0.00    +0.000 A 
ATOM     11 CL   UNL     1       2.644   3.300  17.022  0.00  0.00    +0.000 Cl
ENDBRANCH   2   5
BRANCH   3  12
ATOM     12  C   UNL     1       6.321   5.098  19.016  0.00  0.00    +0.000 C 
BRANCH  12  13
ATOM     13  C   UNL     1       7.090   4.566  17.791  0.00  0.00    +0.000 C 
BRANCH  13  14
ATOM     14  N   UNL     1       7.552   5.582  16.822  0.00  0.00    +0.000 NA
ATOM     15  C   UNL     1       6.796   6.844  17.048  0.00  0.00    +0.000 C 
ATOM     16  C   UNL     1       5.318   6.799  16.595  0.00  0.00    +0.000 C 
ATOM     17  O   UNL     1       5.197   6.387  15.226  0.00  0.00    +0.000 OA
ATOM     18  C   UNL     1       5.833   5.120  15.017  0.00  0.00    +0.000 C 
ATOM     19  C   UNL     1       7.319   5.184  15.413  0.00  0.00    +0.000 C 
ENDBRANCH  13  14
ENDBRANCH  12  13
ENDBRANCH   3  12
TORSDOF 4
ENDMDL
MODEL 3
REMARK VINA RESULT:      -6.3      2.745      6.323
REMARK  Name = 
REMARK  4 active torsions:
REMARK  status: ('A' for Active; 'I' for Inactive)
REMARK    1  A    between atoms: C_2  and  C_12
REMARK    2  A    between atoms: N_3  and  C_4
REMARK    3  A    between atoms: C_4  and  C_5
REMARK    4  A    between atoms: C_5  and  N_6
REMARK                            x       y       z     vdW  Elec       q    Type
REMARK                         _______ _______ _______ _____ _____    ______ ____
ROOT
ATOM      1  O   UNL     1       7.767   4.791  16.219  0.00  0.00    +0.000 OA
ATOM      2  C   UNL     1       6.859   5.207  15.505  0.00  0.00    +0.000 C 
ATOM      3  N   UNL     1       5.994   6.220  15.861  0.00  0.00    +0.000 N 
ATOM      4  H   UNL     1       5.168   6.347  15.287  0.00  0.00    +0.000 HD
ENDROOT
BRANCH   2   5
ATOM      5  C   UNL     1       6.725   4.623  14.156  0.00  0.00    +0.000 A 
ATOM      6  C   UNL     1       5.610   3.786  13.957  0.00  0.00    +0.000 A 
ATOM      7  C   UNL     1       5.354   3.226  12.708  0.00  0.00    +0.000 A 
ATOM      8  C   UNL     1       6.206   3.500  11.643  0.00  0.00    +0.000 A 
ATOM      9  C   UNL     1       7.316   4.332  11.832  0.00  0.00    +0.000 A 
ATOM     10  C   UNL     1       7.580   4.895  13.084  0.00  0.00    +0.000 A 
ATOM     11 CL   UNL     1       8.943   5.951  13.196  0.00  0.00    +0.000 Cl
ENDBRANCH   2   5
BRANCH   3  12
ATOM     12  C   UNL     1       5.939   6.793  17.202  0.00  0.00    +0.000 C 
BRANCH  12  13
ATOM     13  C   UNL     1       5.224   5.914  18.248  0.00  0.00    +0.000 C 
BRANCH  13  14
ATOM     14  N   UNL     1       4.049   5.157  17.767  0.00  0.00    +0.000 NA
ATOM     15  C   UNL     1       2.872   5.505  18.608  0.00  0.00    +0.000 C 
ATOM     16  C   UNL     1       2.908   4.921  20.040  0.00  0.00    +0.000 C 
ATOM     17  O   UNL     1       3.104   3.500  20.025  0.00  0.00    +0.000 OA
ATOM     18  C   UNL     1       4.295   3.157  19.305  0.00  0.00    +0.000 C 
ATOM     19  C   UNL     1       4.231   3.689  17.862  0.00  0.00    +0.000 C 
ENDBRANCH  13  14
ENDBRANCH  12  13
ENDBRANCH   3  12
TORSDOF 4
ENDMDL
MODEL 4
REMARK VINA RESULT:      -6.2      2.389      6.140
REMARK  Name = 
REMARK  4 active torsions:
REMARK  status: ('A' for Active; 'I' for Inactive)
REMARK    1  A    between atoms: C_2  and  C_12
REMARK    2  A    between atoms: N_3  and  C_4
REMARK    3  A    between atoms: C_4  and  C_5
REMARK    4  A    between atoms: C_5  and  N_6
REMARK                            x       y       z     vdW  Elec       q    Type
REMARK                         _______ _______ _______ _____ _____    ______ ____
ROOT
ATOM      1  O   UNL     1       4.621   3.742  16.762  0.00  0.00    +0.000 OA
ATOM      2  C   UNL     1       4.472   4.732  17.473  0.00  0.00    +0.000 C 
ATOM      3  N   UNL     1       3.296   5.059  18.114  0.00  0.00    +0.000 N 
ATOM      4  H   UNL     1       3.227   5.990  18.508  0.00  0.00    +0.000 HD
ENDROOT
BRANCH   2   5
ATOM      5  C   UNL     1       5.650   5.594  17.703  0.00  0.00    +0.000 A 
ATOM      6  C   UNL     1       6.451   5.255  18.810  0.00  0.00    +0.000 A 
ATOM      7  C   UNL     1       7.617   5.965  19.088  0.00  0.00    +0.000 A 
ATOM      8  C   UNL     1       7.997   7.016  18.260  0.00  0.00    +0.000 A 
ATOM      9  C   UNL     1       7.205   7.359  17.157  0.00  0.00    +0.000 A 
ATOM     10  C   UNL     1       6.033   6.653  16.875  0.00  0.00    +0.000 A 
ATOM     11 CL   UNL     1       5.160   7.120  15.458  0.00  0.00    +0.000 Cl
ENDBRANCH   2   5
BRANCH   3  12
ATOM     12  C   UNL     1       2.034   4.366  17.874  0.00  0.00    +0.000 C 
BRANCH  12  13
ATOM     13  C   UNL     1       1.204   4.084  19.142  0.00  0.00    +0.000 C 
BRANCH  13  14
ATOM     14  N   UNL     1       1.182   2.681  19.605  0.00  0.00    +0.000 NA
ATOM     15  C   UNL     1       0.977   2.660  21.079  0.00  0.00    +0.000 C 
ATOM     16  C   UNL     1       2.200   3.119  21.905  0.00  0.00    +0.000 C 
ATOM     17  O   UNL     1       3.380   2.379  21.559  0.00  0.00    +0.000 OA
ATOM     18  C   UNL     1       3.648   2.477  20.154  0.00  0.00    +0.000 C 
ATOM     19  C   UNL     1       2.451   1.964  19.334  0.00  0.00    +0.000 C 
ENDBRANCH  13  14
ENDBRANCH  12  13
ENDBRANCH   3  12
TORSDOF 4
ENDMDL
MODEL 5
REMARK VINA RESULT:      -6.2      2.416      5.995
REMARK  Name = 
REMARK  4 active torsions:
REMARK  status: ('A' for Active; 'I' for Inactive)
REMARK    1  A    between atoms: C_2  and  C_12
REMARK    2  A    between atoms: N_3  and  C_4
REMARK    3  A    between atoms: C_4  and  C_5
REMARK    4  A    between atoms: C_5  and  N_6
REMARK                            x       y       z     vdW  Elec       q    Type
REMARK                         _______ _______ _______ _____ _____    ______ ____
ROOT
ATOM      1  O   UNL     1       6.187   4.986  19.596  0.00  0.00    +0.000 OA
ATOM      2  C   UNL     1       5.455   5.214  18.637  0.00  0.00    +0.000 C 
ATOM      3  N   UNL     1       4.162   5.681  18.741  0.00  0.00    +0.000 N 
ATOM      4  H   UNL     1       3.589   5.646  17.906  0.00  0.00    +0.000 HD
ENDROOT
BRANCH   2   5
ATOM      5  C   UNL     1       6.020   5.031  17.285  0.00  0.00    +0.000 A 
ATOM      6  C   UNL     1       5.505   3.950  16.545  0.00  0.00    +0.000 A 
ATOM      7  C   UNL     1       5.925   3.718  15.238  0.00  0.00    +0.000 A 
ATOM      8  C   UNL     1       6.860   4.566  14.655  0.00  0.00    +0.000 A 
ATOM      9  C   UNL     1       7.378   5.644  15.383  0.00  0.00    +0.000 A 
ATOM     10  C   UNL     1       6.962   5.881  16.696  0.00  0.00    +0.000 A 
ATOM     11 CL   UNL     1       7.619   7.270  17.488  0.00  0.00    +0.000 Cl
ENDBRANCH   2   5
BRANCH   3  12
ATOM     12  C   UNL     1       3.447   5.785  20.008  0.00  0.00    +0.000 C 
BRANCH  12  13
ATOM     13  C   UNL     1       2.042   5.148  20.008  0.00  0.00    +0.000 C 
BRANCH  13  14
ATOM     14  N   UNL     1       1.889   3.913  20.806  0.00  0.00    +0.000 NA
ATOM     15  C   UNL     1       3.087   3.054  20.603  0.00  0.00    +0.000 C 
ATOM     16  C   UNL     1       3.168   2.380  19.214  0.00  0.00    +0.000 C 
ATOM     17  O   UNL     1       1.974   1.644  18.913  0.00  0.00    +0.000 OA
ATOM     18  C   UNL     1       0.819   2.488  19.003  0.00  0.00    +0.000 C 
ATOM     19  C   UNL     1       0.708   3.111  20.406  0.00  0.00    +0.000 C 
ENDBRANCH  13  14
ENDBRANCH  12  13
ENDBRANCH   3  12
TORSDOF 4
ENDMDL
MODEL 6
REMARK VINA RESULT:      -6.1      1.259      1.292
REMARK  Name = 
REMARK  4 active torsions:
REMARK  status: ('A' for Active; 'I' for Inactive)
REMARK    1  A    between atoms: C_2  and  C_12
REMARK    2  A    between atoms: N_3  and  C_4
REMARK    3  A    between atoms: C_4  and  C_5
REMARK    4  A    between atoms: C_5  and  N_6
REMARK                            x       y       z     vdW  Elec       q    Type
REMARK                         _______ _______ _______ _____ _____    ______ ____
ROOT
ATOM      1  O   UNL     1       4.741   3.459  17.768  0.00  0.00    +0.000 OA
ATOM      2  C   UNL     1       4.602   3.894  18.907  0.00  0.00    +0.000 C 
ATOM      3  N   UNL     1       5.517   4.702  19.547  0.00  0.00    +0.000 N 
ATOM      4  H   UNL     1       5.397   4.839  20.544  0.00  0.00    +0.000 HD
ENDROOT
BRANCH   2   5
ATOM      5  C   UNL     1       3.344   3.577  19.613  0.00  0.00    +0.000 A 
ATOM      6  C   UNL     1       3.474   2.808  20.785  0.00  0.00    +0.000 A 
ATOM      7  C   UNL     1       2.360   2.497  21.561  0.00  0.00    +0.000 A 
ATOM      8  C   UNL     1       1.105   2.957  21.176  0.00  0.00    +0.000 A 
ATOM      9  C   UNL     1       0.966   3.722  20.012  0.00  0.00    +0.000 A 
ATOM     10  C   UNL     1       2.080   4.034  19.228  0.00  0.00    +0.000 A 
ATOM     11 CL   UNL     1       1.809   5.032  17.843  0.00  0.00    +0.000 Cl
ENDBRANCH   2   5
BRANCH   3  12
ATOM     12  C   UNL     1       6.846   4.987  19.014  0.00  0.00    +0.000 C 
BRANCH  12  13
ATOM     13  C   UNL     1       7.095   4.452  17.589  0.00  0.00    +0.000 C 
BRANCH  13  14
ATOM     14  N   UNL     1       7.553   5.445  16.595  0.00  0.00    +0.000 NA
ATOM     15  C   UNL     1       6.917   6.757  16.892  0.00  0.00    +0.000 C 
ATOM     16  C   UNL     1       5.408   6.831  16.563  0.00  0.00    +0.000 C 
ATOM     17  O   UNL     1       5.144   6.450  15.205  0.00  0.00    +0.000 OA
ATOM     18  C   UNL     1       5.661   5.141  14.935  0.00  0.00    +0.000 C 
ATOM     19  C   UNL     1       7.175   5.086  15.207  0.00  0.00    +0.000 C 
ENDBRANCH  13  14
ENDBRANCH  12  13
ENDBRANCH   3  12
TORSDOF 4
ENDMDL
MODEL 7
REMARK VINA RESULT:      -6.1      2.003      2.786
REMARK  Name = 
REMARK  4 active torsions:
REMARK  status: ('A' for Active; 'I' for Inactive)
REMARK    1  A    between atoms: C_2  and  C_12
REMARK    2  A    between atoms: N_3  and  C_4
REMARK    3  A    between atoms: C_4  and  C_5
REMARK    4  A    between atoms: C_5  and  N_6
REMARK                            x       y       z     vdW  Elec       q    Type
REMARK                         _______ _______ _______ _____ _____    ______ ____
ROOT
ATOM      1  O   UNL     1       2.747   3.257  16.887  0.00  0.00    +0.000 OA
ATOM      2  C   UNL     1       3.092   3.907  17.870  0.00  0.00    +0.000 C 
ATOM      3  N   UNL     1       3.910   5.015  17.820  0.00  0.00    +0.000 N 
ATOM      4  H   UNL     1       4.288   5.352  18.698  0.00  0.00    +0.000 HD
ENDROOT
BRANCH   2   5
ATOM      5  C   UNL     1       2.545   3.507  19.182  0.00  0.00    +0.000 A 
ATOM      6  C   UNL     1       1.183   3.799  19.394  0.00  0.00    +0.000 A 
ATOM      7  C   UNL     1       0.548   3.417  20.573  0.00  0.00    +0.000 A 
ATOM      8  C   UNL     1       1.265   2.735  21.550  0.00  0.00    +0.000 A 
ATOM      9  C   UNL     1       2.619   2.441  21.348  0.00  0.00    +0.000 A 
ATOM     10  C   UNL     1       3.262   2.824  20.168  0.00  0.00    +0.000 A 
ATOM     11 CL   UNL     1       4.919   2.363  19.994  0.00  0.00    +0.000 Cl
ENDBRANCH   2   5
BRANCH   3  12
ATOM     12  C   UNL     1       4.613   5.438  16.613  0.00  0.00    +0.000 C 
BRANCH  12  13
ATOM     13  C   UNL     1       5.370   6.775  16.745  0.00  0.00    +0.000 C 
BRANCH  13  14
ATOM     14  N   UNL     1       6.818   6.734  16.450  0.00  0.00    +0.000 NA
ATOM     15  C   UNL     1       7.189   5.352  16.044  0.00  0.00    +0.000 C 
ATOM     16  C   UNL     1       7.194   4.321  17.196  0.00  0.00    +0.000 C 
ATOM     17  O   UNL     1       8.017   4.753  18.289  0.00  0.00    +0.000 OA
ATOM     18  C   UNL     1       7.602   6.042  18.760  0.00  0.00    +0.000 C 
ATOM     19  C   UNL     1       7.655   7.080  17.624  0.00  0.00    +0.000 C 
ENDBRANCH  13  14
ENDBRANCH  12  13
ENDBRANCH   3  12
TORSDOF 4
ENDMDL
MODEL 8
REMARK VINA RESULT:      -6.1      2.442      5.915
REMARK  Name = 
REMARK  4 active torsions:
REMARK  status: ('A' for Active; 'I' for Inactive)
REMARK    1  A    between atoms: C_2  and  C_12
REMARK    2  A    between atoms: N_3  and  C_4
REMARK    3  A    between atoms: C_4  and  C_5
REMARK    4  A    between atoms: C_5  and  N_6
REMARK                            x       y       z     vdW  Elec       q    Type
REMARK                         _______ _______ _______ _____ _____    ______ ____
ROOT
ATOM      1  O   UNL     1       5.522   5.425  19.300  0.00  0.00    +0.000 OA
ATOM      2  C   UNL     1       4.925   5.605  18.242  0.00  0.00    +0.000 C 
ATOM      3  N   UNL     1       3.677   6.181  18.143  0.00  0.00    +0.000 N 
ATOM      4  H   UNL     1       3.199   6.102  17.253  0.00  0.00    +0.000 HD
ENDROOT
BRANCH   2   5
ATOM      5  C   UNL     1       5.619   5.234  16.992  0.00  0.00    +0.000 A 
ATOM      6  C   UNL     1       4.976   4.264  16.199  0.00  0.00    +0.000 A 
ATOM      7  C   UNL     1       5.512   3.879  14.972  0.00  0.00    +0.000 A 
ATOM      8  C   UNL     1       6.692   4.464  14.523  0.00  0.00    +0.000 A 
ATOM      9  C   UNL     1       7.336   5.429  15.305  0.00  0.00    +0.000 A 
ATOM     10  C   UNL     1       6.805   5.817  16.538  0.00  0.00    +0.000 A 
ATOM     11 CL   UNL     1       7.648   7.056  17.399  0.00  0.00    +0.000 Cl
ENDBRANCH   2   5
BRANCH   3  12
ATOM     12  C   UNL     1       2.837   6.477  19.300  0.00  0.00    +0.000 C 
BRANCH  12  13
ATOM     13  C   UNL     1       2.457   5.248  20.150  0.00  0.00    +0.000 C 
BRANCH  13  14
ATOM     14  N   UNL     1       1.239   4.522  19.733  0.00  0.00    +0.000 NA
ATOM     15  C   UNL     1       0.982   3.416  20.694  0.00  0.00    +0.000 C 
ATOM     16  C   UNL     1       1.965   2.227  20.588  0.00  0.00    +0.000 C 
ATOM     17  O   UNL     1       2.030   1.714  19.249  0.00  0.00    +0.000 OA
ATOM     18  C   UNL     1       2.381   2.751  18.323  0.00  0.00    +0.000 C 
ATOM     19  C   UNL     1       1.367   3.906  18.390  0.00  0.00    +0.000 C 
ENDBRANCH  13  14
ENDBRANCH  12  13
ENDBRANCH   3  12
TORSDOF 4
ENDMDL
MODEL 9
REMARK VINA RESULT:      -6.1      2.071      2.959
REMARK  Name = 
REMARK  4 active torsions:
REMARK  status: ('A' for Active; 'I' for Inactive)
REMARK    1  A    between atoms: C_2  and  C_12
REMARK    2  A    between atoms: N_3  and  C_4
REMARK    3  A    between atoms: C_4  and  C_5
REMARK    4  A    between atoms: C_5  and  N_6
REMARK                            x       y       z     vdW  Elec       q    Type
REMARK                         _______ _______ _______ _____ _____    ______ ____
ROOT
ATOM      1  O   UNL     1       3.801   3.728  16.695  0.00  0.00    +0.000 OA
ATOM      2  C   UNL     1       3.351   4.552  17.486  0.00  0.00    +0.000 C 
ATOM      3  N   UNL     1       3.665   5.893  17.473  0.00  0.00    +0.000 N 
ATOM      4  H   UNL     1       3.396   6.440  18.283  0.00  0.00    +0.000 HD
ENDROOT
BRANCH   2   5
ATOM      5  C   UNL     1       2.361   4.081  18.476  0.00  0.00    +0.000 A 
ATOM      6  C   UNL     1       1.932   2.748  18.328  0.00  0.00    +0.000 A 
ATOM      7  C   UNL     1       1.043   2.181  19.238  0.00  0.00    +0.000 A 
ATOM      8  C   UNL     1       0.578   2.938  20.308  0.00  0.00    +0.000 A 
ATOM      9  C   UNL     1       1.000   4.264  20.463  0.00  0.00    +0.000 A 
ATOM     10  C   UNL     1       1.890   4.839  19.552  0.00  0.00    +0.000 A 
ATOM     11 CL   UNL     1       2.392   6.463  19.865  0.00  0.00    +0.000 Cl
ENDBRANCH   2   5
BRANCH   3  12
ATOM     12  C   UNL     1       4.715   6.463  16.634  0.00  0.00    +0.000 C 
BRANCH  12  13
ATOM     13  C   UNL     1       5.740   7.334  17.387  0.00  0.00    +0.000 C 
BRANCH  13  14
ATOM     14  N   UNL     1       7.161   7.095  17.059  0.00  0.00    +0.000 NA
ATOM     15  C   UNL     1       7.290   5.766  16.403  0.00  0.00    +0.000 C 
ATOM     16  C   UNL     1       7.102   4.559  17.351  0.00  0.00    +0.000 C 
ATOM     17  O   UNL     1       7.977   4.638  18.485  0.00  0.00    +0.000 OA
ATOM     18  C   UNL     1       7.789   5.872  19.189  0.00  0.00    +0.000 C 
ATOM     19  C   UNL     1       8.033   7.073  18.258  0.00  0.00    +0.000 C 
ENDBRANCH  13  14
ENDBRANCH  12  13
ENDBRANCH   3  12
TORSDOF 4
ENDMDL
