MODEL 1
REMARK VINA RESULT:      -8.9      0.000      0.000
REMARK  Name = 
REMARK  10 active torsions:
REMARK  status: ('A' for Active; 'I' for Inactive)
REMARK    1  A    between atoms: C_1  and  C_2
REMARK    2  A    between atoms: C_2  and  C_3
REMARK    3  A    between atoms: C_10  and  C_11
REMARK    4  A    between atoms: C_12  and  C_13
REMARK    5  A    between atoms: C_13  and  C_14
REMARK    6  A    between atoms: C_16  and  C_17
REMARK    7  A    between atoms: C_21  and  C_22
REMARK    8  A    between atoms: C_22  and  O_24
REMARK    9  A    between atoms: C_28  and  O_29
REMARK   10  A    between atoms: O_29  and  C_30
REMARK                            x       y       z     vdW  Elec       q    Type
REMARK                         _______ _______ _______ _____ _____    ______ ____
ROOT
ATOM      1  C   UNL     1       1.565   8.959  19.209  0.00  0.00    +0.000 A 
ATOM      2  C   UNL     1       2.391   8.053  18.504  0.00  0.00    +0.000 A 
ATOM      3  C   UNL     1       2.674   6.748  18.943  0.00  0.00    +0.000 A 
ATOM      4  C   UNL     1       2.214   6.397  20.213  0.00  0.00    +0.000 A 
ATOM      5  C   UNL     1       1.420   7.277  20.949  0.00  0.00    +0.000 A 
ATOM      6  C   UNL     1       1.076   8.546  20.459  0.00  0.00    +0.000 A 
ENDROOT
BRANCH   3   7
ATOM      7  C   UNL     1       3.240   5.756  17.999  0.00  0.00    +0.000 A 
ATOM      8  C   UNL     1       2.625   4.513  17.754  0.00  0.00    +0.000 A 
ATOM      9  C   UNL     1       3.281   3.509  17.039  0.00  0.00    +0.000 A 
ATOM     10  C   UNL     1       4.560   3.737  16.536  0.00  0.00    +0.000 A 
ATOM     11  C   UNL     1       5.186   4.968  16.736  0.00  0.00    +0.000 A 
ATOM     12  C   UNL     1       4.519   5.972  17.446  0.00  0.00    +0.000 A 
BRANCH  11  13
ATOM     13  C   UNL     1       6.547   5.168  16.174  0.00  0.00    +0.000 C 
ATOM     14  O   UNL     1       6.733   5.766  15.128  0.00  0.00    +0.000 OA
BRANCH  13  15
ATOM     15  O   UNL     1       7.555   4.613  16.877  0.00  0.00    +0.000 OA
ATOM     16  H   UNL     1       8.447   4.670  16.493  0.00  0.00    +0.000 HD
ENDBRANCH  13  15
ENDBRANCH  11  13
ENDBRANCH   3   7
BRANCH   6  17
ATOM     17  O   UNL     1       0.165   9.162  21.270  0.00  0.00    +0.000 OA
ATOM     18  C   UNL     1       0.489   9.432  22.622  0.00  0.00    +0.000 C 
ENDBRANCH   6  17
BRANCH   1  19
ATOM     19  C   UNL     1       1.155  10.255  18.531  0.00  0.00    +0.000 C 
BRANCH  19  21
ATOM     20  C   UNL     1      -1.449  10.649  18.077  0.00  0.00    +0.000 C 
ATOM     21  C   UNL     1      -0.281  10.436  18.276  0.00  0.00    +0.000 C 
BRANCH  20  29
ATOM     22  C   UNL     1      -3.488  10.641  16.697  0.00  0.00    +0.000 A 
ATOM     23  N   UNL     1      -4.770  11.012  16.476  0.00  0.00    +0.000 NA
ATOM     24  C   UNL     1      -5.343  11.794  17.397  0.00  0.00    +0.000 A 
ATOM     25  N   UNL     1      -6.650  12.172  17.173  0.00  0.00    +0.000 N 
ATOM     26  N   UNL     1      -4.762  12.216  18.525  0.00  0.00    +0.000 NA
ATOM     27  C   UNL     1      -3.494  11.836  18.732  0.00  0.00    +0.000 A 
ATOM     28  N   UNL     1      -2.920  12.235  19.947  0.00  0.00    +0.000 N 
ATOM     29  C   UNL     1      -2.805  11.022  17.842  0.00  0.00    +0.000 A 
ATOM     30  H   UNL     1      -7.100  11.499  16.569  0.00  0.00    +0.000 HD
ATOM     31  H   UNL     1      -7.103  12.385  18.050  0.00  0.00    +0.000 HD
ATOM     32  H   UNL     1      -3.528  12.913  20.395  0.00  0.00    +0.000 HD
ATOM     33  H   UNL     1      -1.964  12.554  19.847  0.00  0.00    +0.000 HD
BRANCH  22  35
ATOM     34  C   UNL     1      -3.313  10.155  14.239  0.00  0.00    +0.000 C 
ATOM     35  C   UNL     1      -2.839   9.784  15.635  0.00  0.00    +0.000 C 
ENDBRANCH  22  35
ENDBRANCH  20  29
ENDBRANCH  19  21
ENDBRANCH   1  19
TORSDOF 8
ENDMDL
MODEL 2
REMARK VINA RESULT:      -8.6      0.810      2.081
REMARK  Name = 
REMARK  10 active torsions:
REMARK  status: ('A' for Active; 'I' for Inactive)
REMARK    1  A    between atoms: C_1  and  C_2
REMARK    2  A    between atoms: C_2  and  C_3
REMARK    3  A    between atoms: C_10  and  C_11
REMARK    4  A    between atoms: C_12  and  C_13
REMARK    5  A    between atoms: C_13  and  C_14
REMARK    6  A    between atoms: C_16  and  C_17
REMARK    7  A    between atoms: C_21  and  C_22
REMARK    8  A    between atoms: C_22  and  O_24
REMARK    9  A    between atoms: C_28  and  O_29
REMARK   10  A    between atoms: O_29  and  C_30
REMARK                            x       y       z     vdW  Elec       q    Type
REMARK                         _______ _______ _______ _____ _____    ______ ____
ROOT
ATOM      1  C   UNL     1       1.717   8.947  18.845  0.00  0.00    +0.000 A 
ATOM      2  C   UNL     1       2.592   8.024  18.225  0.00  0.00    +0.000 A 
ATOM      3  C   UNL     1       2.909   6.765  18.762  0.00  0.00    +0.000 A 
ATOM      4  C   UNL     1       2.430   6.487  20.043  0.00  0.00    +0.000 A 
ATOM      5  C   UNL     1       1.588   7.386  20.696  0.00  0.00    +0.000 A 
ATOM      6  C   UNL     1       1.212   8.605  20.110  0.00  0.00    +0.000 A 
ENDROOT
BRANCH   3   7
ATOM      7  C   UNL     1       3.533   5.730  17.904  0.00  0.00    +0.000 A 
ATOM      8  C   UNL     1       2.907   4.497  17.636  0.00  0.00    +0.000 A 
ATOM      9  C   UNL     1       3.599   3.455  17.014  0.00  0.00    +0.000 A 
ATOM     10  C   UNL     1       4.926   3.635  16.629  0.00  0.00    +0.000 A 
ATOM     11  C   UNL     1       5.566   4.854  16.854  0.00  0.00    +0.000 A 
ATOM     12  C   UNL     1       4.864   5.896  17.469  0.00  0.00    +0.000 A 
BRANCH  11  13
ATOM     13  C   UNL     1       6.979   5.001  16.419  0.00  0.00    +0.000 C 
ATOM     14  O   UNL     1       7.322   5.847  15.611  0.00  0.00    +0.000 OA
BRANCH  13  15
ATOM     15  O   UNL     1       7.846   4.114  16.947  0.00  0.00    +0.000 OA
ATOM     16  H   UNL     1       8.077   3.341  16.402  0.00  0.00    +0.000 HD
ENDBRANCH  13  15
ENDBRANCH  11  13
ENDBRANCH   3   7
BRANCH   6  17
ATOM     17  O   UNL     1       0.260   9.242  20.855  0.00  0.00    +0.000 OA
ATOM     18  C   UNL     1      -0.415   8.546  21.887  0.00  0.00    +0.000 C 
ENDBRANCH   6  17
BRANCH   1  19
ATOM     19  C   UNL     1       1.279  10.176  18.068  0.00  0.00    +0.000 C 
BRANCH  19  21
ATOM     20  C   UNL     1      -1.335  10.727  17.974  0.00  0.00    +0.000 C 
ATOM     21  C   UNL     1      -0.163  10.459  18.046  0.00  0.00    +0.000 C 
BRANCH  20  29
ATOM     22  C   UNL     1      -3.404  11.841  18.704  0.00  0.00    +0.000 A 
ATOM     23  N   UNL     1      -4.703  12.170  18.515  0.00  0.00    +0.000 NA
ATOM     24  C   UNL     1      -5.289  11.710  17.404  0.00  0.00    +0.000 A 
ATOM     25  N   UNL     1      -6.613  12.045  17.210  0.00  0.00    +0.000 N 
ATOM     26  N   UNL     1      -4.692  10.976  16.459  0.00  0.00    +0.000 NA
ATOM     27  C   UNL     1      -3.405  10.663  16.659  0.00  0.00    +0.000 A 
ATOM     28  N   UNL     1      -2.776   9.947  15.631  0.00  0.00    +0.000 N 
ATOM     29  C   UNL     1      -2.699  11.091  17.776  0.00  0.00    +0.000 A 
ATOM     30  H   UNL     1      -6.827  12.894  17.714  0.00  0.00    +0.000 HD
ATOM     31  H   UNL     1      -6.834  12.022  16.225  0.00  0.00    +0.000 HD
ATOM     32  H   UNL     1      -3.479   9.628  14.971  0.00  0.00    +0.000 HD
ATOM     33  H   UNL     1      -2.179   9.204  15.974  0.00  0.00    +0.000 HD
BRANCH  22  35
ATOM     34  C   UNL     1      -3.793  12.735  21.019  0.00  0.00    +0.000 C 
ATOM     35  C   UNL     1      -2.759  12.338  19.977  0.00  0.00    +0.000 C 
ENDBRANCH  22  35
ENDBRANCH  20  29
ENDBRANCH  19  21
ENDBRANCH   1  19
TORSDOF 8
ENDMDL
MODEL 3
REMARK VINA RESULT:      -8.5      1.924      2.429
REMARK  Name = 
REMARK  10 active torsions:
REMARK  status: ('A' for Active; 'I' for Inactive)
REMARK    1  A    between atoms: C_1  and  C_2
REMARK    2  A    between atoms: C_2  and  C_3
REMARK    3  A    between atoms: C_10  and  C_11
REMARK    4  A    between atoms: C_12  and  C_13
REMARK    5  A    between atoms: C_13  and  C_14
REMARK    6  A    between atoms: C_16  and  C_17
REMARK    7  A    between atoms: C_21  and  C_22
REMARK    8  A    between atoms: C_22  and  O_24
REMARK    9  A    between atoms: C_28  and  O_29
REMARK   10  A    between atoms: O_29  and  C_30
REMARK                            x       y       z     vdW  Elec       q    Type
REMARK                         _______ _______ _______ _____ _____    ______ ____
ROOT
ATOM      1  C   UNL     1       1.233   9.556  19.530  0.00  0.00    +0.000 A 
ATOM      2  C   UNL     1       2.026   8.499  19.024  0.00  0.00    +0.000 A 
ATOM      3  C   UNL     1       2.195   7.267  19.676  0.00  0.00    +0.000 A 
ATOM      4  C   UNL     1       1.653   7.151  20.957  0.00  0.00    +0.000 A 
ATOM      5  C   UNL     1       0.889   8.185  21.500  0.00  0.00    +0.000 A 
ATOM      6  C   UNL     1       0.659   9.379  20.799  0.00  0.00    +0.000 A 
ENDROOT
BRANCH   3   7
ATOM      7  C   UNL     1       2.733   6.103  18.933  0.00  0.00    +0.000 A 
ATOM      8  C   UNL     1       3.736   6.233  17.953  0.00  0.00    +0.000 A 
ATOM      9  C   UNL     1       4.070   5.168  17.113  0.00  0.00    +0.000 A 
ATOM     10  C   UNL     1       3.419   3.943  17.252  0.00  0.00    +0.000 A 
ATOM     11  C   UNL     1       2.441   3.773  18.232  0.00  0.00    +0.000 A 
ATOM     12  C   UNL     1       2.118   4.842  19.075  0.00  0.00    +0.000 A 
BRANCH  11  13
ATOM     13  C   UNL     1       1.781   2.447  18.348  0.00  0.00    +0.000 C 
ATOM     14  O   UNL     1       0.600   2.335  18.629  0.00  0.00    +0.000 OA
BRANCH  13  15
ATOM     15  O   UNL     1       2.583   1.379  18.160  0.00  0.00    +0.000 OA
ATOM     16  H   UNL     1       3.316   1.259  18.789  0.00  0.00    +0.000 HD
ENDBRANCH  13  15
ENDBRANCH  11  13
ENDBRANCH   3   7
BRANCH   6  17
ATOM     17  O   UNL     1      -0.243  10.172  21.452  0.00  0.00    +0.000 OA
ATOM     18  C   UNL     1      -0.492   9.974  22.831  0.00  0.00    +0.000 C 
ENDBRANCH   6  17
BRANCH   1  19
ATOM     19  C   UNL     1       0.948  10.750  18.637  0.00  0.00    +0.000 C 
BRANCH  19  21
ATOM     20  C   UNL     1      -1.613  11.144  17.980  0.00  0.00    +0.000 C 
ATOM     21  C   UNL     1      -0.453  10.955  18.242  0.00  0.00    +0.000 C 
BRANCH  20  29
ATOM     22  C   UNL     1      -3.620  11.223  16.557  0.00  0.00    +0.000 A 
ATOM     23  N   UNL     1      -4.930  11.506  16.372  0.00  0.00    +0.000 NA
ATOM     24  C   UNL     1      -5.593  12.021  17.413  0.00  0.00    +0.000 A 
ATOM     25  N   UNL     1      -6.929  12.309  17.225  0.00  0.00    +0.000 N 
ATOM     26  N   UNL     1      -5.074  12.255  18.623  0.00  0.00    +0.000 NA
ATOM     27  C   UNL     1      -3.777  11.965  18.792  0.00  0.00    +0.000 A 
ATOM     28  N   UNL     1      -3.264  12.158  20.082  0.00  0.00    +0.000 N 
ATOM     29  C   UNL     1      -2.997  11.424  17.779  0.00  0.00    +0.000 A 
ATOM     30  H   UNL     1      -7.299  11.735  16.481  0.00  0.00    +0.000 HD
ATOM     31  H   UNL     1      -7.413  12.290  18.111  0.00  0.00    +0.000 HD
ATOM     32  H   UNL     1      -3.944  12.666  20.638  0.00  0.00    +0.000 HD
ATOM     33  H   UNL     1      -2.344  12.582  20.083  0.00  0.00    +0.000 HD
BRANCH  22  35
ATOM     34  C   UNL     1      -3.804   9.987  14.378  0.00  0.00    +0.000 C 
ATOM     35  C   UNL     1      -2.872  10.672  15.366  0.00  0.00    +0.000 C 
ENDBRANCH  22  35
ENDBRANCH  20  29
ENDBRANCH  19  21
ENDBRANCH   1  19
TORSDOF 8
ENDMDL
MODEL 4
REMARK VINA RESULT:      -8.3      4.828      8.975
REMARK  Name = 
REMARK  10 active torsions:
REMARK  status: ('A' for Active; 'I' for Inactive)
REMARK    1  A    between atoms: C_1  and  C_2
REMARK    2  A    between atoms: C_2  and  C_3
REMARK    3  A    between atoms: C_10  and  C_11
REMARK    4  A    between atoms: C_12  and  C_13
REMARK    5  A    between atoms: C_13  and  C_14
REMARK    6  A    between atoms: C_16  and  C_17
REMARK    7  A    between atoms: C_21  and  C_22
REMARK    8  A    between atoms: C_22  and  O_24
REMARK    9  A    between atoms: C_28  and  O_29
REMARK   10  A    between atoms: O_29  and  C_30
REMARK                            x       y       z     vdW  Elec       q    Type
REMARK                         _______ _______ _______ _____ _____    ______ ____
ROOT
ATOM      1  C   UNL     1       0.784   9.659  18.747  0.00  0.00    +0.000 A 
ATOM      2  C   UNL     1      -0.359   9.804  17.925  0.00  0.00    +0.000 A 
ATOM      3  C   UNL     1      -1.573  10.357  18.364  0.00  0.00    +0.000 A 
ATOM      4  C   UNL     1      -1.678  10.648  19.725  0.00  0.00    +0.000 A 
ATOM      5  C   UNL     1      -0.580  10.490  20.571  0.00  0.00    +0.000 A 
ATOM      6  C   UNL     1       0.653  10.015  20.099  0.00  0.00    +0.000 A 
ENDROOT
BRANCH   3   7
ATOM      7  C   UNL     1      -2.586  10.799  17.376  0.00  0.00    +0.000 A 
ATOM      8  C   UNL     1      -3.720  11.548  17.743  0.00  0.00    +0.000 A 
ATOM      9  C   UNL     1      -4.767  11.763  16.845  0.00  0.00    +0.000 A 
ATOM     10  C   UNL     1      -4.690  11.250  15.552  0.00  0.00    +0.000 A 
ATOM     11  C   UNL     1      -3.567  10.528  15.147  0.00  0.00    +0.000 A 
ATOM     12  C   UNL     1      -2.518  10.323  16.050  0.00  0.00    +0.000 A 
BRANCH  11  13
ATOM     13  C   UNL     1      -3.525  10.006  13.756  0.00  0.00    +0.000 C 
ATOM     14  O   UNL     1      -4.540   9.769  13.124  0.00  0.00    +0.000 OA
BRANCH  13  15
ATOM     15  O   UNL     1      -2.293   9.777  13.257  0.00  0.00    +0.000 OA
ATOM     16  H   UNL     1      -2.039  10.276  12.460  0.00  0.00    +0.000 HD
ENDBRANCH  13  15
ENDBRANCH  11  13
ENDBRANCH   3   7
BRANCH   6  17
ATOM     17  O   UNL     1       1.619  10.099  21.062  0.00  0.00    +0.000 OA
ATOM     18  C   UNL     1       1.630   9.177  22.136  0.00  0.00    +0.000 C 
ENDBRANCH   6  17
BRANCH   1  19
ATOM     19  C   UNL     1       2.100   9.255  18.106  0.00  0.00    +0.000 C 
BRANCH  19  21
ATOM     20  C   UNL     1       2.912   6.737  18.489  0.00  0.00    +0.000 C 
ATOM     21  C   UNL     1       2.521   7.860  18.294  0.00  0.00    +0.000 C 
BRANCH  20  29
ATOM     22  C   UNL     1       4.327   4.791  17.972  0.00  0.00    +0.000 A 
ATOM     23  N   UNL     1       4.816   3.567  18.278  0.00  0.00    +0.000 NA
ATOM     24  C   UNL     1       4.385   3.009  19.415  0.00  0.00    +0.000 A 
ATOM     25  N   UNL     1       4.885   1.762  19.729  0.00  0.00    +0.000 N 
ATOM     26  N   UNL     1       3.533   3.570  20.280  0.00  0.00    +0.000 NA
ATOM     27  C   UNL     1       3.062   4.783  19.964  0.00  0.00    +0.000 A 
ATOM     28  N   UNL     1       2.218   5.384  20.909  0.00  0.00    +0.000 N 
ATOM     29  C   UNL     1       3.445   5.455  18.810  0.00  0.00    +0.000 A 
ATOM     30  H   UNL     1       5.778   1.629  19.276  0.00  0.00    +0.000 HD
ATOM     31  H   UNL     1       4.843   1.615  20.727  0.00  0.00    +0.000 HD
ATOM     32  H   UNL     1       1.964   4.696  21.612  0.00  0.00    +0.000 HD
ATOM     33  H   UNL     1       1.420   5.846  20.490  0.00  0.00    +0.000 HD
BRANCH  22  35
ATOM     34  C   UNL     1       5.305   4.345  15.701  0.00  0.00    +0.000 C 
ATOM     35  C   UNL     1       4.795   5.400  16.671  0.00  0.00    +0.000 C 
ENDBRANCH  22  35
ENDBRANCH  20  29
ENDBRANCH  19  21
ENDBRANCH   1  19
TORSDOF 8
ENDMDL
MODEL 5
REMARK VINA RESULT:      -8.2      5.033      8.928
REMARK  Name = 
REMARK  10 active torsions:
REMARK  status: ('A' for Active; 'I' for Inactive)
REMARK    1  A    between atoms: C_1  and  C_2
REMARK    2  A    between atoms: C_2  and  C_3
REMARK    3  A    between atoms: C_10  and  C_11
REMARK    4  A    between atoms: C_12  and  C_13
REMARK    5  A    between atoms: C_13  and  C_14
REMARK    6  A    between atoms: C_16  and  C_17
REMARK    7  A    between atoms: C_21  and  C_22
REMARK    8  A    between atoms: C_22  and  O_24
REMARK    9  A    between atoms: C_28  and  O_29
REMARK   10  A    between atoms: O_29  and  C_30
REMARK                            x       y       z     vdW  Elec       q    Type
REMARK                         _______ _______ _______ _____ _____    ______ ____
ROOT
ATOM      1  C   UNL     1       0.965   9.316  18.627  0.00  0.00    +0.000 A 
ATOM      2  C   UNL     1      -0.171   9.543  17.814  0.00  0.00    +0.000 A 
ATOM      3  C   UNL     1      -1.390  10.048  18.297  0.00  0.00    +0.000 A 
ATOM      4  C   UNL     1      -1.507  10.197  19.680  0.00  0.00    +0.000 A 
ATOM      5  C   UNL     1      -0.416   9.954  20.515  0.00  0.00    +0.000 A 
ATOM      6  C   UNL     1       0.822   9.531  20.007  0.00  0.00    +0.000 A 
ENDROOT
BRANCH   3   7
ATOM      7  C   UNL     1      -2.395  10.588  17.351  0.00  0.00    +0.000 A 
ATOM      8  C   UNL     1      -3.465  11.401  17.772  0.00  0.00    +0.000 A 
ATOM      9  C   UNL     1      -4.518  11.714  16.910  0.00  0.00    +0.000 A 
ATOM     10  C   UNL     1      -4.509  11.237  15.600  0.00  0.00    +0.000 A 
ATOM     11  C   UNL     1      -3.449  10.453  15.144  0.00  0.00    +0.000 A 
ATOM     12  C   UNL     1      -2.394  10.150  16.010  0.00  0.00    +0.000 A 
BRANCH  11  13
ATOM     13  C   UNL     1      -3.479   9.974  13.737  0.00  0.00    +0.000 C 
ATOM     14  O   UNL     1      -4.525   9.803  13.135  0.00  0.00    +0.000 OA
BRANCH  13  15
ATOM     15  O   UNL     1      -2.277   9.705  13.188  0.00  0.00    +0.000 OA
ATOM     16  H   UNL     1      -2.199   9.805  12.223  0.00  0.00    +0.000 HD
ENDBRANCH  13  15
ENDBRANCH  11  13
ENDBRANCH   3   7
BRANCH   6  17
ATOM     17  O   UNL     1       1.780   9.516  20.982  0.00  0.00    +0.000 OA
ATOM     18  C   UNL     1       1.439   9.144  22.304  0.00  0.00    +0.000 C 
ENDBRANCH   6  17
BRANCH   1  19
ATOM     19  C   UNL     1       2.287   8.981  17.960  0.00  0.00    +0.000 C 
BRANCH  19  21
ATOM     20  C   UNL     1       2.968   6.397  18.016  0.00  0.00    +0.000 C 
ATOM     21  C   UNL     1       2.695   7.569  17.982  0.00  0.00    +0.000 C 
BRANCH  20  29
ATOM     22  C   UNL     1       2.434   4.166  18.909  0.00  0.00    +0.000 A 
ATOM     23  N   UNL     1       2.644   2.830  18.962  0.00  0.00    +0.000 NA
ATOM     24  C   UNL     1       3.618   2.338  18.190  0.00  0.00    +0.000 A 
ATOM     25  N   UNL     1       3.831   0.976  18.242  0.00  0.00    +0.000 N 
ATOM     26  N   UNL     1       4.382   3.051  17.355  0.00  0.00    +0.000 NA
ATOM     27  C   UNL     1       4.159   4.371  17.310  0.00  0.00    +0.000 A 
ATOM     28  N   UNL     1       4.924   5.096  16.386  0.00  0.00    +0.000 N 
ATOM     29  C   UNL     1       3.171   4.987  18.068  0.00  0.00    +0.000 A 
ATOM     30  H   UNL     1       2.986   0.511  18.542  0.00  0.00    +0.000 HD
ATOM     31  H   UNL     1       4.256   0.660  17.383  0.00  0.00    +0.000 HD
ATOM     32  H   UNL     1       5.662   4.499  16.026  0.00  0.00    +0.000 HD
ATOM     33  H   UNL     1       5.263   5.976  16.757  0.00  0.00    +0.000 HD
BRANCH  22  35
ATOM     34  C   UNL     1       1.933   5.422  21.026  0.00  0.00    +0.000 C 
ATOM     35  C   UNL     1       1.354   4.718  19.809  0.00  0.00    +0.000 C 
ENDBRANCH  22  35
ENDBRANCH  20  29
ENDBRANCH  19  21
ENDBRANCH   1  19
TORSDOF 8
ENDMDL
MODEL 6
REMARK VINA RESULT:      -8.2      1.811      2.973
REMARK  Name = 
REMARK  10 active torsions:
REMARK  status: ('A' for Active; 'I' for Inactive)
REMARK    1  A    between atoms: C_1  and  C_2
REMARK    2  A    between atoms: C_2  and  C_3
REMARK    3  A    between atoms: C_10  and  C_11
REMARK    4  A    between atoms: C_12  and  C_13
REMARK    5  A    between atoms: C_13  and  C_14
REMARK    6  A    between atoms: C_16  and  C_17
REMARK    7  A    between atoms: C_21  and  C_22
REMARK    8  A    between atoms: C_22  and  O_24
REMARK    9  A    between atoms: C_28  and  O_29
REMARK   10  A    between atoms: O_29  and  C_30
REMARK                            x       y       z     vdW  Elec       q    Type
REMARK                         _______ _______ _______ _____ _____    ______ ____
ROOT
ATOM      1  C   UNL     1       1.472   9.076  19.104  0.00  0.00    +0.000 A 
ATOM      2  C   UNL     1       2.356   8.095  18.595  0.00  0.00    +0.000 A 
ATOM      3  C   UNL     1       2.642   6.885  19.249  0.00  0.00    +0.000 A 
ATOM      4  C   UNL     1       2.119   6.723  20.532  0.00  0.00    +0.000 A 
ATOM      5  C   UNL     1       1.267   7.682  21.078  0.00  0.00    +0.000 A 
ATOM      6  C   UNL     1       0.923   8.849  20.376  0.00  0.00    +0.000 A 
ENDROOT
BRANCH   3   7
ATOM      7  C   UNL     1       3.281   5.775  18.504  0.00  0.00    +0.000 A 
ATOM      8  C   UNL     1       4.110   5.995  17.387  0.00  0.00    +0.000 A 
ATOM      9  C   UNL     1       4.520   4.939  16.571  0.00  0.00    +0.000 A 
ATOM     10  C   UNL     1       4.125   3.636  16.869  0.00  0.00    +0.000 A 
ATOM     11  C   UNL     1       3.328   3.381  17.985  0.00  0.00    +0.000 A 
ATOM     12  C   UNL     1       2.928   4.442  18.803  0.00  0.00    +0.000 A 
BRANCH  11  13
ATOM     13  C   UNL     1       2.938   1.975  18.268  0.00  0.00    +0.000 C 
ATOM     14  O   UNL     1       3.765   1.102  18.467  0.00  0.00    +0.000 OA
BRANCH  13  15
ATOM     15  O   UNL     1       1.613   1.723  18.250  0.00  0.00    +0.000 OA
ATOM     16  H   UNL     1       1.076   2.131  18.952  0.00  0.00    +0.000 HD
ENDBRANCH  13  15
ENDBRANCH  11  13
ENDBRANCH   3   7
BRANCH   6  17
ATOM     17  O   UNL     1      -0.045   9.556  21.032  0.00  0.00    +0.000 OA
ATOM     18  C   UNL     1      -0.401   9.208  22.358  0.00  0.00    +0.000 C 
ENDBRANCH   6  17
BRANCH   1  19
ATOM     19  C   UNL     1       1.073  10.236  18.210  0.00  0.00    +0.000 C 
BRANCH  19  21
ATOM     20  C   UNL     1      -1.525  10.836  18.025  0.00  0.00    +0.000 C 
ATOM     21  C   UNL     1      -0.362  10.546  18.137  0.00  0.00    +0.000 C 
BRANCH  20  29
ATOM     22  C   UNL     1      -3.630  11.899  18.731  0.00  0.00    +0.000 A 
ATOM     23  N   UNL     1      -4.914  12.255  18.497  0.00  0.00    +0.000 NA
ATOM     24  C   UNL     1      -5.435  11.903  17.317  0.00  0.00    +0.000 A 
ATOM     25  N   UNL     1      -6.744  12.267  17.076  0.00  0.00    +0.000 N 
ATOM     26  N   UNL     1      -4.786  11.252  16.345  0.00  0.00    +0.000 NA
ATOM     27  C   UNL     1      -3.514  10.911  16.591  0.00  0.00    +0.000 A 
ATOM     28  N   UNL     1      -2.829  10.284  15.541  0.00  0.00    +0.000 N 
ATOM     29  C   UNL     1      -2.874  11.229  17.782  0.00  0.00    +0.000 A 
ATOM     30  H   UNL     1      -6.984  13.068  17.643  0.00  0.00    +0.000 HD
ATOM     31  H   UNL     1      -6.906  12.335  16.082  0.00  0.00    +0.000 HD
ATOM     32  H   UNL     1      -3.492  10.033  14.815  0.00  0.00    +0.000 HD
ATOM     33  H   UNL     1      -2.255   9.508  15.850  0.00  0.00    +0.000 HD
BRANCH  22  35
ATOM     34  C   UNL     1      -3.909  13.318  20.785  0.00  0.00    +0.000 C 
ATOM     35  C   UNL     1      -3.059  12.273  20.079  0.00  0.00    +0.000 C 
ENDBRANCH  22  35
ENDBRANCH  20  29
ENDBRANCH  19  21
ENDBRANCH   1  19
TORSDOF 8
ENDMDL
MODEL 7
REMARK VINA RESULT:      -8.2      3.795      5.316
REMARK  Name = 
REMARK  10 active torsions:
REMARK  status: ('A' for Active; 'I' for Inactive)
REMARK    1  A    between atoms: C_1  and  C_2
REMARK    2  A    between atoms: C_2  and  C_3
REMARK    3  A    between atoms: C_10  and  C_11
REMARK    4  A    between atoms: C_12  and  C_13
REMARK    5  A    between atoms: C_13  and  C_14
REMARK    6  A    between atoms: C_16  and  C_17
REMARK    7  A    between atoms: C_21  and  C_22
REMARK    8  A    between atoms: C_22  and  O_24
REMARK    9  A    between atoms: C_28  and  O_29
REMARK   10  A    between atoms: O_29  and  C_30
REMARK                            x       y       z     vdW  Elec       q    Type
REMARK                         _______ _______ _______ _____ _____    ______ ____
ROOT
ATOM      1  C   UNL     1       2.876   4.019  20.241  0.00  0.00    +0.000 A 
ATOM      2  C   UNL     1       4.091   4.514  19.711  0.00  0.00    +0.000 A 
ATOM      3  C   UNL     1       4.780   3.917  18.642  0.00  0.00    +0.000 A 
ATOM      4  C   UNL     1       4.290   2.694  18.181  0.00  0.00    +0.000 A 
ATOM      5  C   UNL     1       3.110   2.162  18.699  0.00  0.00    +0.000 A 
ATOM      6  C   UNL     1       2.388   2.814  19.711  0.00  0.00    +0.000 A 
ENDROOT
BRANCH   3   7
ATOM      7  C   UNL     1       5.830   4.675  17.922  0.00  0.00    +0.000 A 
ATOM      8  C   UNL     1       6.490   5.779  18.497  0.00  0.00    +0.000 A 
ATOM      9  C   UNL     1       7.310   6.611  17.731  0.00  0.00    +0.000 A 
ATOM     10  C   UNL     1       7.504   6.340  16.377  0.00  0.00    +0.000 A 
ATOM     11  C   UNL     1       6.887   5.238  15.785  0.00  0.00    +0.000 A 
ATOM     12  C   UNL     1       6.074   4.405  16.560  0.00  0.00    +0.000 A 
BRANCH  11  13
ATOM     13  C   UNL     1       7.129   4.985  14.340  0.00  0.00    +0.000 C 
ATOM     14  O   UNL     1       6.479   4.172  13.708  0.00  0.00    +0.000 OA
BRANCH  13  15
ATOM     15  O   UNL     1       8.140   5.688  13.788  0.00  0.00    +0.000 OA
ATOM     16  H   UNL     1       8.468   5.386  12.923  0.00  0.00    +0.000 HD
ENDBRANCH  13  15
ENDBRANCH  11  13
ENDBRANCH   3   7
BRANCH   6  17
ATOM     17  O   UNL     1       1.191   2.197  19.943  0.00  0.00    +0.000 OA
ATOM     18  C   UNL     1       0.279   1.995  18.878  0.00  0.00    +0.000 C 
ENDBRANCH   6  17
BRANCH   1  19
ATOM     19  C   UNL     1       2.115   4.867  21.243  0.00  0.00    +0.000 C 
BRANCH  19  21
ATOM     20  C   UNL     1       1.580   7.363  20.449  0.00  0.00    +0.000 C 
ATOM     21  C   UNL     1       1.796   6.242  20.833  0.00  0.00    +0.000 C 
BRANCH  20  29
ATOM     22  C   UNL     1       1.649   8.943  18.563  0.00  0.00    +0.000 A 
ATOM     23  N   UNL     1       1.486  10.185  18.052  0.00  0.00    +0.000 NA
ATOM     24  C   UNL     1       1.101  11.144  18.900  0.00  0.00    +0.000 A 
ATOM     25  N   UNL     1       0.932  12.411  18.380  0.00  0.00    +0.000 N 
ATOM     26  N   UNL     1       0.841  10.971  20.201  0.00  0.00    +0.000 NA
ATOM     27  C   UNL     1       1.002   9.734  20.690  0.00  0.00    +0.000 A 
ATOM     28  N   UNL     1       0.667   9.556  22.040  0.00  0.00    +0.000 N 
ATOM     29  C   UNL     1       1.396   8.664  19.897  0.00  0.00    +0.000 A 
ATOM     30  H   UNL     1       0.742  12.349  17.390  0.00  0.00    +0.000 HD
ATOM     31  H   UNL     1       0.281  12.933  18.947  0.00  0.00    +0.000 HD
ATOM     32  H   UNL     1       0.523  10.464  22.469  0.00  0.00    +0.000 HD
ATOM     33  H   UNL     1       1.330   8.974  22.539  0.00  0.00    +0.000 HD
BRANCH  22  35
ATOM     34  C   UNL     1       3.629   7.718  17.619  0.00  0.00    +0.000 C 
ATOM     35  C   UNL     1       2.116   7.873  17.604  0.00  0.00    +0.000 C 
ENDBRANCH  22  35
ENDBRANCH  20  29
ENDBRANCH  19  21
ENDBRANCH   1  19
TORSDOF 8
ENDMDL
MODEL 8
REMARK VINA RESULT:      -8.1      2.190      3.329
REMARK  Name = 
REMARK  10 active torsions:
REMARK  status: ('A' for Active; 'I' for Inactive)
REMARK    1  A    between atoms: C_1  and  C_2
REMARK    2  A    between atoms: C_2  and  C_3
REMARK    3  A    between atoms: C_10  and  C_11
REMARK    4  A    between atoms: C_12  and  C_13
REMARK    5  A    between atoms: C_13  and  C_14
REMARK    6  A    between atoms: C_16  and  C_17
REMARK    7  A    between atoms: C_21  and  C_22
REMARK    8  A    between atoms: C_22  and  O_24
REMARK    9  A    between atoms: C_28  and  O_29
REMARK   10  A    between atoms: O_29  and  C_30
REMARK                            x       y       z     vdW  Elec       q    Type
REMARK                         _______ _______ _______ _____ _____    ______ ____
ROOT
ATOM      1  C   UNL     1       1.047   9.596  19.408  0.00  0.00    +0.000 A 
ATOM      2  C   UNL     1       1.832   8.521  18.928  0.00  0.00    +0.000 A 
ATOM      3  C   UNL     1       2.066   7.339  19.652  0.00  0.00    +0.000 A 
ATOM      4  C   UNL     1       1.601   7.303  20.967  0.00  0.00    +0.000 A 
ATOM      5  C   UNL     1       0.847   8.357  21.483  0.00  0.00    +0.000 A 
ATOM      6  C   UNL     1       0.550   9.496  20.717  0.00  0.00    +0.000 A 
ENDROOT
BRANCH   3   7
ATOM      7  C   UNL     1       2.586   6.137  18.958  0.00  0.00    +0.000 A 
ATOM      8  C   UNL     1       3.618   6.205  18.003  0.00  0.00    +0.000 A 
ATOM      9  C   UNL     1       3.940   5.106  17.205  0.00  0.00    +0.000 A 
ATOM     10  C   UNL     1       3.248   3.906  17.363  0.00  0.00    +0.000 A 
ATOM     11  C   UNL     1       2.239   3.797  18.321  0.00  0.00    +0.000 A 
ATOM     12  C   UNL     1       1.928   4.900  19.122  0.00  0.00    +0.000 A 
BRANCH  11  13
ATOM     13  C   UNL     1       1.534   2.496  18.459  0.00  0.00    +0.000 C 
ATOM     14  O   UNL     1       0.320   2.423  18.527  0.00  0.00    +0.000 OA
BRANCH  13  15
ATOM     15  O   UNL     1       2.329   1.409  18.541  0.00  0.00    +0.000 OA
ATOM     16  H   UNL     1       1.966   0.629  18.996  0.00  0.00    +0.000 HD
ENDBRANCH  13  15
ENDBRANCH  11  13
ENDBRANCH   3   7
BRANCH   6  17
ATOM     17  O   UNL     1      -0.330  10.315  21.366  0.00  0.00    +0.000 OA
ATOM     18  C   UNL     1      -0.531  10.176  22.761  0.00  0.00    +0.000 C 
ENDBRANCH   6  17
BRANCH   1  19
ATOM     19  C   UNL     1       0.684  10.720  18.454  0.00  0.00    +0.000 C 
BRANCH  19  21
ATOM     20  C   UNL     1      -1.925  11.248  18.214  0.00  0.00    +0.000 C 
ATOM     21  C   UNL     1      -0.748  11.002  18.287  0.00  0.00    +0.000 C 
BRANCH  20  29
ATOM     22  C   UNL     1      -3.888  12.241  19.317  0.00  0.00    +0.000 A 
ATOM     23  N   UNL     1      -5.208  12.539  19.343  0.00  0.00    +0.000 NA
ATOM     24  C   UNL     1      -5.941  12.139  18.299  0.00  0.00    +0.000 A 
ATOM     25  N   UNL     1      -7.286  12.444  18.324  0.00  0.00    +0.000 N 
ATOM     26  N   UNL     1      -5.473  11.493  17.225  0.00  0.00    +0.000 NA
ATOM     27  C   UNL     1      -4.164  11.209  17.213  0.00  0.00    +0.000 A 
ATOM     28  N   UNL     1      -3.678  10.587  16.054  0.00  0.00    +0.000 N 
ATOM     29  C   UNL     1      -3.311  11.581  18.244  0.00  0.00    +0.000 A 
ATOM     30  H   UNL     1      -7.441  13.248  18.915  0.00  0.00    +0.000 HD
ATOM     31  H   UNL     1      -7.648  12.482  17.382  0.00  0.00    +0.000 HD
ATOM     32  H   UNL     1      -4.462  10.292  15.481  0.00  0.00    +0.000 HD
ATOM     33  H   UNL     1      -3.020   9.842  16.251  0.00  0.00    +0.000 HD
BRANCH  22  35
ATOM     34  C   UNL     1      -3.904  12.677  21.791  0.00  0.00    +0.000 C 
ATOM     35  C   UNL     1      -3.074  12.668  20.516  0.00  0.00    +0.000 C 
ENDBRANCH  22  35
ENDBRANCH  20  29
ENDBRANCH  19  21
ENDBRANCH   1  19
TORSDOF 8
ENDMDL
MODEL 9
REMARK VINA RESULT:      -8.1      4.639      9.193
REMARK  Name = 
REMARK  10 active torsions:
REMARK  status: ('A' for Active; 'I' for Inactive)
REMARK    1  A    between atoms: C_1  and  C_2
REMARK    2  A    between atoms: C_2  and  C_3
REMARK    3  A    between atoms: C_10  and  C_11
REMARK    4  A    between atoms: C_12  and  C_13
REMARK    5  A    between atoms: C_13  and  C_14
REMARK    6  A    between atoms: C_16  and  C_17
REMARK    7  A    between atoms: C_21  and  C_22
REMARK    8  A    between atoms: C_22  and  O_24
REMARK    9  A    between atoms: C_28  and  O_29
REMARK   10  A    between atoms: O_29  and  C_30
REMARK                            x       y       z     vdW  Elec       q    Type
REMARK                         _______ _______ _______ _____ _____    ______ ____
ROOT
ATOM      1  C   UNL     1       0.390  10.630  20.718  0.00  0.00    +0.000 A 
ATOM      2  C   UNL     1      -0.796  10.457  19.966  0.00  0.00    +0.000 A 
ATOM      3  C   UNL     1      -1.326  11.433  19.105  0.00  0.00    +0.000 A 
ATOM      4  C   UNL     1      -0.705  12.683  19.110  0.00  0.00    +0.000 A 
ATOM      5  C   UNL     1       0.450  12.898  19.861  0.00  0.00    +0.000 A 
ATOM      6  C   UNL     1       1.016  11.885  20.652  0.00  0.00    +0.000 A 
ENDROOT
BRANCH   3   7
ATOM      7  C   UNL     1      -2.348  11.057  18.100  0.00  0.00    +0.000 A 
ATOM      8  C   UNL     1      -2.037  10.295  16.957  0.00  0.00    +0.000 A 
ATOM      9  C   UNL     1      -2.957  10.141  15.918  0.00  0.00    +0.000 A 
ATOM     10  C   UNL     1      -4.217  10.729  16.012  0.00  0.00    +0.000 A 
ATOM     11  C   UNL     1      -4.567  11.466  17.144  0.00  0.00    +0.000 A 
ATOM     12  C   UNL     1      -3.643  11.609  18.185  0.00  0.00    +0.000 A 
BRANCH  11  13
ATOM     13  C   UNL     1      -5.924  12.068  17.203  0.00  0.00    +0.000 C 
ATOM     14  O   UNL     1      -6.131  13.229  16.894  0.00  0.00    +0.000 OA
BRANCH  13  15
ATOM     15  O   UNL     1      -6.901  11.257  17.656  0.00  0.00    +0.000 OA
ATOM     16  H   UNL     1      -7.386  10.734  16.993  0.00  0.00    +0.000 HD
ENDBRANCH  13  15
ENDBRANCH  11  13
ENDBRANCH   3   7
BRANCH   6  17
ATOM     17  O   UNL     1       2.224  12.270  21.163  0.00  0.00    +0.000 OA
ATOM     18  C   UNL     1       2.658  13.610  21.022  0.00  0.00    +0.000 C 
ENDBRANCH   6  17
BRANCH   1  19
ATOM     19  C   UNL     1       0.981   9.432  21.438  0.00  0.00    +0.000 C 
BRANCH  19  21
ATOM     20  C   UNL     1       2.027   7.480  19.941  0.00  0.00    +0.000 C 
ATOM     21  C   UNL     1       1.528   8.361  20.593  0.00  0.00    +0.000 C 
BRANCH  20  29
ATOM     22  C   UNL     1       2.724   5.127  19.750  0.00  0.00    +0.000 A 
ATOM     23  N   UNL     1       3.379   4.134  19.105  0.00  0.00    +0.000 NA
ATOM     24  C   UNL     1       4.032   4.466  17.987  0.00  0.00    +0.000 A 
ATOM     25  N   UNL     1       4.699   3.453  17.327  0.00  0.00    +0.000 N 
ATOM     26  N   UNL     1       4.071   5.687  17.444  0.00  0.00    +0.000 NA
ATOM     27  C   UNL     1       3.414   6.658  18.092  0.00  0.00    +0.000 A 
ATOM     28  N   UNL     1       3.412   7.919  17.478  0.00  0.00    +0.000 N 
ATOM     29  C   UNL     1       2.701   6.424  19.260  0.00  0.00    +0.000 A 
ATOM     30  H   UNL     1       4.279   2.564  17.556  0.00  0.00    +0.000 HD
ATOM     31  H   UNL     1       4.795   3.684  16.349  0.00  0.00    +0.000 HD
ATOM     32  H   UNL     1       4.079   7.917  16.713  0.00  0.00    +0.000 HD
ATOM     33  H   UNL     1       3.553   8.678  18.134  0.00  0.00    +0.000 HD
BRANCH  22  35
ATOM     34  C   UNL     1       1.222   3.462  20.881  0.00  0.00    +0.000 C 
ATOM     35  C   UNL     1       2.016   4.750  21.031  0.00  0.00    +0.000 C 
ENDBRANCH  22  35
ENDBRANCH  20  29
ENDBRANCH  19  21
ENDBRANCH   1  19
TORSDOF 8
ENDMDL
