MODEL 1
REMARK VINA RESULT:      -6.1      0.000      0.000
REMARK  Name = 
REMARK  3 active torsions:
REMARK  status: ('A' for Active; 'I' for Inactive)
REMARK    1  A    between atoms: C_1  and  C_2
REMARK    2  A    between atoms: N_6  and  C_7
REMARK    3  A    between atoms: N_14  and  C_15
REMARK                            x       y       z     vdW  Elec       q    Type
REMARK                         _______ _______ _______ _____ _____    ______ ____
ROOT
ATOM      1  C   UNL     1       3.951   3.938  19.736  0.00  0.00    +0.000 C 
ATOM      2  C   UNL     1       5.100   4.290  18.785  0.00  0.00    +0.000 C 
ATOM      3  C   UNL     1       6.047   5.261  19.463  0.00  0.00    +0.000 C 
ATOM      4  C   UNL     1       7.365   5.355  18.748  0.00  0.00    +0.000 C 
ATOM      5  O   UNL     1       8.418   5.093  19.333  0.00  0.00    +0.000 OA
ATOM      6  N   UNL     1       7.370   5.932  17.496  0.00  0.00    +0.000 N 
ATOM      7  C   UNL     1       7.433   7.384  17.457  0.00  0.00    +0.000 C 
ATOM      8  C   UNL     1       6.723   5.321  16.387  0.00  0.00    +0.000 A 
ATOM      9  C   UNL     1       7.478   5.265  15.194  0.00  0.00    +0.000 A 
ATOM     10  C   UNL     1       6.972   4.652  14.053  0.00  0.00    +0.000 A 
ATOM     11  C   UNL     1       5.690   4.122  14.070  0.00  0.00    +0.000 A 
ATOM     12  C   UNL     1       4.922   4.204  15.233  0.00  0.00    +0.000 A 
ATOM     13  C   UNL     1       5.421   4.781  16.415  0.00  0.00    +0.000 A 
ATOM     14  N   UNL     1       4.571   4.803  17.520  0.00  0.00    +0.000 N 
ATOM     15  C   UNL     1       3.505   5.799  17.490  0.00  0.00    +0.000 C 
ENDROOT
TORSDOF 0
ENDMDL
MODEL 2
REMARK VINA RESULT:      -6.0      2.832      4.996
REMARK  Name = 
REMARK  3 active torsions:
REMARK  status: ('A' for Active; 'I' for Inactive)
REMARK    1  A    between atoms: C_1  and  C_2
REMARK    2  A    between atoms: N_6  and  C_7
REMARK    3  A    between atoms: N_14  and  C_15
REMARK                            x       y       z     vdW  Elec       q    Type
REMARK                         _______ _______ _______ _____ _____    ______ ____
ROOT
ATOM      1  C   UNL     1       5.960   6.194  16.198  0.00  0.00    +0.000 C 
ATOM      2  C   UNL     1       4.607   5.895  16.852  0.00  0.00    +0.000 C 
ATOM      3  C   UNL     1       4.137   7.104  17.636  0.00  0.00    +0.000 C 
ATOM      4  C   UNL     1       2.678   7.020  17.984  0.00  0.00    +0.000 C 
ATOM      5  O   UNL     1       1.892   7.894  17.615  0.00  0.00    +0.000 OA
ATOM      6  N   UNL     1       2.294   6.051  18.887  0.00  0.00    +0.000 N 
ATOM      7  C   UNL     1       2.440   6.389  20.293  0.00  0.00    +0.000 C 
ATOM      8  C   UNL     1       2.383   4.665  18.582  0.00  0.00    +0.000 A 
ATOM      9  C   UNL     1       1.240   3.897  18.894  0.00  0.00    +0.000 A 
ATOM     10  C   UNL     1       1.186   2.538  18.602  0.00  0.00    +0.000 A 
ATOM     11  C   UNL     1       2.288   1.915  18.032  0.00  0.00    +0.000 A 
ATOM     12  C   UNL     1       3.436   2.658  17.753  0.00  0.00    +0.000 A 
ATOM     13  C   UNL     1       3.505   4.042  17.999  0.00  0.00    +0.000 A 
ATOM     14  N   UNL     1       4.698   4.686  17.674  0.00  0.00    +0.000 N 
ATOM     15  C   UNL     1       5.812   4.473  18.591  0.00  0.00    +0.000 C 
ENDROOT
TORSDOF 0
ENDMDL
MODEL 3
REMARK VINA RESULT:      -5.8      1.688      2.193
REMARK  Name = 
REMARK  3 active torsions:
REMARK  status: ('A' for Active; 'I' for Inactive)
REMARK    1  A    between atoms: C_1  and  C_2
REMARK    2  A    between atoms: N_6  and  C_7
REMARK    3  A    between atoms: N_14  and  C_15
REMARK                            x       y       z     vdW  Elec       q    Type
REMARK                         _______ _______ _______ _____ _____    ______ ____
ROOT
ATOM      1  C   UNL     1       1.665   5.480  18.300  0.00  0.00    +0.000 C 
ATOM      2  C   UNL     1       3.106   4.999  18.095  0.00  0.00    +0.000 C 
ATOM      3  C   UNL     1       3.765   4.763  19.440  0.00  0.00    +0.000 C 
ATOM      4  C   UNL     1       5.021   3.950  19.317  0.00  0.00    +0.000 C 
ATOM      5  O   UNL     1       5.140   2.880  19.918  0.00  0.00    +0.000 OA
ATOM      6  N   UNL     1       6.097   4.533  18.681  0.00  0.00    +0.000 N 
ATOM      7  C   UNL     1       6.934   5.398  19.497  0.00  0.00    +0.000 C 
ATOM      8  C   UNL     1       6.070   4.844  17.294  0.00  0.00    +0.000 A 
ATOM      9  C   UNL     1       7.209   4.451  16.558  0.00  0.00    +0.000 A 
ATOM     10  C   UNL     1       7.283   4.659  15.184  0.00  0.00    +0.000 A 
ATOM     11  C   UNL     1       6.239   5.300  14.531  0.00  0.00    +0.000 A 
ATOM     12  C   UNL     1       5.124   5.724  15.256  0.00  0.00    +0.000 A 
ATOM     13  C   UNL     1       5.003   5.491  16.639  0.00  0.00    +0.000 A 
ATOM     14  N   UNL     1       3.843   5.950  17.261  0.00  0.00    +0.000 N 
ATOM     15  C   UNL     1       3.771   7.388  17.502  0.00  0.00    +0.000 C 
ENDROOT
TORSDOF 0
ENDMDL
MODEL 4
REMARK VINA RESULT:      -5.7      2.650      3.864
REMARK  Name = 
REMARK  3 active torsions:
REMARK  status: ('A' for Active; 'I' for Inactive)
REMARK    1  A    between atoms: C_1  and  C_2
REMARK    2  A    between atoms: N_6  and  C_7
REMARK    3  A    between atoms: N_14  and  C_15
REMARK                            x       y       z     vdW  Elec       q    Type
REMARK                         _______ _______ _______ _____ _____    ______ ____
ROOT
ATOM      1  C   UNL     1       2.264   4.737  20.033  0.00  0.00    +0.000 C 
ATOM      2  C   UNL     1       3.288   5.614  19.304  0.00  0.00    +0.000 C 
ATOM      3  C   UNL     1       2.673   6.175  18.037  0.00  0.00    +0.000 C 
ATOM      4  C   UNL     1       3.472   7.318  17.480  0.00  0.00    +0.000 C 
ATOM      5  O   UNL     1       2.959   8.428  17.323  0.00  0.00    +0.000 OA
ATOM      6  N   UNL     1       4.722   7.032  16.971  0.00  0.00    +0.000 N 
ATOM      7  C   UNL     1       4.762   6.553  15.599  0.00  0.00    +0.000 C 
ATOM      8  C   UNL     1       5.787   6.590  17.802  0.00  0.00    +0.000 A 
ATOM      9  C   UNL     1       7.026   7.237  17.604  0.00  0.00    +0.000 A 
ATOM     10  C   UNL     1       8.133   6.924  18.386  0.00  0.00    +0.000 A 
ATOM     11  C   UNL     1       8.032   5.931  19.351  0.00  0.00    +0.000 A 
ATOM     12  C   UNL     1       6.821   5.260  19.531  0.00  0.00    +0.000 A 
ATOM     13  C   UNL     1       5.673   5.584  18.783  0.00  0.00    +0.000 A 
ATOM     14  N   UNL     1       4.515   4.856  19.052  0.00  0.00    +0.000 N 
ATOM     15  C   UNL     1       4.473   3.498  18.519  0.00  0.00    +0.000 C 
ENDROOT
TORSDOF 0
ENDMDL
MODEL 5
REMARK VINA RESULT:      -5.6      2.898      5.145
REMARK  Name = 
REMARK  3 active torsions:
REMARK  status: ('A' for Active; 'I' for Inactive)
REMARK    1  A    between atoms: C_1  and  C_2
REMARK    2  A    between atoms: N_6  and  C_7
REMARK    3  A    between atoms: N_14  and  C_15
REMARK                            x       y       z     vdW  Elec       q    Type
REMARK                         _______ _______ _______ _____ _____    ______ ____
ROOT
ATOM      1  C   UNL     1       2.529   7.759  18.055  0.00  0.00    +0.000 C 
ATOM      2  C   UNL     1       3.095   6.519  18.756  0.00  0.00    +0.000 C 
ATOM      3  C   UNL     1       4.406   6.118  18.109  0.00  0.00    +0.000 C 
ATOM      4  C   UNL     1       5.187   5.162  18.964  0.00  0.00    +0.000 C 
ATOM      5  O   UNL     1       6.326   5.441  19.342  0.00  0.00    +0.000 OA
ATOM      6  N   UNL     1       4.670   3.895  19.139  0.00  0.00    +0.000 N 
ATOM      7  C   UNL     1       4.959   2.933  18.088  0.00  0.00    +0.000 C 
ATOM      8  C   UNL     1       3.462   3.671  19.854  0.00  0.00    +0.000 A 
ATOM      9  C   UNL     1       3.501   2.630  20.808  0.00  0.00    +0.000 A 
ATOM     10  C   UNL     1       2.396   2.343  21.603  0.00  0.00    +0.000 A 
ATOM     11  C   UNL     1       1.222   3.063  21.431  0.00  0.00    +0.000 A 
ATOM     12  C   UNL     1       1.162   4.070  20.467  0.00  0.00    +0.000 A 
ATOM     13  C   UNL     1       2.275   4.411  19.676  0.00  0.00    +0.000 A 
ATOM     14  N   UNL     1       2.105   5.439  18.750  0.00  0.00    +0.000 N 
ATOM     15  C   UNL     1       1.359   5.098  17.543  0.00  0.00    +0.000 C 
ENDROOT
TORSDOF 0
ENDMDL
MODEL 6
REMARK VINA RESULT:      -5.5      1.739      4.009
REMARK  Name = 
REMARK  3 active torsions:
REMARK  status: ('A' for Active; 'I' for Inactive)
REMARK    1  A    between atoms: C_1  and  C_2
REMARK    2  A    between atoms: N_6  and  C_7
REMARK    3  A    between atoms: N_14  and  C_15
REMARK                            x       y       z     vdW  Elec       q    Type
REMARK                         _______ _______ _______ _____ _____    ______ ____
ROOT
ATOM      1  C   UNL     1       5.876   4.249  14.106  0.00  0.00    +0.000 C 
ATOM      2  C   UNL     1       5.531   4.957  15.421  0.00  0.00    +0.000 C 
ATOM      3  C   UNL     1       6.798   5.482  16.068  0.00  0.00    +0.000 C 
ATOM      4  C   UNL     1       6.506   6.490  17.142  0.00  0.00    +0.000 C 
ATOM      5  O   UNL     1       6.965   7.631  17.076  0.00  0.00    +0.000 OA
ATOM      6  N   UNL     1       5.883   6.038  18.287  0.00  0.00    +0.000 N 
ATOM      7  C   UNL     1       6.747   5.454  19.301  0.00  0.00    +0.000 C 
ATOM      8  C   UNL     1       4.547   5.551  18.272  0.00  0.00    +0.000 A 
ATOM      9  C   UNL     1       3.704   6.049  19.289  0.00  0.00    +0.000 A 
ATOM     10  C   UNL     1       2.364   5.683  19.354  0.00  0.00    +0.000 A 
ATOM     11  C   UNL     1       1.853   4.782  18.429  0.00  0.00    +0.000 A 
ATOM     12  C   UNL     1       2.688   4.257  17.441  0.00  0.00    +0.000 A 
ATOM     13  C   UNL     1       4.037   4.640  17.325  0.00  0.00    +0.000 A 
ATOM     14  N   UNL     1       4.776   4.058  16.296  0.00  0.00    +0.000 N 
ATOM     15  C   UNL     1       5.192   2.676  16.507  0.00  0.00    +0.000 C 
ENDROOT
TORSDOF 0
ENDMDL
MODEL 7
REMARK VINA RESULT:      -5.5      2.244      4.059
REMARK  Name = 
REMARK  3 active torsions:
REMARK  status: ('A' for Active; 'I' for Inactive)
REMARK    1  A    between atoms: C_1  and  C_2
REMARK    2  A    between atoms: N_6  and  C_7
REMARK    3  A    between atoms: N_14  and  C_15
REMARK                            x       y       z     vdW  Elec       q    Type
REMARK                         _______ _______ _______ _____ _____    ______ ____
ROOT
ATOM      1  C   UNL     1       3.367   1.830  17.925  0.00  0.00    +0.000 C 
ATOM      2  C   UNL     1       3.639   3.264  17.461  0.00  0.00    +0.000 C 
ATOM      3  C   UNL     1       4.967   3.324  16.731  0.00  0.00    +0.000 C 
ATOM      4  C   UNL     1       5.118   4.590  15.938  0.00  0.00    +0.000 C 
ATOM      5  O   UNL     1       5.308   4.552  14.721  0.00  0.00    +0.000 OA
ATOM      6  N   UNL     1       5.238   5.771  16.641  0.00  0.00    +0.000 N 
ATOM      7  C   UNL     1       6.571   6.104  17.115  0.00  0.00    +0.000 C 
ATOM      8  C   UNL     1       4.167   6.293  17.417  0.00  0.00    +0.000 A 
ATOM      9  C   UNL     1       3.896   7.667  17.239  0.00  0.00    +0.000 A 
ATOM     10  C   UNL     1       2.845   8.285  17.909  0.00  0.00    +0.000 A 
ATOM     11  C   UNL     1       2.073   7.550  18.798  0.00  0.00    +0.000 A 
ATOM     12  C   UNL     1       2.356   6.199  19.009  0.00  0.00    +0.000 A 
ATOM     13  C   UNL     1       3.386   5.537  18.315  0.00  0.00    +0.000 A 
ATOM     14  N   UNL     1       3.574   4.185  18.597  0.00  0.00    +0.000 N 
ATOM     15  C   UNL     1       4.236   3.880  19.862  0.00  0.00    +0.000 C 
ENDROOT
TORSDOF 0
ENDMDL
MODEL 8
REMARK VINA RESULT:      -5.5      2.519      5.224
REMARK  Name = 
REMARK  3 active torsions:
REMARK  status: ('A' for Active; 'I' for Inactive)
REMARK    1  A    between atoms: C_1  and  C_2
REMARK    2  A    between atoms: N_6  and  C_7
REMARK    3  A    between atoms: N_14  and  C_15
REMARK                            x       y       z     vdW  Elec       q    Type
REMARK                         _______ _______ _______ _____ _____    ______ ____
ROOT
ATOM      1  C   UNL     1       6.988   5.742  18.073  0.00  0.00    +0.000 C 
ATOM      2  C   UNL     1       5.724   5.229  18.771  0.00  0.00    +0.000 C 
ATOM      3  C   UNL     1       5.568   3.742  18.522  0.00  0.00    +0.000 C 
ATOM      4  C   UNL     1       4.582   3.113  19.465  0.00  0.00    +0.000 C 
ATOM      5  O   UNL     1       4.922   2.188  20.205  0.00  0.00    +0.000 OA
ATOM      6  N   UNL     1       3.256   3.465  19.328  0.00  0.00    +0.000 N 
ATOM      7  C   UNL     1       2.500   2.743  18.318  0.00  0.00    +0.000 C 
ATOM      8  C   UNL     1       2.798   4.783  19.604  0.00  0.00    +0.000 A 
ATOM      9  C   UNL     1       1.635   4.871  20.400  0.00  0.00    +0.000 A 
ATOM     10  C   UNL     1       1.115   6.105  20.777  0.00  0.00    +0.000 A 
ATOM     11  C   UNL     1       1.723   7.271  20.332  0.00  0.00    +0.000 A 
ATOM     12  C   UNL     1       2.852   7.194  19.515  0.00  0.00    +0.000 A 
ATOM     13  C   UNL     1       3.426   5.961  19.151  0.00  0.00    +0.000 A 
ATOM     14  N   UNL     1       4.558   6.003  18.339  0.00  0.00    +0.000 N 
ATOM     15  C   UNL     1       4.326   6.304  16.930  0.00  0.00    +0.000 C 
ENDROOT
TORSDOF 0
ENDMDL
MODEL 9
REMARK VINA RESULT:      -5.5      2.547      4.129
REMARK  Name = 
REMARK  3 active torsions:
REMARK  status: ('A' for Active; 'I' for Inactive)
REMARK    1  A    between atoms: C_1  and  C_2
REMARK    2  A    between atoms: N_6  and  C_7
REMARK    3  A    between atoms: N_14  and  C_15
REMARK                            x       y       z     vdW  Elec       q    Type
REMARK                         _______ _______ _______ _____ _____    ______ ____
ROOT
ATOM      1  C   UNL     1       1.500   2.183  18.597  0.00  0.00    +0.000 C 
ATOM      2  C   UNL     1       2.402   3.312  18.087  0.00  0.00    +0.000 C 
ATOM      3  C   UNL     1       3.822   2.805  17.933  0.00  0.00    +0.000 C 
ATOM      4  C   UNL     1       4.663   3.728  17.098  0.00  0.00    +0.000 C 
ATOM      5  O   UNL     1       5.208   3.325  16.070  0.00  0.00    +0.000 OA
ATOM      6  N   UNL     1       4.963   4.966  17.626  0.00  0.00    +0.000 N 
ATOM      7  C   UNL     1       6.098   5.021  18.533  0.00  0.00    +0.000 C 
ATOM      8  C   UNL     1       3.961   5.950  17.845  0.00  0.00    +0.000 A 
ATOM      9  C   UNL     1       4.272   7.251  17.391  0.00  0.00    +0.000 A 
ATOM     10  C   UNL     1       3.355   8.291  17.507  0.00  0.00    +0.000 A 
ATOM     11  C   UNL     1       2.129   8.059  18.115  0.00  0.00    +0.000 A 
ATOM     12  C   UNL     1       1.826   6.785  18.599  0.00  0.00    +0.000 A 
ATOM     13  C   UNL     1       2.716   5.704  18.459  0.00  0.00    +0.000 A 
ATOM     14  N   UNL     1       2.307   4.474  18.972  0.00  0.00    +0.000 N 
ATOM     15  C   UNL     1       2.370   4.332  20.423  0.00  0.00    +0.000 C 
ENDROOT
TORSDOF 0
ENDMDL
