MODEL 1
REMARK VINA RESULT:      -6.4      0.000      0.000
REMARK  Name = 
REMARK  5 active torsions:
REMARK  status: ('A' for Active; 'I' for Inactive)
REMARK    1  A    between atoms: C_1  and  C_2
REMARK    2  A    between atoms: C_5  and  C_6
REMARK    3  A    between atoms: C_6  and  C_8
REMARK    4  A    between atoms: C_8  and  S_9
REMARK    5  A    between atoms: S_9  and  C_10
REMARK                            x       y       z     vdW  Elec       q    Type
REMARK                         _______ _______ _______ _____ _____    ______ ____
ROOT
ATOM      1  C   UNL     1       0.920   2.801  19.449  0.00  0.00    +0.000 C 
ATOM      2  C   UNL     1       2.252   3.466  19.262  0.00  0.00    +0.000 A 
ATOM      3  C   UNL     1       3.443   2.801  19.573  0.00  0.00    +0.000 A 
ATOM      4  C   UNL     1       4.673   3.451  19.427  0.00  0.00    +0.000 A 
ATOM      5  C   UNL     1       4.733   4.776  18.972  0.00  0.00    +0.000 A 
ATOM      6  C   UNL     1       3.542   5.434  18.649  0.00  0.00    +0.000 A 
ATOM      7  C   UNL     1       2.313   4.782  18.793  0.00  0.00    +0.000 A 
ENDROOT
BRANCH   5   8
ATOM      8  C   UNL     1       6.075   5.429  18.881  0.00  0.00    +0.000 C 
ATOM      9  O   UNL     1       6.849   5.369  19.838  0.00  0.00    +0.000 OA
BRANCH   8  10
ATOM     10  C   UNL     1       6.483   6.166  17.643  0.00  0.00    +0.000 C 
BRANCH  10  11
ATOM     11  S   UNL     1       7.150   5.039  16.451  0.00  0.00    +0.000 S 
ATOM     12  C   UNL     1       5.761   4.089  15.878  0.00  0.00    +0.000 C 
ATOM     13  O   UNL     1       7.615   5.840  15.332  0.00  0.00    +0.000 OA
ATOM     14  O   UNL     1       8.069   4.144  17.126  0.00  0.00    +0.000 OA
ENDBRANCH  10  11
ENDBRANCH   8  10
ENDBRANCH   5   8
TORSDOF 3
ENDMDL
MODEL 2
REMARK VINA RESULT:      -6.2      1.668      2.529
REMARK  Name = 
REMARK  5 active torsions:
REMARK  status: ('A' for Active; 'I' for Inactive)
REMARK    1  A    between atoms: C_1  and  C_2
REMARK    2  A    between atoms: C_5  and  C_6
REMARK    3  A    between atoms: C_6  and  C_8
REMARK    4  A    between atoms: C_8  and  S_9
REMARK    5  A    between atoms: S_9  and  C_10
REMARK                            x       y       z     vdW  Elec       q    Type
REMARK                         _______ _______ _______ _____ _____    ______ ____
ROOT
ATOM      1  C   UNL     1       0.487   2.358  19.002  0.00  0.00    +0.000 C 
ATOM      2  C   UNL     1       1.623   3.220  18.538  0.00  0.00    +0.000 A 
ATOM      3  C   UNL     1       1.827   4.497  19.069  0.00  0.00    +0.000 A 
ATOM      4  C   UNL     1       2.870   5.300  18.597  0.00  0.00    +0.000 A 
ATOM      5  C   UNL     1       3.725   4.841  17.584  0.00  0.00    +0.000 A 
ATOM      6  C   UNL     1       3.528   3.557  17.064  0.00  0.00    +0.000 A 
ATOM      7  C   UNL     1       2.485   2.755  17.539  0.00  0.00    +0.000 A 
ENDROOT
BRANCH   5   8
ATOM      8  C   UNL     1       4.793   5.764  17.091  0.00  0.00    +0.000 C 
ATOM      9  O   UNL     1       4.577   6.976  17.042  0.00  0.00    +0.000 OA
BRANCH   8  10
ATOM     10  C   UNL     1       6.119   5.229  16.646  0.00  0.00    +0.000 C 
BRANCH  10  11
ATOM     11  S   UNL     1       7.190   5.009  18.039  0.00  0.00    +0.000 S 
ATOM     12  C   UNL     1       7.816   6.632  18.407  0.00  0.00    +0.000 C 
ATOM     13  O   UNL     1       6.349   4.608  19.154  0.00  0.00    +0.000 OA
ATOM     14  O   UNL     1       8.302   4.170  17.640  0.00  0.00    +0.000 OA
ENDBRANCH  10  11
ENDBRANCH   8  10
ENDBRANCH   5   8
TORSDOF 3
ENDMDL
MODEL 3
REMARK VINA RESULT:      -6.1      1.558      2.288
REMARK  Name = 
REMARK  5 active torsions:
REMARK  status: ('A' for Active; 'I' for Inactive)
REMARK    1  A    between atoms: C_1  and  C_2
REMARK    2  A    between atoms: C_5  and  C_6
REMARK    3  A    between atoms: C_6  and  C_8
REMARK    4  A    between atoms: C_8  and  S_9
REMARK    5  A    between atoms: S_9  and  C_10
REMARK                            x       y       z     vdW  Elec       q    Type
REMARK                         _______ _______ _______ _____ _____    ______ ____
ROOT
ATOM      1  C   UNL     1       1.000   2.928  20.837  0.00  0.00    +0.000 C 
ATOM      2  C   UNL     1       1.846   3.725  19.889  0.00  0.00    +0.000 A 
ATOM      3  C   UNL     1       2.114   3.265  18.596  0.00  0.00    +0.000 A 
ATOM      4  C   UNL     1       2.936   4.005  17.740  0.00  0.00    +0.000 A 
ATOM      5  C   UNL     1       3.505   5.215  18.163  0.00  0.00    +0.000 A 
ATOM      6  C   UNL     1       3.224   5.680  19.452  0.00  0.00    +0.000 A 
ATOM      7  C   UNL     1       2.400   4.940  20.306  0.00  0.00    +0.000 A 
ENDROOT
BRANCH   5   8
ATOM      8  C   UNL     1       4.410   5.937  17.216  0.00  0.00    +0.000 C 
ATOM      9  O   UNL     1       4.274   7.150  17.047  0.00  0.00    +0.000 OA
BRANCH   8  10
ATOM     10  C   UNL     1       5.472   5.198  16.462  0.00  0.00    +0.000 C 
BRANCH  10  11
ATOM     11  S   UNL     1       6.926   5.032  17.458  0.00  0.00    +0.000 S 
ATOM     12  C   UNL     1       7.438   6.695  17.820  0.00  0.00    +0.000 C 
ATOM     13  O   UNL     1       6.508   4.427  18.711  0.00  0.00    +0.000 OA
ATOM     14  O   UNL     1       7.961   4.398  16.664  0.00  0.00    +0.000 OA
ENDBRANCH  10  11
ENDBRANCH   8  10
ENDBRANCH   5   8
TORSDOF 3
ENDMDL
MODEL 4
REMARK VINA RESULT:      -6.0      1.548      2.177
REMARK  Name = 
REMARK  5 active torsions:
REMARK  status: ('A' for Active; 'I' for Inactive)
REMARK    1  A    between atoms: C_1  and  C_2
REMARK    2  A    between atoms: C_5  and  C_6
REMARK    3  A    between atoms: C_6  and  C_8
REMARK    4  A    between atoms: C_8  and  S_9
REMARK    5  A    between atoms: S_9  and  C_10
REMARK                            x       y       z     vdW  Elec       q    Type
REMARK                         _______ _______ _______ _____ _____    ______ ____
ROOT
ATOM      1  C   UNL     1       1.308   2.596  21.831  0.00  0.00    +0.000 C 
ATOM      2  C   UNL     1       2.099   3.293  20.764  0.00  0.00    +0.000 A 
ATOM      3  C   UNL     1       3.269   2.729  20.246  0.00  0.00    +0.000 A 
ATOM      4  C   UNL     1       4.013   3.411  19.278  0.00  0.00    +0.000 A 
ATOM      5  C   UNL     1       3.600   4.669  18.813  0.00  0.00    +0.000 A 
ATOM      6  C   UNL     1       2.422   5.225  19.323  0.00  0.00    +0.000 A 
ATOM      7  C   UNL     1       1.679   4.540  20.290  0.00  0.00    +0.000 A 
ENDROOT
BRANCH   5   8
ATOM      8  C   UNL     1       4.463   5.367  17.811  0.00  0.00    +0.000 C 
ATOM      9  O   UNL     1       4.239   6.546  17.529  0.00  0.00    +0.000 OA
BRANCH   8  10
ATOM     10  C   UNL     1       5.588   4.645  17.136  0.00  0.00    +0.000 C 
BRANCH  10  11
ATOM     11  S   UNL     1       7.134   5.100  17.869  0.00  0.00    +0.000 S 
ATOM     12  C   UNL     1       7.443   6.760  17.315  0.00  0.00    +0.000 C 
ATOM     13  O   UNL     1       6.916   5.159  19.305  0.00  0.00    +0.000 OA
ATOM     14  O   UNL     1       8.171   4.239  17.335  0.00  0.00    +0.000 OA
ENDBRANCH  10  11
ENDBRANCH   8  10
ENDBRANCH   5   8
TORSDOF 3
ENDMDL
MODEL 5
REMARK VINA RESULT:      -6.0      1.767      2.493
REMARK  Name = 
REMARK  5 active torsions:
REMARK  status: ('A' for Active; 'I' for Inactive)
REMARK    1  A    between atoms: C_1  and  C_2
REMARK    2  A    between atoms: C_5  and  C_6
REMARK    3  A    between atoms: C_6  and  C_8
REMARK    4  A    between atoms: C_8  and  S_9
REMARK    5  A    between atoms: S_9  and  C_10
REMARK                            x       y       z     vdW  Elec       q    Type
REMARK                         _______ _______ _______ _____ _____    ______ ____
ROOT
ATOM      1  C   UNL     1       0.485   2.605  19.378  0.00  0.00    +0.000 C 
ATOM      2  C   UNL     1       1.688   3.033  18.591  0.00  0.00    +0.000 A 
ATOM      3  C   UNL     1       2.671   2.112  18.214  0.00  0.00    +0.000 A 
ATOM      4  C   UNL     1       3.804   2.537  17.513  0.00  0.00    +0.000 A 
ATOM      5  C   UNL     1       3.975   3.888  17.180  0.00  0.00    +0.000 A 
ATOM      6  C   UNL     1       2.984   4.805  17.547  0.00  0.00    +0.000 A 
ATOM      7  C   UNL     1       1.851   4.378  18.246  0.00  0.00    +0.000 A 
ENDROOT
BRANCH   5   8
ATOM      8  C   UNL     1       5.229   4.286  16.469  0.00  0.00    +0.000 C 
ATOM      9  O   UNL     1       5.222   4.412  15.243  0.00  0.00    +0.000 OA
BRANCH   8  10
ATOM     10  C   UNL     1       6.497   4.520  17.231  0.00  0.00    +0.000 C 
BRANCH  10  11
ATOM     11  S   UNL     1       6.920   6.239  17.203  0.00  0.00    +0.000 S 
ATOM     12  C   UNL     1       7.870   6.510  18.680  0.00  0.00    +0.000 C 
ATOM     13  O   UNL     1       7.813   6.432  16.073  0.00  0.00    +0.000 OA
ATOM     14  O   UNL     1       5.700   7.016  17.294  0.00  0.00    +0.000 OA
ENDBRANCH  10  11
ENDBRANCH   8  10
ENDBRANCH   5   8
TORSDOF 3
ENDMDL
MODEL 6
REMARK VINA RESULT:      -6.0      3.597      5.584
REMARK  Name = 
REMARK  5 active torsions:
REMARK  status: ('A' for Active; 'I' for Inactive)
REMARK    1  A    between atoms: C_1  and  C_2
REMARK    2  A    between atoms: C_5  and  C_6
REMARK    3  A    between atoms: C_6  and  C_8
REMARK    4  A    between atoms: C_8  and  S_9
REMARK    5  A    between atoms: S_9  and  C_10
REMARK                            x       y       z     vdW  Elec       q    Type
REMARK                         _______ _______ _______ _____ _____    ______ ____
ROOT
ATOM      1  C   UNL     1       7.580   7.213  17.654  0.00  0.00    +0.000 C 
ATOM      2  C   UNL     1       6.417   6.268  17.723  0.00  0.00    +0.000 A 
ATOM      3  C   UNL     1       6.253   5.400  18.807  0.00  0.00    +0.000 A 
ATOM      4  C   UNL     1       5.183   4.500  18.835  0.00  0.00    +0.000 A 
ATOM      5  C   UNL     1       4.261   4.451  17.779  0.00  0.00    +0.000 A 
ATOM      6  C   UNL     1       4.420   5.329  16.703  0.00  0.00    +0.000 A 
ATOM      7  C   UNL     1       5.490   6.230  16.677  0.00  0.00    +0.000 A 
ENDROOT
BRANCH   5   8
ATOM      8  C   UNL     1       3.165   3.435  17.848  0.00  0.00    +0.000 C 
ATOM      9  O   UNL     1       2.448   3.245  16.864  0.00  0.00    +0.000 OA
BRANCH   8  10
ATOM     10  C   UNL     1       2.922   2.657  19.104  0.00  0.00    +0.000 C 
BRANCH  10  11
ATOM     11  S   UNL     1       1.397   3.160  19.850  0.00  0.00    +0.000 S 
ATOM     12  C   UNL     1       1.508   2.629  21.543  0.00  0.00    +0.000 C 
ATOM     13  O   UNL     1       1.391   4.613  19.852  0.00  0.00    +0.000 OA
ATOM     14  O   UNL     1       0.312   2.438  19.215  0.00  0.00    +0.000 OA
ENDBRANCH  10  11
ENDBRANCH   8  10
ENDBRANCH   5   8
TORSDOF 3
ENDMDL
MODEL 7
REMARK VINA RESULT:      -6.0      1.632      2.399
REMARK  Name = 
REMARK  5 active torsions:
REMARK  status: ('A' for Active; 'I' for Inactive)
REMARK    1  A    between atoms: C_1  and  C_2
REMARK    2  A    between atoms: C_5  and  C_6
REMARK    3  A    between atoms: C_6  and  C_8
REMARK    4  A    between atoms: C_8  and  S_9
REMARK    5  A    between atoms: S_9  and  C_10
REMARK                            x       y       z     vdW  Elec       q    Type
REMARK                         _______ _______ _______ _____ _____    ______ ____
ROOT
ATOM      1  C   UNL     1       0.900   2.565  19.190  0.00  0.00    +0.000 C 
ATOM      2  C   UNL     1       1.930   3.369  18.455  0.00  0.00    +0.000 A 
ATOM      3  C   UNL     1       2.936   2.748  17.707  0.00  0.00    +0.000 A 
ATOM      4  C   UNL     1       3.910   3.515  17.059  0.00  0.00    +0.000 A 
ATOM      5  C   UNL     1       3.897   4.914  17.151  0.00  0.00    +0.000 A 
ATOM      6  C   UNL     1       2.882   5.534  17.888  0.00  0.00    +0.000 A 
ATOM      7  C   UNL     1       1.908   4.766  18.533  0.00  0.00    +0.000 A 
ENDROOT
BRANCH   5   8
ATOM      8  C   UNL     1       4.992   5.675  16.473  0.00  0.00    +0.000 C 
ATOM      9  O   UNL     1       5.318   5.379  15.322  0.00  0.00    +0.000 OA
BRANCH   8  10
ATOM     10  C   UNL     1       5.704   6.784  17.183  0.00  0.00    +0.000 C 
BRANCH  10  11
ATOM     11  S   UNL     1       7.199   6.182  17.914  0.00  0.00    +0.000 S 
ATOM     12  C   UNL     1       6.699   5.415  19.438  0.00  0.00    +0.000 C 
ATOM     13  O   UNL     1       7.696   5.129  17.045  0.00  0.00    +0.000 OA
ATOM     14  O   UNL     1       8.048   7.314  18.230  0.00  0.00    +0.000 OA
ENDBRANCH  10  11
ENDBRANCH   8  10
ENDBRANCH   5   8
TORSDOF 3
ENDMDL
MODEL 8
REMARK VINA RESULT:      -6.0      1.556      2.560
REMARK  Name = 
REMARK  5 active torsions:
REMARK  status: ('A' for Active; 'I' for Inactive)
REMARK    1  A    between atoms: C_1  and  C_2
REMARK    2  A    between atoms: C_5  and  C_6
REMARK    3  A    between atoms: C_6  and  C_8
REMARK    4  A    between atoms: C_8  and  S_9
REMARK    5  A    between atoms: S_9  and  C_10
REMARK                            x       y       z     vdW  Elec       q    Type
REMARK                         _______ _______ _______ _____ _____    ______ ____
ROOT
ATOM      1  C   UNL     1       1.372   2.932  21.345  0.00  0.00    +0.000 C 
ATOM      2  C   UNL     1       2.250   3.416  20.230  0.00  0.00    +0.000 A 
ATOM      3  C   UNL     1       2.517   4.778  20.059  0.00  0.00    +0.000 A 
ATOM      4  C   UNL     1       3.308   5.214  18.991  0.00  0.00    +0.000 A 
ATOM      5  C   UNL     1       3.843   4.296  18.076  0.00  0.00    +0.000 A 
ATOM      6  C   UNL     1       3.586   2.933  18.257  0.00  0.00    +0.000 A 
ATOM      7  C   UNL     1       2.796   2.499  19.326  0.00  0.00    +0.000 A 
ENDROOT
BRANCH   5   8
ATOM      8  C   UNL     1       4.644   4.828  16.930  0.00  0.00    +0.000 C 
ATOM      9  O   UNL     1       4.791   4.141  15.917  0.00  0.00    +0.000 OA
BRANCH   8  10
ATOM     10  C   UNL     1       5.278   6.182  17.006  0.00  0.00    +0.000 C 
BRANCH  10  11
ATOM     11  S   UNL     1       7.041   6.030  17.060  0.00  0.00    +0.000 S 
ATOM     12  C   UNL     1       7.630   7.614  17.609  0.00  0.00    +0.000 C 
ATOM     13  O   UNL     1       7.346   5.070  18.107  0.00  0.00    +0.000 OA
ATOM     14  O   UNL     1       7.528   5.803  15.713  0.00  0.00    +0.000 OA
ENDBRANCH  10  11
ENDBRANCH   8  10
ENDBRANCH   5   8
TORSDOF 3
ENDMDL
MODEL 9
REMARK VINA RESULT:      -5.9      1.723      2.194
REMARK  Name = 
REMARK  5 active torsions:
REMARK  status: ('A' for Active; 'I' for Inactive)
REMARK    1  A    between atoms: C_1  and  C_2
REMARK    2  A    between atoms: C_5  and  C_6
REMARK    3  A    between atoms: C_6  and  C_8
REMARK    4  A    between atoms: C_8  and  S_9
REMARK    5  A    between atoms: S_9  and  C_10
REMARK                            x       y       z     vdW  Elec       q    Type
REMARK                         _______ _______ _______ _____ _____    ______ ____
ROOT
ATOM      1  C   UNL     1       1.066   2.967  20.736  0.00  0.00    +0.000 C 
ATOM      2  C   UNL     1       1.928   3.794  19.827  0.00  0.00    +0.000 A 
ATOM      3  C   UNL     1       2.740   4.815  20.331  0.00  0.00    +0.000 A 
ATOM      4  C   UNL     1       3.508   5.598  19.464  0.00  0.00    +0.000 A 
ATOM      5  C   UNL     1       3.475   5.376  18.080  0.00  0.00    +0.000 A 
ATOM      6  C   UNL     1       2.673   4.346  17.579  0.00  0.00    +0.000 A 
ATOM      7  C   UNL     1       1.907   3.561  18.448  0.00  0.00    +0.000 A 
ENDROOT
BRANCH   5   8
ATOM      8  C   UNL     1       4.284   6.277  17.202  0.00  0.00    +0.000 C 
ATOM      9  O   UNL     1       4.246   7.496  17.379  0.00  0.00    +0.000 OA
BRANCH   8  10
ATOM     10  C   UNL     1       5.130   5.714  16.102  0.00  0.00    +0.000 C 
BRANCH  10  11
ATOM     11  S   UNL     1       6.846   5.873  16.508  0.00  0.00    +0.000 S 
ATOM     12  C   UNL     1       7.100   4.792  17.896  0.00  0.00    +0.000 C 
ATOM     13  O   UNL     1       7.593   5.322  15.390  0.00  0.00    +0.000 OA
ATOM     14  O   UNL     1       7.096   7.235  16.937  0.00  0.00    +0.000 OA
ENDBRANCH  10  11
ENDBRANCH   8  10
ENDBRANCH   5   8
TORSDOF 3
ENDMDL
