MODEL 1
REMARK VINA RESULT:      -6.7      0.000      0.000
REMARK  Name = 
REMARK  4 active torsions:
REMARK  status: ('A' for Active; 'I' for Inactive)
REMARK    1  A    between atoms: C_1  and  C_2
REMARK    2  A    between atoms: C_2  and  N_3
REMARK    3  A    between atoms: C_14  and  O_15
REMARK    4  A    between atoms: O_15  and  C_16
REMARK                            x       y       z     vdW  Elec       q    Type
REMARK                         _______ _______ _______ _____ _____    ______ ____
ROOT
ATOM      1  N   UNL     1      -3.828  13.988  23.012  0.00  0.00    +0.000 N 
ATOM      2  C   UNL     1      -3.486  13.401  21.798  0.00  0.00    +0.000 A 
ATOM      3  N   UNL     1      -2.180  13.398  21.494  0.00  0.00    +0.000 NA
ATOM      4  C   UNL     1      -1.796  12.832  20.329  0.00  0.00    +0.000 A 
ATOM      5  N   UNL     1      -0.412  12.820  20.041  0.00  0.00    +0.000 N 
ATOM      6  C   UNL     1       0.378  13.947  20.567  0.00  0.00    +0.000 C 
ATOM      7  C   UNL     1       1.381  14.460  19.530  0.00  0.00    +0.000 C 
ATOM      8  O   UNL     1       1.768  15.627  19.482  0.00  0.00    +0.000 OA
ATOM      9  N   UNL     1       1.934  13.512  18.695  0.00  0.00    +0.000 N 
ATOM     10  C   UNL     1       1.533  12.172  18.725  0.00  0.00    +0.000 A 
ATOM     11  C   UNL     1       2.255  11.229  17.986  0.00  0.00    +0.000 A 
ATOM     12  C   UNL     1       1.861   9.891  18.001  0.00  0.00    +0.000 A 
ATOM     13  C   UNL     1       0.753   9.511  18.761  0.00  0.00    +0.000 A 
ATOM     14  C   UNL     1       0.027  10.459  19.489  0.00  0.00    +0.000 A 
ATOM     15  C   UNL     1       0.384  11.811  19.452  0.00  0.00    +0.000 A 
ATOM     16  C   UNL     1      -2.743  12.292  19.426  0.00  0.00    +0.000 A 
ATOM     17  C   UNL     1      -2.491  11.742  18.132  0.00  0.00    +0.000 A 
ATOM     18  C   UNL     1      -3.501  11.191  17.347  0.00  0.00    +0.000 A 
ATOM     19  C   UNL     1      -4.804  11.235  17.808  0.00  0.00    +0.000 A 
ATOM     20  C   UNL     1      -5.073  11.822  19.044  0.00  0.00    +0.000 A 
ATOM     21  C   UNL     1      -4.073  12.343  19.856  0.00  0.00    +0.000 A 
ATOM     22  N   UNL     1      -4.431  12.880  21.022  0.00  0.00    +0.000 NA
ATOM     23  H   UNL     1      -2.985  14.015  23.569  0.00  0.00    +0.000 HD
ATOM     24  H   UNL     1       2.669  13.830  18.079  0.00  0.00    +0.000 HD
ENDROOT
BRANCH   1  26
ATOM     25  C   UNL     1      -4.568  12.408  24.706  0.00  0.00    +0.000 C 
ATOM     26  C   UNL     1      -5.001  13.412  23.650  0.00  0.00    +0.000 C 
ENDBRANCH   1  26
BRANCH  12  27
ATOM     27  O   UNL     1       2.466   8.866  17.328  0.00  0.00    +0.000 OA
ATOM     28  C   UNL     1       2.679   7.659  18.049  0.00  0.00    +0.000 C 
ENDBRANCH  12  27
TORSDOF 2
ENDMDL
MODEL 2
REMARK VINA RESULT:      -6.5      2.620      7.170
REMARK  Name = 
REMARK  4 active torsions:
REMARK  status: ('A' for Active; 'I' for Inactive)
REMARK    1  A    between atoms: C_1  and  C_2
REMARK    2  A    between atoms: C_2  and  N_3
REMARK    3  A    between atoms: C_14  and  O_15
REMARK    4  A    between atoms: O_15  and  C_16
REMARK                            x       y       z     vdW  Elec       q    Type
REMARK                         _______ _______ _______ _____ _____    ______ ____
ROOT
ATOM      1  N   UNL     1       1.520   8.641  17.595  0.00  0.00    +0.000 N 
ATOM      2  C   UNL     1       1.159   9.918  18.012  0.00  0.00    +0.000 A 
ATOM      3  N   UNL     1      -0.141  10.102  18.282  0.00  0.00    +0.000 NA
ATOM      4  C   UNL     1      -0.541  11.324  18.699  0.00  0.00    +0.000 A 
ATOM      5  N   UNL     1      -1.912  11.488  18.999  0.00  0.00    +0.000 N 
ATOM      6  C   UNL     1      -2.858  10.668  18.222  0.00  0.00    +0.000 C 
ATOM      7  C   UNL     1      -4.080  11.482  17.789  0.00  0.00    +0.000 C 
ATOM      8  O   UNL     1      -4.724  11.247  16.767  0.00  0.00    +0.000 OA
ATOM      9  N   UNL     1      -4.512  12.449  18.673  0.00  0.00    +0.000 N 
ATOM     10  C   UNL     1      -3.820  12.740  19.853  0.00  0.00    +0.000 A 
ATOM     11  C   UNL     1      -4.404  13.597  20.791  0.00  0.00    +0.000 A 
ATOM     12  C   UNL     1      -3.720  13.901  21.969  0.00  0.00    +0.000 A 
ATOM     13  C   UNL     1      -2.463  13.338  22.196  0.00  0.00    +0.000 A 
ATOM     14  C   UNL     1      -1.878  12.490  21.251  0.00  0.00    +0.000 A 
ATOM     15  C   UNL     1      -2.532  12.207  20.047  0.00  0.00    +0.000 A 
ATOM     16  C   UNL     1       0.374  12.399  18.810  0.00  0.00    +0.000 A 
ATOM     17  C   UNL     1       0.080  13.754  19.154  0.00  0.00    +0.000 A 
ATOM     18  C   UNL     1       1.074  14.722  19.281  0.00  0.00    +0.000 A 
ATOM     19  C   UNL     1       2.383  14.376  19.002  0.00  0.00    +0.000 A 
ATOM     20  C   UNL     1       2.676  13.071  18.608  0.00  0.00    +0.000 A 
ATOM     21  C   UNL     1       1.703  12.083  18.511  0.00  0.00    +0.000 A 
ATOM     22  N   UNL     1       2.085  10.865  18.129  0.00  0.00    +0.000 NA
ATOM     23  H   UNL     1       0.775   8.020  17.881  0.00  0.00    +0.000 HD
ATOM     24  H   UNL     1      -5.376  12.917  18.438  0.00  0.00    +0.000 HD
ENDROOT
BRANCH   1  26
ATOM     25  C   UNL     1       2.917   6.739  18.184  0.00  0.00    +0.000 C 
ATOM     26  C   UNL     1       2.868   8.243  17.971  0.00  0.00    +0.000 C 
ENDBRANCH   1  26
BRANCH  12  27
ATOM     27  O   UNL     1      -4.163  14.723  22.967  0.00  0.00    +0.000 OA
ATOM     28  C   UNL     1      -5.455  14.454  23.496  0.00  0.00    +0.000 C 
ENDBRANCH  12  27
TORSDOF 2
ENDMDL
MODEL 3
REMARK VINA RESULT:      -6.5      3.348      6.607
REMARK  Name = 
REMARK  4 active torsions:
REMARK  status: ('A' for Active; 'I' for Inactive)
REMARK    1  A    between atoms: C_1  and  C_2
REMARK    2  A    between atoms: C_2  and  N_3
REMARK    3  A    between atoms: C_14  and  O_15
REMARK    4  A    between atoms: O_15  and  C_16
REMARK                            x       y       z     vdW  Elec       q    Type
REMARK                         _______ _______ _______ _____ _____    ______ ____
ROOT
ATOM      1  N   UNL     1      -2.415  10.872  16.509  0.00  0.00    +0.000 N 
ATOM      2  C   UNL     1      -3.179  11.327  17.579  0.00  0.00    +0.000 A 
ATOM      3  N   UNL     1      -2.495  11.791  18.634  0.00  0.00    +0.000 NA
ATOM      4  C   UNL     1      -3.192  12.252  19.696  0.00  0.00    +0.000 A 
ATOM      5  N   UNL     1      -2.450  12.757  20.788  0.00  0.00    +0.000 N 
ATOM      6  C   UNL     1      -1.133  12.141  21.027  0.00  0.00    +0.000 C 
ATOM      7  C   UNL     1      -0.895  11.892  22.519  0.00  0.00    +0.000 C 
ATOM      8  O   UNL     1      -0.186  10.983  22.950  0.00  0.00    +0.000 OA
ATOM      9  N   UNL     1      -1.431  12.822  23.386  0.00  0.00    +0.000 N 
ATOM     10  C   UNL     1      -2.230  13.880  22.939  0.00  0.00    +0.000 A 
ATOM     11  C   UNL     1      -2.591  14.888  23.839  0.00  0.00    +0.000 A 
ATOM     12  C   UNL     1      -3.394  15.944  23.407  0.00  0.00    +0.000 A 
ATOM     13  C   UNL     1      -3.820  15.982  22.078  0.00  0.00    +0.000 A 
ATOM     14  C   UNL     1      -3.466  14.967  21.185  0.00  0.00    +0.000 A 
ATOM     15  C   UNL     1      -2.696  13.880  21.611  0.00  0.00    +0.000 A 
ATOM     16  C   UNL     1      -4.607  12.211  19.720  0.00  0.00    +0.000 A 
ATOM     17  C   UNL     1      -5.466  12.583  20.800  0.00  0.00    +0.000 A 
ATOM     18  C   UNL     1      -6.854  12.548  20.693  0.00  0.00    +0.000 A 
ATOM     19  C   UNL     1      -7.423  12.076  19.524  0.00  0.00    +0.000 A 
ATOM     20  C   UNL     1      -6.596  11.654  18.484  0.00  0.00    +0.000 A 
ATOM     21  C   UNL     1      -5.209  11.716  18.559  0.00  0.00    +0.000 A 
ATOM     22  N   UNL     1      -4.506  11.292  17.510  0.00  0.00    +0.000 NA
ATOM     23  H   UNL     1      -1.494  11.275  16.618  0.00  0.00    +0.000 HD
ATOM     24  H   UNL     1      -1.190  12.717  24.361  0.00  0.00    +0.000 HD
ENDROOT
BRANCH   1  26
ATOM     25  C   UNL     1      -2.925   9.752  14.411  0.00  0.00    +0.000 C 
ATOM     26  C   UNL     1      -3.041  11.042  15.207  0.00  0.00    +0.000 C 
ENDBRANCH   1  26
BRANCH  12  27
ATOM     27  O   UNL     1      -3.827  16.991  24.172  0.00  0.00    +0.000 OA
ATOM     28  C   UNL     1      -5.148  16.905  24.690  0.00  0.00    +0.000 C 
ENDBRANCH  12  27
TORSDOF 2
ENDMDL
MODEL 4
REMARK VINA RESULT:      -6.4      2.689      6.613
REMARK  Name = 
REMARK  4 active torsions:
REMARK  status: ('A' for Active; 'I' for Inactive)
REMARK    1  A    between atoms: C_1  and  C_2
REMARK    2  A    between atoms: C_2  and  N_3
REMARK    3  A    between atoms: C_14  and  O_15
REMARK    4  A    between atoms: O_15  and  C_16
REMARK                            x       y       z     vdW  Elec       q    Type
REMARK                         _______ _______ _______ _____ _____    ______ ____
ROOT
ATOM      1  N   UNL     1       1.812   9.774  17.726  0.00  0.00    +0.000 N 
ATOM      2  C   UNL     1       1.097  10.194  18.843  0.00  0.00    +0.000 A 
ATOM      3  N   UNL     1       0.473  11.375  18.731  0.00  0.00    +0.000 NA
ATOM      4  C   UNL     1      -0.243  11.823  19.786  0.00  0.00    +0.000 A 
ATOM      5  N   UNL     1      -0.911  13.060  19.636  0.00  0.00    +0.000 N 
ATOM      6  C   UNL     1      -0.271  14.049  18.752  0.00  0.00    +0.000 C 
ATOM      7  C   UNL     1      -0.319  15.455  19.357  0.00  0.00    +0.000 C 
ATOM      8  O   UNL     1       0.527  16.318  19.132  0.00  0.00    +0.000 OA
ATOM      9  N   UNL     1      -1.441  15.761  20.098  0.00  0.00    +0.000 N 
ATOM     10  C   UNL     1      -2.435  14.814  20.367  0.00  0.00    +0.000 A 
ATOM     11  C   UNL     1      -3.629  15.231  20.965  0.00  0.00    +0.000 A 
ATOM     12  C   UNL     1      -4.625  14.295  21.245  0.00  0.00    +0.000 A 
ATOM     13  C   UNL     1      -4.417  12.954  20.917  0.00  0.00    +0.000 A 
ATOM     14  C   UNL     1      -3.218  12.540  20.329  0.00  0.00    +0.000 A 
ATOM     15  C   UNL     1      -2.193  13.458  20.079  0.00  0.00    +0.000 A 
ATOM     16  C   UNL     1      -0.303  11.092  20.997  0.00  0.00    +0.000 A 
ATOM     17  C   UNL     1      -0.946  11.481  22.212  0.00  0.00    +0.000 A 
ATOM     18  C   UNL     1      -0.983  10.655  23.333  0.00  0.00    +0.000 A 
ATOM     19  C   UNL     1      -0.319   9.442  23.291  0.00  0.00    +0.000 A 
ATOM     20  C   UNL     1       0.362   9.076  22.131  0.00  0.00    +0.000 A 
ATOM     21  C   UNL     1       0.379   9.871  20.991  0.00  0.00    +0.000 A 
ATOM     22  N   UNL     1       1.056   9.431  19.931  0.00  0.00    +0.000 NA
ATOM     23  H   UNL     1       1.458  10.301  16.939  0.00  0.00    +0.000 HD
ATOM     24  H   UNL     1      -1.523  16.717  20.413  0.00  0.00    +0.000 HD
ENDROOT
BRANCH   1  26
ATOM     25  C   UNL     1       3.312   7.859  17.686  0.00  0.00    +0.000 C 
ATOM     26  C   UNL     1       1.873   8.330  17.557  0.00  0.00    +0.000 C 
ENDBRANCH   1  26
BRANCH  12  27
ATOM     27  O   UNL     1      -5.833  14.556  21.828  0.00  0.00    +0.000 OA
ATOM     28  C   UNL     1      -6.613  13.434  22.221  0.00  0.00    +0.000 C 
ENDBRANCH  12  27
TORSDOF 2
ENDMDL
MODEL 5
REMARK VINA RESULT:      -6.4      1.211      1.336
REMARK  Name = 
REMARK  4 active torsions:
REMARK  status: ('A' for Active; 'I' for Inactive)
REMARK    1  A    between atoms: C_1  and  C_2
REMARK    2  A    between atoms: C_2  and  N_3
REMARK    3  A    between atoms: C_14  and  O_15
REMARK    4  A    between atoms: O_15  and  C_16
REMARK                            x       y       z     vdW  Elec       q    Type
REMARK                         _______ _______ _______ _____ _____    ______ ____
ROOT
ATOM      1  N   UNL     1      -5.201  13.311  23.421  0.00  0.00    +0.000 N 
ATOM      2  C   UNL     1      -4.722  12.924  22.174  0.00  0.00    +0.000 A 
ATOM      3  N   UNL     1      -3.410  13.102  21.967  0.00  0.00    +0.000 NA
ATOM      4  C   UNL     1      -2.895  12.734  20.773  0.00  0.00    +0.000 A 
ATOM      5  N   UNL     1      -1.505  12.910  20.587  0.00  0.00    +0.000 N 
ATOM      6  C   UNL     1      -0.884  14.040  21.300  0.00  0.00    +0.000 C 
ATOM      7  C   UNL     1       0.110  14.787  20.407  0.00  0.00    +0.000 C 
ATOM      8  O   UNL     1       0.360  15.986  20.528  0.00  0.00    +0.000 OA
ATOM      9  N   UNL     1       0.818  14.018  19.507  0.00  0.00    +0.000 N 
ATOM     10  C   UNL     1       0.576  12.650  19.347  0.00  0.00    +0.000 A 
ATOM     11  C   UNL     1       1.446  11.893  18.555  0.00  0.00    +0.000 A 
ATOM     12  C   UNL     1       1.211  10.529  18.381  0.00  0.00    +0.000 A 
ATOM     13  C   UNL     1       0.113   9.938  19.007  0.00  0.00    +0.000 A 
ATOM     14  C   UNL     1      -0.761  10.700  19.789  0.00  0.00    +0.000 A 
ATOM     15  C   UNL     1      -0.563  12.076  19.941  0.00  0.00    +0.000 A 
ATOM     16  C   UNL     1      -3.718  12.212  19.746  0.00  0.00    +0.000 A 
ATOM     17  C   UNL     1      -3.328  11.863  18.417  0.00  0.00    +0.000 A 
ATOM     18  C   UNL     1      -4.219  11.309  17.501  0.00  0.00    +0.000 A 
ATOM     19  C   UNL     1      -5.543  11.152  17.868  0.00  0.00    +0.000 A 
ATOM     20  C   UNL     1      -5.950  11.544  19.143  0.00  0.00    +0.000 A 
ATOM     21  C   UNL     1      -5.068  12.064  20.082  0.00  0.00    +0.000 A 
ATOM     22  N   UNL     1      -5.554  12.405  21.274  0.00  0.00    +0.000 NA
ATOM     23  H   UNL     1      -4.401  13.359  24.037  0.00  0.00    +0.000 HD
ATOM     24  H   UNL     1       1.545  14.491  18.989  0.00  0.00    +0.000 HD
ENDROOT
BRANCH   1  26
ATOM     25  C   UNL     1      -7.491  13.462  24.229  0.00  0.00    +0.000 C 
ATOM     26  C   UNL     1      -6.334  12.533  23.900  0.00  0.00    +0.000 C 
ENDBRANCH   1  26
BRANCH  12  27
ATOM     27  O   UNL     1       1.970   9.670  17.636  0.00  0.00    +0.000 OA
ATOM     28  C   UNL     1       2.207   8.380  18.183  0.00  0.00    +0.000 C 
ENDBRANCH  12  27
TORSDOF 2
ENDMDL
MODEL 6
REMARK VINA RESULT:      -6.3      3.011      6.244
REMARK  Name = 
REMARK  4 active torsions:
REMARK  status: ('A' for Active; 'I' for Inactive)
REMARK    1  A    between atoms: C_1  and  C_2
REMARK    2  A    between atoms: C_2  and  N_3
REMARK    3  A    between atoms: C_14  and  O_15
REMARK    4  A    between atoms: O_15  and  C_16
REMARK                            x       y       z     vdW  Elec       q    Type
REMARK                         _______ _______ _______ _____ _____    ______ ____
ROOT
ATOM      1  N   UNL     1      -1.960  11.464  16.607  0.00  0.00    +0.000 N 
ATOM      2  C   UNL     1      -1.509  11.454  17.923  0.00  0.00    +0.000 A 
ATOM      3  N   UNL     1      -1.394  12.652  18.513  0.00  0.00    +0.000 NA
ATOM      4  C   UNL     1      -0.967  12.696  19.794  0.00  0.00    +0.000 A 
ATOM      5  N   UNL     1      -0.875  13.969  20.402  0.00  0.00    +0.000 N 
ATOM      6  C   UNL     1      -0.549  15.099  19.515  0.00  0.00    +0.000 C 
ATOM      7  C   UNL     1       0.475  16.038  20.159  0.00  0.00    +0.000 C 
ATOM      8  O   UNL     1       1.277  16.711  19.512  0.00  0.00    +0.000 OA
ATOM      9  N   UNL     1       0.388  16.190  21.527  0.00  0.00    +0.000 N 
ATOM     10  C   UNL     1      -0.519  15.455  22.299  0.00  0.00    +0.000 A 
ATOM     11  C   UNL     1      -0.685  15.784  23.648  0.00  0.00    +0.000 A 
ATOM     12  C   UNL     1      -1.581  15.055  24.431  0.00  0.00    +0.000 A 
ATOM     13  C   UNL     1      -2.303  14.009  23.852  0.00  0.00    +0.000 A 
ATOM     14  C   UNL     1      -2.125  13.677  22.506  0.00  0.00    +0.000 A 
ATOM     15  C   UNL     1      -1.202  14.372  21.718  0.00  0.00    +0.000 A 
ATOM     16  C   UNL     1      -0.607  11.517  20.490  0.00  0.00    +0.000 A 
ATOM     17  C   UNL     1      -0.065  11.421  21.808  0.00  0.00    +0.000 A 
ATOM     18  C   UNL     1       0.208  10.196  22.413  0.00  0.00    +0.000 A 
ATOM     19  C   UNL     1       0.006   9.034  21.691  0.00  0.00    +0.000 A 
ATOM     20  C   UNL     1      -0.467   9.116  20.382  0.00  0.00    +0.000 A 
ATOM     21  C   UNL     1      -0.778  10.327  19.775  0.00  0.00    +0.000 A 
ATOM     22  N   UNL     1      -1.228  10.301  18.521  0.00  0.00    +0.000 NA
ATOM     23  H   UNL     1      -2.412  12.356  16.461  0.00  0.00    +0.000 HD
ATOM     24  H   UNL     1       0.994  16.884  21.941  0.00  0.00    +0.000 HD
ENDROOT
BRANCH   1  26
ATOM     25  C   UNL     1      -3.048  10.345  14.741  0.00  0.00    +0.000 C 
ATOM     26  C   UNL     1      -2.725  10.286  16.224  0.00  0.00    +0.000 C 
ENDBRANCH   1  26
BRANCH  12  27
ATOM     27  O   UNL     1      -1.841  15.258  25.758  0.00  0.00    +0.000 OA
ATOM     28  C   UNL     1      -0.902  16.040  26.485  0.00  0.00    +0.000 C 
ENDBRANCH  12  27
TORSDOF 2
ENDMDL
MODEL 7
REMARK VINA RESULT:      -6.2      2.940      6.004
REMARK  Name = 
REMARK  4 active torsions:
REMARK  status: ('A' for Active; 'I' for Inactive)
REMARK    1  A    between atoms: C_1  and  C_2
REMARK    2  A    between atoms: C_2  and  N_3
REMARK    3  A    between atoms: C_14  and  O_15
REMARK    4  A    between atoms: O_15  and  C_16
REMARK                            x       y       z     vdW  Elec       q    Type
REMARK                         _______ _______ _______ _____ _____    ______ ____
ROOT
ATOM      1  N   UNL     1      -2.786   9.743  15.404  0.00  0.00    +0.000 N 
ATOM      2  C   UNL     1      -3.170  10.471  16.526  0.00  0.00    +0.000 A 
ATOM      3  N   UNL     1      -2.250  10.586  17.494  0.00  0.00    +0.000 NA
ATOM      4  C   UNL     1      -2.571  11.291  18.602  0.00  0.00    +0.000 A 
ATOM      5  N   UNL     1      -1.578  11.416  19.599  0.00  0.00    +0.000 N 
ATOM      6  C   UNL     1      -0.634  10.293  19.732  0.00  0.00    +0.000 C 
ATOM      7  C   UNL     1      -0.375   9.950  21.202  0.00  0.00    +0.000 C 
ATOM      8  O   UNL     1      -0.085   8.821  21.594  0.00  0.00    +0.000 OA
ATOM      9  N   UNL     1      -0.371  11.011  22.083  0.00  0.00    +0.000 N 
ATOM     10  C   UNL     1      -0.682  12.314  21.679  0.00  0.00    +0.000 A 
ATOM     11  C   UNL     1      -0.484  13.370  22.575  0.00  0.00    +0.000 A 
ATOM     12  C   UNL     1      -0.796  14.673  22.186  0.00  0.00    +0.000 A 
ATOM     13  C   UNL     1      -1.298  14.904  20.904  0.00  0.00    +0.000 A 
ATOM     14  C   UNL     1      -1.505  13.844  20.016  0.00  0.00    +0.000 A 
ATOM     15  C   UNL     1      -1.235  12.528  20.403  0.00  0.00    +0.000 A 
ATOM     16  C   UNL     1      -3.857  11.861  18.763  0.00  0.00    +0.000 A 
ATOM     17  C   UNL     1      -4.360  12.554  19.906  0.00  0.00    +0.000 A 
ATOM     18  C   UNL     1      -5.633  13.119  19.934  0.00  0.00    +0.000 A 
ATOM     19  C   UNL     1      -6.464  12.948  18.842  0.00  0.00    +0.000 A 
ATOM     20  C   UNL     1      -6.007  12.223  17.743  0.00  0.00    +0.000 A 
ATOM     21  C   UNL     1      -4.727  11.684  17.682  0.00  0.00    +0.000 A 
ATOM     22  N   UNL     1      -4.384  11.010  16.586  0.00  0.00    +0.000 NA
ATOM     23  H   UNL     1      -1.776   9.711  15.410  0.00  0.00    +0.000 HD
ATOM     24  H   UNL     1      -0.102  10.803  23.035  0.00  0.00    +0.000 HD
ENDROOT
BRANCH   1  26
ATOM     25  C   UNL     1      -2.724   9.505  12.984  0.00  0.00    +0.000 C 
ATOM     26  C   UNL     1      -3.408  10.179  14.162  0.00  0.00    +0.000 C 
ENDBRANCH   1  26
BRANCH  12  27
ATOM     27  O   UNL     1      -0.660  15.796  22.953  0.00  0.00    +0.000 OA
ATOM     28  C   UNL     1      -1.031  15.690  24.322  0.00  0.00    +0.000 C 
ENDBRANCH  12  27
TORSDOF 2
ENDMDL
MODEL 8
REMARK VINA RESULT:      -6.2      2.621      5.718
REMARK  Name = 
REMARK  4 active torsions:
REMARK  status: ('A' for Active; 'I' for Inactive)
REMARK    1  A    between atoms: C_1  and  C_2
REMARK    2  A    between atoms: C_2  and  N_3
REMARK    3  A    between atoms: C_14  and  O_15
REMARK    4  A    between atoms: O_15  and  C_16
REMARK                            x       y       z     vdW  Elec       q    Type
REMARK                         _______ _______ _______ _____ _____    ______ ____
ROOT
ATOM      1  N   UNL     1      -3.056   9.667  14.881  0.00  0.00    +0.000 N 
ATOM      2  C   UNL     1      -3.136  10.373  16.077  0.00  0.00    +0.000 A 
ATOM      3  N   UNL     1      -1.990  10.505  16.759  0.00  0.00    +0.000 NA
ATOM      4  C   UNL     1      -2.013  11.191  17.923  0.00  0.00    +0.000 A 
ATOM      5  N   UNL     1      -0.788  11.336  18.613  0.00  0.00    +0.000 N 
ATOM      6  C   UNL     1       0.183  10.238  18.465  0.00  0.00    +0.000 C 
ATOM      7  C   UNL     1       0.843   9.890  19.802  0.00  0.00    +0.000 C 
ATOM      8  O   UNL     1       1.257   8.766  20.081  0.00  0.00    +0.000 OA
ATOM      9  N   UNL     1       1.062  10.943  20.666  0.00  0.00    +0.000 N 
ATOM     10  C   UNL     1       0.620  12.240  20.383  0.00  0.00    +0.000 A 
ATOM     11  C   UNL     1       1.031  13.293  21.207  0.00  0.00    +0.000 A 
ATOM     12  C   UNL     1       0.591  14.590  20.940  0.00  0.00    +0.000 A 
ATOM     13  C   UNL     1      -0.248  14.818  19.848  0.00  0.00    +0.000 A 
ATOM     14  C   UNL     1      -0.664  13.761  19.033  0.00  0.00    +0.000 A 
ATOM     15  C   UNL     1      -0.266  12.450  19.310  0.00  0.00    +0.000 A 
ATOM     16  C   UNL     1      -3.219  11.723  18.439  0.00  0.00    +0.000 A 
ATOM     17  C   UNL     1      -3.407  12.392  19.687  0.00  0.00    +0.000 A 
ATOM     18  C   UNL     1      -4.637  12.921  20.071  0.00  0.00    +0.000 A 
ATOM     19  C   UNL     1      -5.731  12.736  19.245  0.00  0.00    +0.000 A 
ATOM     20  C   UNL     1      -5.574  12.034  18.051  0.00  0.00    +0.000 A 
ATOM     21  C   UNL     1      -4.347  11.531  17.634  0.00  0.00    +0.000 A 
ATOM     22  N   UNL     1      -4.301  10.877  16.475  0.00  0.00    +0.000 NA
ATOM     23  H   UNL     1      -2.083   9.663  14.610  0.00  0.00    +0.000 HD
ATOM     24  H   UNL     1       1.587  10.734  21.504  0.00  0.00    +0.000 HD
ENDROOT
BRANCH   1  26
ATOM     25  C   UNL     1      -3.487   9.712  12.488  0.00  0.00    +0.000 C 
ATOM     26  C   UNL     1      -4.005  10.095  13.864  0.00  0.00    +0.000 C 
ENDBRANCH   1  26
BRANCH  12  27
ATOM     27  O   UNL     1       0.905  15.710  21.659  0.00  0.00    +0.000 OA
ATOM     28  C   UNL     1       0.828  16.955  20.976  0.00  0.00    +0.000 C 
ENDBRANCH  12  27
TORSDOF 2
ENDMDL
MODEL 9
REMARK VINA RESULT:      -6.2      3.055      4.281
REMARK  Name = 
REMARK  4 active torsions:
REMARK  status: ('A' for Active; 'I' for Inactive)
REMARK    1  A    between atoms: C_1  and  C_2
REMARK    2  A    between atoms: C_2  and  N_3
REMARK    3  A    between atoms: C_14  and  O_15
REMARK    4  A    between atoms: O_15  and  C_16
REMARK                            x       y       z     vdW  Elec       q    Type
REMARK                         _______ _______ _______ _____ _____    ______ ____
ROOT
ATOM      1  N   UNL     1      -3.077  14.745  21.398  0.00  0.00    +0.000 N 
ATOM      2  C   UNL     1      -1.860  14.282  20.909  0.00  0.00    +0.000 A 
ATOM      3  N   UNL     1      -1.577  12.996  21.159  0.00  0.00    +0.000 NA
ATOM      4  C   UNL     1      -0.409  12.497  20.697  0.00  0.00    +0.000 A 
ATOM      5  N   UNL     1      -0.142  11.133  20.954  0.00  0.00    +0.000 N 
ATOM      6  C   UNL     1      -0.698  10.578  22.201  0.00  0.00    +0.000 C 
ATOM      7  C   UNL     1       0.315   9.678  22.914  0.00  0.00    +0.000 C 
ATOM      8  O   UNL     1       0.339   9.519  24.134  0.00  0.00    +0.000 OA
ATOM      9  N   UNL     1       1.155   8.945  22.103  0.00  0.00    +0.000 N 
ATOM     10  C   UNL     1       1.153   9.084  20.711  0.00  0.00    +0.000 A 
ATOM     11  C   UNL     1       1.895   8.186  19.936  0.00  0.00    +0.000 A 
ATOM     12  C   UNL     1       1.906   8.318  18.547  0.00  0.00    +0.000 A 
ATOM     13  C   UNL     1       1.170   9.344  17.951  0.00  0.00    +0.000 A 
ATOM     14  C   UNL     1       0.439  10.246  18.729  0.00  0.00    +0.000 A 
ATOM     15  C   UNL     1       0.449  10.152  20.125  0.00  0.00    +0.000 A 
ATOM     16  C   UNL     1       0.517  13.313  20.003  0.00  0.00    +0.000 A 
ATOM     17  C   UNL     1       1.815  12.945  19.536  0.00  0.00    +0.000 A 
ATOM     18  C   UNL     1       2.624  13.822  18.817  0.00  0.00    +0.000 A 
ATOM     19  C   UNL     1       2.183  15.115  18.604  0.00  0.00    +0.000 A 
ATOM     20  C   UNL     1       0.943  15.505  19.107  0.00  0.00    +0.000 A 
ATOM     21  C   UNL     1       0.107  14.634  19.794  0.00  0.00    +0.000 A 
ATOM     22  N   UNL     1      -1.061  15.102  20.231  0.00  0.00    +0.000 NA
ATOM     23  H   UNL     1      -3.648  13.929  21.575  0.00  0.00    +0.000 HD
ATOM     24  H   UNL     1       1.755   8.276  22.567  0.00  0.00    +0.000 HD
ENDROOT
BRANCH   1  26
ATOM     25  C   UNL     1      -4.794  16.468  21.394  0.00  0.00    +0.000 C 
ATOM     26  C   UNL     1      -3.688  15.795  20.597  0.00  0.00    +0.000 C 
ENDBRANCH   1  26
BRANCH  12  27
ATOM     27  O   UNL     1       2.586   7.522  17.669  0.00  0.00    +0.000 OA
ATOM     28  C   UNL     1       2.920   6.213  18.113  0.00  0.00    +0.000 C 
ENDBRANCH  12  27
TORSDOF 2
ENDMDL
