MODEL 1
REMARK VINA RESULT:      -8.7      0.000      0.000
REMARK  Name = 
REMARK  13 active torsions:
REMARK  status: ('A' for Active; 'I' for Inactive)
REMARK    1  A    between atoms: C_1  and  O_2
REMARK    2  A    between atoms: O_2  and  C_3
REMARK    3  A    between atoms: C_6  and  C_7
REMARK    4  A    between atoms: C_7  and  C_8
REMARK    5  A    between atoms: C_8  and  N_9
REMARK    6  A    between atoms: N_9  and  C_10
REMARK    7  A    between atoms: C_10  and  C_11
REMARK    8  A    between atoms: C_11  and  O_12
REMARK    9  A    between atoms: C_11  and  C_13
REMARK   10  A    between atoms: C_13  and  O_14
REMARK   11  A    between atoms: O_14  and  C_15
REMARK   12  A    between atoms: C_31  and  O_32
REMARK   13  A    between atoms: O_32  and  C_33
REMARK                            x       y       z     vdW  Elec       q    Type
REMARK                         _______ _______ _______ _____ _____    ______ ____
ROOT
ATOM      1  C   UNL     1       1.587   4.088  20.718  0.00  0.00    +0.000 C 
ENDROOT
BRANCH   1   2
ATOM      2  O   UNL     1       2.330   3.207  21.567  0.00  0.00    +0.000 OA
ATOM      3  H   UNL     1       1.916   2.329  21.461  0.00  0.00    +0.000 HD
ENDBRANCH   1   2
BRANCH   1   4
ATOM      4  C   UNL     1       1.227   3.349  19.404  0.00  0.00    +0.000 C 
BRANCH   4   5
ATOM      5  N   UNL     1       1.740   4.047  18.206  0.00  0.00    +0.000 NA
ATOM      6  H   UNL     1       0.960   4.382  17.638  0.00  0.00    +0.000 HD
BRANCH   5   7
ATOM      7  C   UNL     1       2.540   3.127  17.379  0.00  0.00    +0.000 C 
BRANCH   7   8
ATOM      8  C   UNL     1       3.944   2.936  17.977  0.00  0.00    +0.000 C 
BRANCH   8  12
ATOM      9  C   UNL     1       6.715   6.101  16.955  0.00  0.00    +0.000 A 
ATOM     10  C   UNL     1       6.256   5.945  18.274  0.00  0.00    +0.000 A 
ATOM     11  C   UNL     1       5.352   4.935  18.608  0.00  0.00    +0.000 A 
ATOM     12  C   UNL     1       4.854   4.087  17.619  0.00  0.00    +0.000 A 
ATOM     13  C   UNL     1       5.247   4.294  16.289  0.00  0.00    +0.000 A 
ATOM     14  C   UNL     1       6.169   5.296  15.945  0.00  0.00    +0.000 A 
BRANCH   9  16
ATOM     15  C   UNL     1       7.898   8.047  17.625  0.00  0.00    +0.000 C 
ATOM     16  O   UNL     1       7.661   7.042  16.640  0.00  0.00    +0.000 OA
ENDBRANCH   9  16
BRANCH  14  17
ATOM     17  O   UNL     1       6.423   5.311  14.598  0.00  0.00    +0.000 OA
ATOM     18  C   UNL     1       6.291   4.111  13.850  0.00  0.00    +0.000 C 
ENDBRANCH  14  17
ENDBRANCH   8  12
ENDBRANCH   7   8
ENDBRANCH   5   7
ENDBRANCH   4   5
ENDBRANCH   1   4
BRANCH   1  19
ATOM     19  C   UNL     1       2.391   5.365  20.439  0.00  0.00    +0.000 C 
BRANCH  19  20
ATOM     20  O   UNL     1       1.681   6.531  20.896  0.00  0.00    +0.000 OA
BRANCH  20  21
ATOM     21  C   UNL     1       1.730   7.587  20.016  0.00  0.00    +0.000 A 
ATOM     22  C   UNL     1       2.377   7.345  18.798  0.00  0.00    +0.000 A 
ATOM     23  C   UNL     1       2.469   8.348  17.828  0.00  0.00    +0.000 A 
ATOM     24  C   UNL     1       1.851   9.578  18.039  0.00  0.00    +0.000 A 
ATOM     25  C   UNL     1       1.186   9.810  19.247  0.00  0.00    +0.000 A 
ATOM     26  C   UNL     1       0.376  11.023  19.443  0.00  0.00    +0.000 A 
ATOM     27  O   UNL     1       0.298  11.891  18.585  0.00  0.00    +0.000 OA
ATOM     28  C   UNL     1      -0.378  11.115  20.703  0.00  0.00    +0.000 A 
ATOM     29  C   UNL     1      -1.366  12.078  20.898  0.00  0.00    +0.000 A 
ATOM     30  C   UNL     1      -2.007  12.164  22.136  0.00  0.00    +0.000 A 
ATOM     31  C   UNL     1      -1.637  11.312  23.178  0.00  0.00    +0.000 A 
ATOM     32  C   UNL     1      -0.670  10.329  22.965  0.00  0.00    +0.000 A 
ATOM     33  C   UNL     1      -0.070  10.209  21.711  0.00  0.00    +0.000 A 
ATOM     34  O   UNL     1       0.788   9.159  21.542  0.00  0.00    +0.000 OA
ATOM     35  C   UNL     1       1.205   8.857  20.267  0.00  0.00    +0.000 A 
ENDBRANCH  20  21
ENDBRANCH  19  20
ENDBRANCH   1  19
TORSDOF 11
ENDMDL
MODEL 2
REMARK VINA RESULT:      -8.4      1.261      2.292
REMARK  Name = 
REMARK  13 active torsions:
REMARK  status: ('A' for Active; 'I' for Inactive)
REMARK    1  A    between atoms: C_1  and  O_2
REMARK    2  A    between atoms: O_2  and  C_3
REMARK    3  A    between atoms: C_6  and  C_7
REMARK    4  A    between atoms: C_7  and  C_8
REMARK    5  A    between atoms: C_8  and  N_9
REMARK    6  A    between atoms: N_9  and  C_10
REMARK    7  A    between atoms: C_10  and  C_11
REMARK    8  A    between atoms: C_11  and  O_12
REMARK    9  A    between atoms: C_11  and  C_13
REMARK   10  A    between atoms: C_13  and  O_14
REMARK   11  A    between atoms: O_14  and  C_15
REMARK   12  A    between atoms: C_31  and  O_32
REMARK   13  A    between atoms: O_32  and  C_33
REMARK                            x       y       z     vdW  Elec       q    Type
REMARK                         _______ _______ _______ _____ _____    ______ ____
ROOT
ATOM      1  C   UNL     1       2.063   2.898  21.153  0.00  0.00    +0.000 C 
ENDROOT
BRANCH   1   2
ATOM      2  O   UNL     1       2.276   3.352  22.494  0.00  0.00    +0.000 OA
ATOM      3  H   UNL     1       3.036   3.963  22.447  0.00  0.00    +0.000 HD
ENDBRANCH   1   2
BRANCH   1   4
ATOM      4  C   UNL     1       3.410   2.419  20.555  0.00  0.00    +0.000 C 
BRANCH   4   5
ATOM      5  N   UNL     1       3.334   2.209  19.093  0.00  0.00    +0.000 NA
ATOM      6  H   UNL     1       3.436   1.216  18.879  0.00  0.00    +0.000 HD
BRANCH   5   7
ATOM      7  C   UNL     1       4.424   2.933  18.414  0.00  0.00    +0.000 C 
BRANCH   7   8
ATOM      8  C   UNL     1       3.939   3.521  17.079  0.00  0.00    +0.000 C 
BRANCH   8  12
ATOM      9  C   UNL     1       7.136   5.106  14.628  0.00  0.00    +0.000 A 
ATOM     10  C   UNL     1       6.332   4.049  14.167  0.00  0.00    +0.000 A 
ATOM     11  C   UNL     1       5.309   3.524  14.957  0.00  0.00    +0.000 A 
ATOM     12  C   UNL     1       5.096   4.017  16.245  0.00  0.00    +0.000 A 
ATOM     13  C   UNL     1       5.950   5.014  16.738  0.00  0.00    +0.000 A 
ATOM     14  C   UNL     1       6.972   5.560  15.944  0.00  0.00    +0.000 A 
BRANCH   9  16
ATOM     15  C   UNL     1       7.927   5.477  12.421  0.00  0.00    +0.000 C 
ATOM     16  O   UNL     1       8.090   5.673  13.825  0.00  0.00    +0.000 OA
ENDBRANCH   9  16
BRANCH  14  17
ATOM     17  O   UNL     1       7.673   6.528  16.617  0.00  0.00    +0.000 OA
ATOM     18  C   UNL     1       7.617   6.572  18.035  0.00  0.00    +0.000 C 
ENDBRANCH  14  17
ENDBRANCH   8  12
ENDBRANCH   7   8
ENDBRANCH   5   7
ENDBRANCH   4   5
ENDBRANCH   1   4
BRANCH   1  19
ATOM     19  C   UNL     1       1.440   4.014  20.305  0.00  0.00    +0.000 C 
BRANCH  19  20
ATOM     20  O   UNL     1       1.569   5.291  20.957  0.00  0.00    +0.000 OA
BRANCH  20  21
ATOM     21  C   UNL     1       1.854   6.325  20.096  0.00  0.00    +0.000 A 
ATOM     22  C   UNL     1       2.493   5.972  18.901  0.00  0.00    +0.000 A 
ATOM     23  C   UNL     1       2.815   6.946  17.950  0.00  0.00    +0.000 A 
ATOM     24  C   UNL     1       2.435   8.271  18.156  0.00  0.00    +0.000 A 
ATOM     25  C   UNL     1       1.778   8.616  19.340  0.00  0.00    +0.000 A 
ATOM     26  C   UNL     1       1.206   9.961  19.522  0.00  0.00    +0.000 A 
ATOM     27  O   UNL     1       1.331  10.834  18.676  0.00  0.00    +0.000 OA
ATOM     28  C   UNL     1       0.433  10.186  20.753  0.00  0.00    +0.000 A 
ATOM     29  C   UNL     1      -0.361  11.319  20.924  0.00  0.00    +0.000 A 
ATOM     30  C   UNL     1      -1.024  11.517  22.138  0.00  0.00    +0.000 A 
ATOM     31  C   UNL     1      -0.866  10.601  23.181  0.00  0.00    +0.000 A 
ATOM     32  C   UNL     1      -0.097   9.454  22.991  0.00  0.00    +0.000 A 
ATOM     33  C   UNL     1       0.520   9.230  21.759  0.00  0.00    +0.000 A 
ATOM     34  O   UNL     1       1.168   8.036  21.607  0.00  0.00    +0.000 OA
ATOM     35  C   UNL     1       1.572   7.670  20.346  0.00  0.00    +0.000 A 
ENDBRANCH  20  21
ENDBRANCH  19  20
ENDBRANCH   1  19
TORSDOF 11
ENDMDL
MODEL 3
REMARK VINA RESULT:      -8.1      1.233      1.364
REMARK  Name = 
REMARK  13 active torsions:
REMARK  status: ('A' for Active; 'I' for Inactive)
REMARK    1  A    between atoms: C_1  and  O_2
REMARK    2  A    between atoms: O_2  and  C_3
REMARK    3  A    between atoms: C_6  and  C_7
REMARK    4  A    between atoms: C_7  and  C_8
REMARK    5  A    between atoms: C_8  and  N_9
REMARK    6  A    between atoms: N_9  and  C_10
REMARK    7  A    between atoms: C_10  and  C_11
REMARK    8  A    between atoms: C_11  and  O_12
REMARK    9  A    between atoms: C_11  and  C_13
REMARK   10  A    between atoms: C_13  and  O_14
REMARK   11  A    between atoms: O_14  and  C_15
REMARK   12  A    between atoms: C_31  and  O_32
REMARK   13  A    between atoms: O_32  and  C_33
REMARK                            x       y       z     vdW  Elec       q    Type
REMARK                         _______ _______ _______ _____ _____    ______ ____
ROOT
ATOM      1  C   UNL     1       1.528   3.880  18.963  0.00  0.00    +0.000 C 
ENDROOT
BRANCH   1   2
ATOM      2  O   UNL     1       0.867   4.149  17.722  0.00  0.00    +0.000 OA
ATOM      3  H   UNL     1      -0.030   4.450  17.963  0.00  0.00    +0.000 HD
ENDBRANCH   1   2
BRANCH   1   4
ATOM      4  C   UNL     1       1.207   2.431  19.411  0.00  0.00    +0.000 C 
BRANCH   4   5
ATOM      5  N   UNL     1       2.166   1.446  18.865  0.00  0.00    +0.000 NA
ATOM      6  H   UNL     1       2.130   0.586  19.414  0.00  0.00    +0.000 HD
BRANCH   5   7
ATOM      7  C   UNL     1       3.539   1.974  18.937  0.00  0.00    +0.000 C 
BRANCH   7   8
ATOM      8  C   UNL     1       3.999   2.488  17.563  0.00  0.00    +0.000 C 
BRANCH   8  12
ATOM      9  C   UNL     1       6.964   5.612  18.003  0.00  0.00    +0.000 A 
ATOM     10  C   UNL     1       6.075   5.312  19.049  0.00  0.00    +0.000 A 
ATOM     11  C   UNL     1       5.108   4.315  18.909  0.00  0.00    +0.000 A 
ATOM     12  C   UNL     1       4.981   3.627  17.702  0.00  0.00    +0.000 A 
ATOM     13  C   UNL     1       5.812   3.983  16.630  0.00  0.00    +0.000 A 
ATOM     14  C   UNL     1       6.800   4.973  16.766  0.00  0.00    +0.000 A 
BRANCH   9  16
ATOM     15  C   UNL     1       7.690   7.848  17.675  0.00  0.00    +0.000 C 
ATOM     16  O   UNL     1       7.963   6.536  18.165  0.00  0.00    +0.000 OA
ENDBRANCH   9  16
BRANCH  14  17
ATOM     17  O   UNL     1       7.506   5.147  15.604  0.00  0.00    +0.000 OA
ATOM     18  C   UNL     1       6.882   4.862  14.360  0.00  0.00    +0.000 C 
ENDBRANCH  14  17
ENDBRANCH   8  12
ENDBRANCH   7   8
ENDBRANCH   5   7
ENDBRANCH   4   5
ENDBRANCH   1   4
BRANCH   1  19
ATOM     19  C   UNL     1       1.104   4.900  20.027  0.00  0.00    +0.000 C 
BRANCH  19  20
ATOM     20  O   UNL     1       2.187   5.795  20.345  0.00  0.00    +0.000 OA
BRANCH  20  21
ATOM     21  C   UNL     1       2.200   6.939  19.584  0.00  0.00    +0.000 A 
ATOM     22  C   UNL     1       2.768   6.825  18.309  0.00  0.00    +0.000 A 
ATOM     23  C   UNL     1       2.818   7.927  17.449  0.00  0.00    +0.000 A 
ATOM     24  C   UNL     1       2.234   9.133  17.830  0.00  0.00    +0.000 A 
ATOM     25  C   UNL     1       1.649   9.238  19.095  0.00  0.00    +0.000 A 
ATOM     26  C   UNL     1       0.872  10.431  19.471  0.00  0.00    +0.000 A 
ATOM     27  O   UNL     1       0.757  11.388  18.719  0.00  0.00    +0.000 OA
ATOM     28  C   UNL     1       0.198  10.393  20.778  0.00  0.00    +0.000 A 
ATOM     29  C   UNL     1      -0.761  11.339  21.137  0.00  0.00    +0.000 A 
ATOM     30  C   UNL     1      -1.324  11.296  22.415  0.00  0.00    +0.000 A 
ATOM     31  C   UNL     1      -0.905  10.331  23.333  0.00  0.00    +0.000 A 
ATOM     32  C   UNL     1       0.031   9.368  22.956  0.00  0.00    +0.000 A 
ATOM     33  C   UNL     1       0.551   9.379  21.661  0.00  0.00    +0.000 A 
ATOM     34  O   UNL     1       1.380   8.345  21.326  0.00  0.00    +0.000 OA
ATOM     35  C   UNL     1       1.713   8.180  20.003  0.00  0.00    +0.000 A 
ENDBRANCH  20  21
ENDBRANCH  19  20
ENDBRANCH   1  19
TORSDOF 11
ENDMDL
MODEL 4
REMARK VINA RESULT:      -8.1      0.996      2.069
REMARK  Name = 
REMARK  13 active torsions:
REMARK  status: ('A' for Active; 'I' for Inactive)
REMARK    1  A    between atoms: C_1  and  O_2
REMARK    2  A    between atoms: O_2  and  C_3
REMARK    3  A    between atoms: C_6  and  C_7
REMARK    4  A    between atoms: C_7  and  C_8
REMARK    5  A    between atoms: C_8  and  N_9
REMARK    6  A    between atoms: N_9  and  C_10
REMARK    7  A    between atoms: C_10  and  C_11
REMARK    8  A    between atoms: C_11  and  O_12
REMARK    9  A    between atoms: C_11  and  C_13
REMARK   10  A    between atoms: C_13  and  O_14
REMARK   11  A    between atoms: O_14  and  C_15
REMARK   12  A    between atoms: C_31  and  O_32
REMARK   13  A    between atoms: O_32  and  C_33
REMARK                            x       y       z     vdW  Elec       q    Type
REMARK                         _______ _______ _______ _____ _____    ______ ____
ROOT
ATOM      1  C   UNL     1       1.256   4.046  20.044  0.00  0.00    +0.000 C 
ENDROOT
BRANCH   1   2
ATOM      2  O   UNL     1       0.100   3.207  20.133  0.00  0.00    +0.000 OA
ATOM      3  H   UNL     1      -0.663   3.792  19.963  0.00  0.00    +0.000 HD
ENDBRANCH   1   2
BRANCH   1   4
ATOM      4  C   UNL     1       2.403   3.430  20.886  0.00  0.00    +0.000 C 
BRANCH   4   5
ATOM      5  N   UNL     1       3.224   2.478  20.108  0.00  0.00    +0.000 NA
ATOM      6  H   UNL     1       4.084   2.264  20.616  0.00  0.00    +0.000 HD
BRANCH   5   7
ATOM      7  C   UNL     1       3.599   3.065  18.810  0.00  0.00    +0.000 C 
BRANCH   7   8
ATOM      8  C   UNL     1       4.668   4.155  18.992  0.00  0.00    +0.000 C 
BRANCH   8  12
ATOM      9  C   UNL     1       6.611   5.105  15.242  0.00  0.00    +0.000 A 
ATOM     10  C   UNL     1       5.742   4.005  15.343  0.00  0.00    +0.000 A 
ATOM     11  C   UNL     1       5.123   3.685  16.552  0.00  0.00    +0.000 A 
ATOM     12  C   UNL     1       5.395   4.433  17.698  0.00  0.00    +0.000 A 
ATOM     13  C   UNL     1       6.326   5.479  17.618  0.00  0.00    +0.000 A 
ATOM     14  C   UNL     1       6.941   5.820  16.402  0.00  0.00    +0.000 A 
BRANCH   9  16
ATOM     15  C   UNL     1       7.112   4.483  13.006  0.00  0.00    +0.000 C 
ATOM     16  O   UNL     1       7.160   5.466  14.039  0.00  0.00    +0.000 OA
ENDBRANCH   9  16
BRANCH  14  17
ATOM     17  O   UNL     1       7.800   6.879  16.548  0.00  0.00    +0.000 OA
ATOM     18  C   UNL     1       7.627   7.771  17.639  0.00  0.00    +0.000 C 
ENDBRANCH  14  17
ENDBRANCH   8  12
ENDBRANCH   7   8
ENDBRANCH   5   7
ENDBRANCH   4   5
ENDBRANCH   1   4
BRANCH   1  19
ATOM     19  C   UNL     1       0.922   5.468  20.512  0.00  0.00    +0.000 C 
BRANCH  19  20
ATOM     20  O   UNL     1       2.106   6.286  20.567  0.00  0.00    +0.000 OA
BRANCH  20  21
ATOM     21  C   UNL     1       2.062   7.378  19.733  0.00  0.00    +0.000 A 
ATOM     22  C   UNL     1       2.638   7.210  18.467  0.00  0.00    +0.000 A 
ATOM     23  C   UNL     1       2.633   8.255  17.537  0.00  0.00    +0.000 A 
ATOM     24  C   UNL     1       1.987   9.452  17.840  0.00  0.00    +0.000 A 
ATOM     25  C   UNL     1       1.394   9.609  19.096  0.00  0.00    +0.000 A 
ATOM     26  C   UNL     1       0.556  10.782  19.394  0.00  0.00    +0.000 A 
ATOM     27  O   UNL     1       0.394  11.681  18.582  0.00  0.00    +0.000 OA
ATOM     28  C   UNL     1      -0.118  10.794  20.702  0.00  0.00    +0.000 A 
ATOM     29  C   UNL     1      -1.124  11.711  21.000  0.00  0.00    +0.000 A 
ATOM     30  C   UNL     1      -1.687  11.723  22.279  0.00  0.00    +0.000 A 
ATOM     31  C   UNL     1      -1.221  10.842  23.258  0.00  0.00    +0.000 A 
ATOM     32  C   UNL     1      -0.236   9.906  22.942  0.00  0.00    +0.000 A 
ATOM     33  C   UNL     1       0.285   9.860  21.649  0.00  0.00    +0.000 A 
ATOM     34  O   UNL     1       1.167   8.850  21.381  0.00  0.00    +0.000 OA
ATOM     35  C   UNL     1       1.510   8.616  20.071  0.00  0.00    +0.000 A 
ENDBRANCH  20  21
ENDBRANCH  19  20
ENDBRANCH   1  19
TORSDOF 11
ENDMDL
MODEL 5
REMARK VINA RESULT:      -8.1      1.129      1.879
REMARK  Name = 
REMARK  13 active torsions:
REMARK  status: ('A' for Active; 'I' for Inactive)
REMARK    1  A    between atoms: C_1  and  O_2
REMARK    2  A    between atoms: O_2  and  C_3
REMARK    3  A    between atoms: C_6  and  C_7
REMARK    4  A    between atoms: C_7  and  C_8
REMARK    5  A    between atoms: C_8  and  N_9
REMARK    6  A    between atoms: N_9  and  C_10
REMARK    7  A    between atoms: C_10  and  C_11
REMARK    8  A    between atoms: C_11  and  O_12
REMARK    9  A    between atoms: C_11  and  C_13
REMARK   10  A    between atoms: C_13  and  O_14
REMARK   11  A    between atoms: O_14  and  C_15
REMARK   12  A    between atoms: C_31  and  O_32
REMARK   13  A    between atoms: O_32  and  C_33
REMARK                            x       y       z     vdW  Elec       q    Type
REMARK                         _______ _______ _______ _____ _____    ______ ____
ROOT
ATOM      1  C   UNL     1       1.913   3.292  20.706  0.00  0.00    +0.000 C 
ENDROOT
BRANCH   1   2
ATOM      2  O   UNL     1       3.245   3.632  21.105  0.00  0.00    +0.000 OA
ATOM      3  H   UNL     1       3.688   2.782  21.290  0.00  0.00    +0.000 HD
ENDBRANCH   1   2
BRANCH   1   4
ATOM      4  C   UNL     1       1.971   2.298  19.518  0.00  0.00    +0.000 C 
BRANCH   4   5
ATOM      5  N   UNL     1       3.346   1.829  19.243  0.00  0.00    +0.000 NA
ATOM      6  H   UNL     1       4.020   2.429  19.719  0.00  0.00    +0.000 HD
BRANCH   5   7
ATOM      7  C   UNL     1       3.628   1.887  17.798  0.00  0.00    +0.000 C 
BRANCH   7   8
ATOM      8  C   UNL     1       3.299   3.279  17.233  0.00  0.00    +0.000 C 
BRANCH   8  12
ATOM      9  C   UNL     1       6.737   5.892  16.931  0.00  0.00    +0.000 A 
ATOM     10  C   UNL     1       6.101   5.403  15.777  0.00  0.00    +0.000 A 
ATOM     11  C   UNL     1       5.001   4.549  15.867  0.00  0.00    +0.000 A 
ATOM     12  C   UNL     1       4.540   4.132  17.116  0.00  0.00    +0.000 A 
ATOM     13  C   UNL     1       5.225   4.552  18.265  0.00  0.00    +0.000 A 
ATOM     14  C   UNL     1       6.322   5.424  18.186  0.00  0.00    +0.000 A 
BRANCH   9  16
ATOM     15  C   UNL     1       7.525   8.080  17.405  0.00  0.00    +0.000 C 
ATOM     16  O   UNL     1       7.768   6.791  16.845  0.00  0.00    +0.000 OA
ENDBRANCH   9  16
BRANCH  14  17
ATOM     17  O   UNL     1       6.827   5.717  19.427  0.00  0.00    +0.000 OA
ATOM     18  C   UNL     1       8.160   5.344  19.743  0.00  0.00    +0.000 C 
ENDBRANCH  14  17
ENDBRANCH   8  12
ENDBRANCH   7   8
ENDBRANCH   5   7
ENDBRANCH   4   5
ENDBRANCH   1   4
BRANCH   1  19
ATOM     19  C   UNL     1       1.125   4.556  20.339  0.00  0.00    +0.000 C 
BRANCH  19  20
ATOM     20  O   UNL     1       1.721   5.725  20.932  0.00  0.00    +0.000 OA
BRANCH  20  21
ATOM     21  C   UNL     1       1.863   6.776  20.057  0.00  0.00    +0.000 A 
ATOM     22  C   UNL     1       2.484   6.482  18.837  0.00  0.00    +0.000 A 
ATOM     23  C   UNL     1       2.664   7.478  17.871  0.00  0.00    +0.000 A 
ATOM     24  C   UNL     1       2.159   8.758  18.089  0.00  0.00    +0.000 A 
ATOM     25  C   UNL     1       1.521   9.043  19.299  0.00  0.00    +0.000 A 
ATOM     26  C   UNL     1       0.823  10.323  19.502  0.00  0.00    +0.000 A 
ATOM     27  O   UNL     1       0.822  11.199  18.649  0.00  0.00    +0.000 OA
ATOM     28  C   UNL     1       0.084  10.477  20.765  0.00  0.00    +0.000 A 
ATOM     29  C   UNL     1      -0.814  11.524  20.966  0.00  0.00    +0.000 A 
ATOM     30  C   UNL     1      -1.442  11.662  22.207  0.00  0.00    +0.000 A 
ATOM     31  C   UNL     1      -1.148  10.774  23.244  0.00  0.00    +0.000 A 
ATOM     32  C   UNL     1      -0.273   9.710  23.024  0.00  0.00    +0.000 A 
ATOM     33  C   UNL     1       0.311   9.542  21.768  0.00  0.00    +0.000 A 
ATOM     34  O   UNL     1       1.071   8.420  21.592  0.00  0.00    +0.000 OA
ATOM     35  C   UNL     1       1.455   8.087  20.315  0.00  0.00    +0.000 A 
ENDBRANCH  20  21
ENDBRANCH  19  20
ENDBRANCH   1  19
TORSDOF 11
ENDMDL
MODEL 6
REMARK VINA RESULT:      -7.8      1.109      2.010
REMARK  Name = 
REMARK  13 active torsions:
REMARK  status: ('A' for Active; 'I' for Inactive)
REMARK    1  A    between atoms: C_1  and  O_2
REMARK    2  A    between atoms: O_2  and  C_3
REMARK    3  A    between atoms: C_6  and  C_7
REMARK    4  A    between atoms: C_7  and  C_8
REMARK    5  A    between atoms: C_8  and  N_9
REMARK    6  A    between atoms: N_9  and  C_10
REMARK    7  A    between atoms: C_10  and  C_11
REMARK    8  A    between atoms: C_11  and  O_12
REMARK    9  A    between atoms: C_11  and  C_13
REMARK   10  A    between atoms: C_13  and  O_14
REMARK   11  A    between atoms: O_14  and  C_15
REMARK   12  A    between atoms: C_31  and  O_32
REMARK   13  A    between atoms: O_32  and  C_33
REMARK                            x       y       z     vdW  Elec       q    Type
REMARK                         _______ _______ _______ _____ _____    ______ ____
ROOT
ATOM      1  C   UNL     1       1.807   3.179  21.567  0.00  0.00    +0.000 C 
ENDROOT
BRANCH   1   2
ATOM      2  O   UNL     1       2.875   2.409  22.130  0.00  0.00    +0.000 OA
ATOM      3  H   UNL     1       3.309   2.997  22.778  0.00  0.00    +0.000 HD
ENDBRANCH   1   2
BRANCH   1   4
ATOM      4  C   UNL     1       1.232   2.433  20.336  0.00  0.00    +0.000 C 
BRANCH   4   5
ATOM      5  N   UNL     1       1.765   2.956  19.060  0.00  0.00    +0.000 NA
ATOM      6  H   UNL     1       1.068   2.849  18.322  0.00  0.00    +0.000 HD
BRANCH   5   7
ATOM      7  C   UNL     1       2.968   2.204  18.661  0.00  0.00    +0.000 C 
BRANCH   7   8
ATOM      8  C   UNL     1       4.243   2.929  19.122  0.00  0.00    +0.000 C 
BRANCH   8  12
ATOM      9  C   UNL     1       6.080   5.083  15.847  0.00  0.00    +0.000 A 
ATOM     10  C   UNL     1       5.121   4.084  15.604  0.00  0.00    +0.000 A 
ATOM     11  C   UNL     1       4.535   3.377  16.654  0.00  0.00    +0.000 A 
ATOM     12  C   UNL     1       4.928   3.624  17.969  0.00  0.00    +0.000 A 
ATOM     13  C   UNL     1       5.945   4.560  18.208  0.00  0.00    +0.000 A 
ATOM     14  C   UNL     1       6.529   5.289  17.159  0.00  0.00    +0.000 A 
BRANCH   9  16
ATOM     15  C   UNL     1       7.369   5.120  13.854  0.00  0.00    +0.000 C 
ATOM     16  O   UNL     1       6.600   5.831  14.823  0.00  0.00    +0.000 OA
ENDBRANCH   9  16
BRANCH  14  17
ATOM     17  O   UNL     1       7.485   6.158  17.618  0.00  0.00    +0.000 OA
ATOM     18  C   UNL     1       7.849   6.134  18.990  0.00  0.00    +0.000 C 
ENDBRANCH  14  17
ENDBRANCH   8  12
ENDBRANCH   7   8
ENDBRANCH   5   7
ENDBRANCH   4   5
ENDBRANCH   1   4
BRANCH   1  19
ATOM     19  C   UNL     1       2.301   4.581  21.190  0.00  0.00    +0.000 C 
BRANCH  19  20
ATOM     20  O   UNL     1       1.224   5.385  20.672  0.00  0.00    +0.000 OA
BRANCH  20  21
ATOM     21  C   UNL     1       1.647   6.455  19.918  0.00  0.00    +0.000 A 
ATOM     22  C   UNL     1       2.369   6.145  18.760  0.00  0.00    +0.000 A 
ATOM     23  C   UNL     1       2.833   7.159  17.916  0.00  0.00    +0.000 A 
ATOM     24  C   UNL     1       2.514   8.488  18.186  0.00  0.00    +0.000 A 
ATOM     25  C   UNL     1       1.774   8.793  19.332  0.00  0.00    +0.000 A 
ATOM     26  C   UNL     1       1.268  10.156  19.564  0.00  0.00    +0.000 A 
ATOM     27  O   UNL     1       1.520  11.076  18.799  0.00  0.00    +0.000 OA
ATOM     28  C   UNL     1       0.401  10.346  20.738  0.00  0.00    +0.000 A 
ATOM     29  C   UNL     1      -0.336  11.513  20.923  0.00  0.00    +0.000 A 
ATOM     30  C   UNL     1      -1.094  11.670  22.087  0.00  0.00    +0.000 A 
ATOM     31  C   UNL     1      -1.086  10.676  23.068  0.00  0.00    +0.000 A 
ATOM     32  C   UNL     1      -0.371   9.496  22.860  0.00  0.00    +0.000 A 
ATOM     33  C   UNL     1       0.341   9.319  21.673  0.00  0.00    +0.000 A 
ATOM     34  O   UNL     1       0.929   8.099  21.489  0.00  0.00    +0.000 OA
ATOM     35  C   UNL     1       1.422   7.795  20.242  0.00  0.00    +0.000 A 
ENDBRANCH  20  21
ENDBRANCH  19  20
ENDBRANCH   1  19
TORSDOF 11
ENDMDL
MODEL 7
REMARK VINA RESULT:      -7.6      1.712      8.708
REMARK  Name = 
REMARK  13 active torsions:
REMARK  status: ('A' for Active; 'I' for Inactive)
REMARK    1  A    between atoms: C_1  and  O_2
REMARK    2  A    between atoms: O_2  and  C_3
REMARK    3  A    between atoms: C_6  and  C_7
REMARK    4  A    between atoms: C_7  and  C_8
REMARK    5  A    between atoms: C_8  and  N_9
REMARK    6  A    between atoms: N_9  and  C_10
REMARK    7  A    between atoms: C_10  and  C_11
REMARK    8  A    between atoms: C_11  and  O_12
REMARK    9  A    between atoms: C_11  and  C_13
REMARK   10  A    between atoms: C_13  and  O_14
REMARK   11  A    between atoms: O_14  and  C_15
REMARK   12  A    between atoms: C_31  and  O_32
REMARK   13  A    between atoms: O_32  and  C_33
REMARK                            x       y       z     vdW  Elec       q    Type
REMARK                         _______ _______ _______ _____ _____    ______ ____
ROOT
ATOM      1  C   UNL     1       1.724   3.090  18.246  0.00  0.00    +0.000 C 
ENDROOT
BRANCH   1   2
ATOM      2  O   UNL     1       1.983   3.257  16.848  0.00  0.00    +0.000 OA
ATOM      3  H   UNL     1       2.882   2.905  16.705  0.00  0.00    +0.000 HD
ENDBRANCH   1   2
BRANCH   1   4
ATOM      4  C   UNL     1       1.496   4.479  18.895  0.00  0.00    +0.000 C 
BRANCH   4   5
ATOM      5  N   UNL     1       1.849   5.591  17.985  0.00  0.00    +0.000 NA
ATOM      6  H   UNL     1       2.465   5.252  17.245  0.00  0.00    +0.000 HD
BRANCH   5   7
ATOM      7  C   UNL     1       2.562   6.648  18.722  0.00  0.00    +0.000 C 
BRANCH   7   8
ATOM      8  C   UNL     1       2.095   8.041  18.266  0.00  0.00    +0.000 C 
BRANCH   8  12
ATOM      9  C   UNL     1       0.530  10.360  21.569  0.00  0.00    +0.000 A 
ATOM     10  C   UNL     1       0.929   9.025  21.753  0.00  0.00    +0.000 A 
ATOM     11  C   UNL     1       1.421   8.268  20.690  0.00  0.00    +0.000 A 
ATOM     12  C   UNL     1       1.485   8.817  19.409  0.00  0.00    +0.000 A 
ATOM     13  C   UNL     1       1.009  10.121  19.207  0.00  0.00    +0.000 A 
ATOM     14  C   UNL     1       0.527  10.897  20.274  0.00  0.00    +0.000 A 
BRANCH   9  16
ATOM     15  C   UNL     1      -1.228  10.937  23.056  0.00  0.00    +0.000 C 
ATOM     16  O   UNL     1       0.119  11.129  22.627  0.00  0.00    +0.000 OA
ENDBRANCH   9  16
BRANCH  14  17
ATOM     17  O   UNL     1       0.132  12.142  19.856  0.00  0.00    +0.000 OA
ATOM     18  C   UNL     1      -1.230  12.365  19.523  0.00  0.00    +0.000 C 
ENDBRANCH  14  17
ENDBRANCH   8  12
ENDBRANCH   7   8
ENDBRANCH   5   7
ENDBRANCH   4   5
ENDBRANCH   1   4
BRANCH   1  19
ATOM     19  C   UNL     1       2.882   2.343  18.919  0.00  0.00    +0.000 C 
BRANCH  19  20
ATOM     20  O   UNL     1       4.036   2.299  18.059  0.00  0.00    +0.000 OA
BRANCH  20  21
ATOM     21  C   UNL     1       4.804   3.439  18.105  0.00  0.00    +0.000 A 
ATOM     22  C   UNL     1       5.046   3.966  19.380  0.00  0.00    +0.000 A 
ATOM     23  C   UNL     1       5.828   5.115  19.539  0.00  0.00    +0.000 A 
ATOM     24  C   UNL     1       6.432   5.704  18.430  0.00  0.00    +0.000 A 
ATOM     25  C   UNL     1       6.205   5.163  17.161  0.00  0.00    +0.000 A 
ATOM     26  C   UNL     1       6.957   5.643  15.990  0.00  0.00    +0.000 A 
ATOM     27  O   UNL     1       7.760   6.561  16.072  0.00  0.00    +0.000 OA
ATOM     28  C   UNL     1       6.731   4.928  14.724  0.00  0.00    +0.000 A 
ATOM     29  C   UNL     1       7.556   5.117  13.618  0.00  0.00    +0.000 A 
ATOM     30  C   UNL     1       7.259   4.463  12.419  0.00  0.00    +0.000 A 
ATOM     31  C   UNL     1       6.127   3.651  12.325  0.00  0.00    +0.000 A 
ATOM     32  C   UNL     1       5.324   3.441  13.447  0.00  0.00    +0.000 A 
ATOM     33  C   UNL     1       5.653   4.052  14.657  0.00  0.00    +0.000 A 
ATOM     34  O   UNL     1       4.887   3.718  15.739  0.00  0.00    +0.000 OA
ATOM     35  C   UNL     1       5.323   4.095  16.987  0.00  0.00    +0.000 A 
ENDBRANCH  20  21
ENDBRANCH  19  20
ENDBRANCH   1  19
TORSDOF 11
ENDMDL
MODEL 8
REMARK VINA RESULT:      -7.6      1.811      8.678
REMARK  Name = 
REMARK  13 active torsions:
REMARK  status: ('A' for Active; 'I' for Inactive)
REMARK    1  A    between atoms: C_1  and  O_2
REMARK    2  A    between atoms: O_2  and  C_3
REMARK    3  A    between atoms: C_6  and  C_7
REMARK    4  A    between atoms: C_7  and  C_8
REMARK    5  A    between atoms: C_8  and  N_9
REMARK    6  A    between atoms: N_9  and  C_10
REMARK    7  A    between atoms: C_10  and  C_11
REMARK    8  A    between atoms: C_11  and  O_12
REMARK    9  A    between atoms: C_11  and  C_13
REMARK   10  A    between atoms: C_13  and  O_14
REMARK   11  A    between atoms: O_14  and  C_15
REMARK   12  A    between atoms: C_31  and  O_32
REMARK   13  A    between atoms: O_32  and  C_33
REMARK                            x       y       z     vdW  Elec       q    Type
REMARK                         _______ _______ _______ _____ _____    ______ ____
ROOT
ATOM      1  C   UNL     1       3.123   2.126  19.541  0.00  0.00    +0.000 C 
ENDROOT
BRANCH   1   2
ATOM      2  O   UNL     1       2.732   1.365  18.393  0.00  0.00    +0.000 OA
ATOM      3  H   UNL     1       2.351   0.538  18.744  0.00  0.00    +0.000 HD
ENDBRANCH   1   2
BRANCH   1   4
ATOM      4  C   UNL     1       1.914   2.955  20.043  0.00  0.00    +0.000 C 
BRANCH   4   5
ATOM      5  N   UNL     1       2.321   4.067  20.928  0.00  0.00    +0.000 NA
ATOM      6  H   UNL     1       2.031   3.872  21.887  0.00  0.00    +0.000 HD
BRANCH   5   7
ATOM      7  C   UNL     1       1.674   5.321  20.505  0.00  0.00    +0.000 C 
BRANCH   7   8
ATOM      8  C   UNL     1       2.691   6.262  19.837  0.00  0.00    +0.000 C 
BRANCH   8  12
ATOM      9  C   UNL     1       0.771  10.050  18.998  0.00  0.00    +0.000 A 
ATOM     10  C   UNL     1       1.555   9.409  18.023  0.00  0.00    +0.000 A 
ATOM     11  C   UNL     1       2.187   8.195  18.292  0.00  0.00    +0.000 A 
ATOM     12  C   UNL     1       2.085   7.617  19.557  0.00  0.00    +0.000 A 
ATOM     13  C   UNL     1       1.373   8.297  20.556  0.00  0.00    +0.000 A 
ATOM     14  C   UNL     1       0.718   9.511  20.291  0.00  0.00    +0.000 A 
BRANCH   9  16
ATOM     15  C   UNL     1      -1.258  11.039  18.264  0.00  0.00    +0.000 C 
ATOM     16  O   UNL     1       0.086  11.203  18.712  0.00  0.00    +0.000 OA
ENDBRANCH   9  16
BRANCH  14  17
ATOM     17  O   UNL     1       0.071   9.990  21.401  0.00  0.00    +0.000 OA
ATOM     18  C   UNL     1       0.360   9.429  22.673  0.00  0.00    +0.000 C 
ENDBRANCH  14  17
ENDBRANCH   8  12
ENDBRANCH   7   8
ENDBRANCH   5   7
ENDBRANCH   4   5
ENDBRANCH   1   4
BRANCH   1  19
ATOM     19  C   UNL     1       4.317   3.028  19.203  0.00  0.00    +0.000 C 
BRANCH  19  20
ATOM     20  O   UNL     1       4.168   3.612  17.895  0.00  0.00    +0.000 OA
BRANCH  20  21
ATOM     21  C   UNL     1       5.226   4.406  17.521  0.00  0.00    +0.000 A 
ATOM     22  C   UNL     1       5.895   5.069  18.557  0.00  0.00    +0.000 A 
ATOM     23  C   UNL     1       6.994   5.890  18.286  0.00  0.00    +0.000 A 
ATOM     24  C   UNL     1       7.478   5.997  16.984  0.00  0.00    +0.000 A 
ATOM     25  C   UNL     1       6.821   5.316  15.954  0.00  0.00    +0.000 A 
ATOM     26  C   UNL     1       7.396   5.260  14.600  0.00  0.00    +0.000 A 
ATOM     27  O   UNL     1       8.430   5.845  14.313  0.00  0.00    +0.000 OA
ATOM     28  C   UNL     1       6.689   4.420  13.619  0.00  0.00    +0.000 A 
ATOM     29  C   UNL     1       7.261   4.085  12.393  0.00  0.00    +0.000 A 
ATOM     30  C   UNL     1       6.522   3.339  11.472  0.00  0.00    +0.000 A 
ATOM     31  C   UNL     1       5.210   2.961  11.766  0.00  0.00    +0.000 A 
ATOM     32  C   UNL     1       4.657   3.272  13.008  0.00  0.00    +0.000 A 
ATOM     33  C   UNL     1       5.416   3.970  13.948  0.00  0.00    +0.000 A 
ATOM     34  O   UNL     1       4.851   4.147  15.181  0.00  0.00    +0.000 OA
ATOM     35  C   UNL     1       5.649   4.601  16.204  0.00  0.00    +0.000 A 
ENDBRANCH  20  21
ENDBRANCH  19  20
ENDBRANCH   1  19
TORSDOF 11
ENDMDL
MODEL 9
REMARK VINA RESULT:      -7.4      3.444      7.036
REMARK  Name = 
REMARK  13 active torsions:
REMARK  status: ('A' for Active; 'I' for Inactive)
REMARK    1  A    between atoms: C_1  and  O_2
REMARK    2  A    between atoms: O_2  and  C_3
REMARK    3  A    between atoms: C_6  and  C_7
REMARK    4  A    between atoms: C_7  and  C_8
REMARK    5  A    between atoms: C_8  and  N_9
REMARK    6  A    between atoms: N_9  and  C_10
REMARK    7  A    between atoms: C_10  and  C_11
REMARK    8  A    between atoms: C_11  and  O_12
REMARK    9  A    between atoms: C_11  and  C_13
REMARK   10  A    between atoms: C_13  and  O_14
REMARK   11  A    between atoms: O_14  and  C_15
REMARK   12  A    between atoms: C_31  and  O_32
REMARK   13  A    between atoms: O_32  and  C_33
REMARK                            x       y       z     vdW  Elec       q    Type
REMARK                         _______ _______ _______ _____ _____    ______ ____
ROOT
ATOM      1  C   UNL     1       6.688   5.527  16.153  0.00  0.00    +0.000 C 
ENDROOT
BRANCH   1   2
ATOM      2  O   UNL     1       7.568   5.532  15.023  0.00  0.00    +0.000 OA
ATOM      3  H   UNL     1       7.371   6.357  14.541  0.00  0.00    +0.000 HD
ENDBRANCH   1   2
BRANCH   1   4
ATOM      4  C   UNL     1       7.441   6.078  17.390  0.00  0.00    +0.000 C 
BRANCH   4   5
ATOM      5  N   UNL     1       6.879   7.360  17.867  0.00  0.00    +0.000 NA
ATOM      6  H   UNL     1       5.952   7.505  17.463  0.00  0.00    +0.000 HD
BRANCH   5   7
ATOM      7  C   UNL     1       7.737   8.483  17.450  0.00  0.00    +0.000 C 
BRANCH   7   8
ATOM      8  C   UNL     1       8.668   8.913  18.596  0.00  0.00    +0.000 C 
BRANCH   8  12
ATOM      9  C   UNL     1       9.838  13.045  18.048  0.00  0.00    +0.000 A 
ATOM     10  C   UNL     1      10.671  12.146  18.736  0.00  0.00    +0.000 A 
ATOM     11  C   UNL     1      10.294  10.816  18.927  0.00  0.00    +0.000 A 
ATOM     12  C   UNL     1       9.054  10.368  18.473  0.00  0.00    +0.000 A 
ATOM     13  C   UNL     1       8.186  11.284  17.862  0.00  0.00    +0.000 A 
ATOM     14  C   UNL     1       8.563  12.620  17.649  0.00  0.00    +0.000 A 
BRANCH   9  16
ATOM     15  C   UNL     1      10.234  15.223  18.905  0.00  0.00    +0.000 C 
ATOM     16  O   UNL     1      10.239  14.330  17.792  0.00  0.00    +0.000 OA
ENDBRANCH   9  16
BRANCH  14  17
ATOM     17  O   UNL     1       7.573  13.332  17.022  0.00  0.00    +0.000 OA
ATOM     18  C   UNL     1       6.801  14.261  17.770  0.00  0.00    +0.000 C 
ENDBRANCH  14  17
ENDBRANCH   8  12
ENDBRANCH   7   8
ENDBRANCH   5   7
ENDBRANCH   4   5
ENDBRANCH   1   4
BRANCH   1  19
ATOM     19  C   UNL     1       6.154   4.112  16.408  0.00  0.00    +0.000 C 
BRANCH  19  20
ATOM     20  O   UNL     1       4.739   4.040  16.150  0.00  0.00    +0.000 OA
BRANCH  20  21
ATOM     21  C   UNL     1       4.008   3.560  17.212  0.00  0.00    +0.000 A 
ATOM     22  C   UNL     1       4.138   2.192  17.481  0.00  0.00    +0.000 A 
ATOM     23  C   UNL     1       3.448   1.607  18.548  0.00  0.00    +0.000 A 
ATOM     24  C   UNL     1       2.680   2.400  19.398  0.00  0.00    +0.000 A 
ATOM     25  C   UNL     1       2.570   3.770  19.139  0.00  0.00    +0.000 A 
ATOM     26  C   UNL     1       1.917   4.670  20.104  0.00  0.00    +0.000 A 
ATOM     27  O   UNL     1       1.402   4.251  21.131  0.00  0.00    +0.000 OA
ATOM     28  C   UNL     1       1.958   6.108  19.794  0.00  0.00    +0.000 A 
ATOM     29  C   UNL     1       1.604   7.072  20.737  0.00  0.00    +0.000 A 
ATOM     30  C   UNL     1       1.599   8.420  20.372  0.00  0.00    +0.000 A 
ATOM     31  C   UNL     1       1.915   8.794  19.064  0.00  0.00    +0.000 A 
ATOM     32  C   UNL     1       2.300   7.827  18.136  0.00  0.00    +0.000 A 
ATOM     33  C   UNL     1       2.358   6.486  18.517  0.00  0.00    +0.000 A 
ATOM     34  O   UNL     1       2.845   5.607  17.591  0.00  0.00    +0.000 OA
ATOM     35  C   UNL     1       3.152   4.332  18.002  0.00  0.00    +0.000 A 
ENDBRANCH  20  21
ENDBRANCH  19  20
ENDBRANCH   1  19
TORSDOF 11
ENDMDL
