MODEL 1
REMARK VINA RESULT:      -9.2      0.000      0.000
REMARK  Name = 
REMARK  14 active torsions:
REMARK  status: ('A' for Active; 'I' for Inactive)
REMARK    1  A    between atoms: C_1  and  C_2
REMARK    2  A    between atoms: C_2  and  C_3
REMARK    3  A    between atoms: C_3  and  C_4
REMARK    4  A    between atoms: C_7  and  C_8
REMARK    5  A    between atoms: C_11  and  N_12
REMARK    6  A    between atoms: N_12  and  C_13
REMARK    7  A    between atoms: C_13  and  C_14
REMARK    8  A    between atoms: C_14  and  N_15
REMARK    9  A    between atoms: C_14  and  C_16
REMARK   10  A    between atoms: C_16  and  C_17
REMARK   11  A    between atoms: C_17  and  C_18
REMARK   12  A    between atoms: C_17  and  C_19
REMARK   13  A    between atoms: C_20  and  C_22
REMARK   14  A    between atoms: C_24  and  C_25
REMARK                            x       y       z     vdW  Elec       q    Type
REMARK                         _______ _______ _______ _____ _____    ______ ____
ROOT
ATOM      1  N   UNL     1       3.555   5.510  17.938  0.00  0.00    +0.000 N 
ATOM      2  C   UNL     1       4.698   5.969  17.282  0.00  0.00    +0.000 C 
ATOM      3  O   UNL     1       5.111   7.112  17.443  0.00  0.00    +0.000 OA
ENDROOT
BRANCH   1   7
ATOM      4  C   UNL     1       1.365   8.377  20.317  0.00  0.00    +0.000 A 
ATOM      5  C   UNL     1       1.712   8.619  18.988  0.00  0.00    +0.000 A 
ATOM      6  C   UNL     1       2.385   7.678  18.239  0.00  0.00    +0.000 A 
ATOM      7  C   UNL     1       2.780   6.427  18.770  0.00  0.00    +0.000 A 
ATOM      8  C   UNL     1       2.412   6.197  20.121  0.00  0.00    +0.000 A 
ATOM      9  C   UNL     1       1.712   7.144  20.877  0.00  0.00    +0.000 A 
BRANCH   4  13
ATOM     10  C   UNL     1      -0.600  11.496  22.493  0.00  0.00    +0.000 A 
ATOM     11  C   UNL     1       0.099  11.775  21.320  0.00  0.00    +0.000 A 
ATOM     12  C   UNL     1       0.725  10.765  20.631  0.00  0.00    +0.000 A 
ATOM     13  C   UNL     1       0.678   9.436  21.092  0.00  0.00    +0.000 A 
ATOM     14  C   UNL     1      -0.014   9.156  22.290  0.00  0.00    +0.000 A 
ATOM     15  C   UNL     1      -0.641  10.186  22.994  0.00  0.00    +0.000 A 
BRANCH  10  16
ATOM     16  C   UNL     1      -1.402  12.590  23.118  0.00  0.00    +0.000 C 
BRANCH  16  18
ATOM     17  C   UNL     1      -3.576  12.744  21.793  0.00  0.00    +0.000 C 
ATOM     18  C   UNL     1      -2.885  12.166  23.038  0.00  0.00    +0.000 C 
ENDBRANCH  16  18
ENDBRANCH  10  16
ENDBRANCH   4  13
ENDBRANCH   1   7
BRANCH   2  19
ATOM     19  C   UNL     1       5.533   5.085  16.364  0.00  0.00    +0.000 C 
ATOM     20  C   UNL     1       6.952   4.903  16.850  0.00  0.00    +0.000 C 
ATOM     21  C   UNL     1       6.672   5.734  15.580  0.00  0.00    +0.000 C 
BRANCH  21  22
ATOM     22  C   UNL     1       6.776   5.036  14.247  0.00  0.00    +0.000 A 
ATOM     23  C   UNL     1       5.920   3.959  13.962  0.00  0.00    +0.000 A 
ATOM     24  C   UNL     1       6.016   3.311  12.732  0.00  0.00    +0.000 A 
ATOM     25  C   UNL     1       6.965   3.729  11.801  0.00  0.00    +0.000 A 
ATOM     26  C   UNL     1       7.802   4.805  12.114  0.00  0.00    +0.000 A 
ATOM     27  N   UNL     1       7.686   5.436  13.316  0.00  0.00    +0.000 NA
ENDBRANCH  21  22
ENDBRANCH   2  19
BRANCH   1  28
ATOM     28  C   UNL     1       3.234   4.068  17.728  0.00  0.00    +0.000 C 
BRANCH  28  29
ATOM     29  C   UNL     1       3.938   2.936  18.525  0.00  0.00    +0.000 C 
BRANCH  29  30
ATOM     30  N   UNL     1       5.028   3.454  19.365  0.00  0.00    +0.000 NA
ATOM     31  H   UNL     1       5.827   2.788  19.376  0.00  0.00    +0.000 HD
ATOM     32  H   UNL     1       4.706   3.597  20.347  0.00  0.00    +0.000 HD
ENDBRANCH  29  30
BRANCH  29  33
ATOM     33  C   UNL     1       2.949   2.150  19.421  0.00  0.00    +0.000 C 
BRANCH  33  34
ATOM     34  C   UNL     1       1.628   2.897  19.775  0.00  0.00    +0.000 C 
ATOM     35  C   UNL     1       0.414   2.398  18.967  0.00  0.00    +0.000 C 
ATOM     36  C   UNL     1       1.343   2.738  21.271  0.00  0.00    +0.000 C 
ENDBRANCH  33  34
ENDBRANCH  29  33
ENDBRANCH  28  29
ENDBRANCH   1  28
TORSDOF 11
ENDMDL
MODEL 2
REMARK VINA RESULT:      -9.1      1.134      1.722
REMARK  Name = 
REMARK  14 active torsions:
REMARK  status: ('A' for Active; 'I' for Inactive)
REMARK    1  A    between atoms: C_1  and  C_2
REMARK    2  A    between atoms: C_2  and  C_3
REMARK    3  A    between atoms: C_3  and  C_4
REMARK    4  A    between atoms: C_7  and  C_8
REMARK    5  A    between atoms: C_11  and  N_12
REMARK    6  A    between atoms: N_12  and  C_13
REMARK    7  A    between atoms: C_13  and  C_14
REMARK    8  A    between atoms: C_14  and  N_15
REMARK    9  A    between atoms: C_14  and  C_16
REMARK   10  A    between atoms: C_16  and  C_17
REMARK   11  A    between atoms: C_17  and  C_18
REMARK   12  A    between atoms: C_17  and  C_19
REMARK   13  A    between atoms: C_20  and  C_22
REMARK   14  A    between atoms: C_24  and  C_25
REMARK                            x       y       z     vdW  Elec       q    Type
REMARK                         _______ _______ _______ _____ _____    ______ ____
ROOT
ATOM      1  N   UNL     1       2.953   6.240  17.897  0.00  0.00    +0.000 N 
ATOM      2  C   UNL     1       4.257   6.401  17.430  0.00  0.00    +0.000 C 
ATOM      3  O   UNL     1       4.922   7.390  17.721  0.00  0.00    +0.000 OA
ENDROOT
BRANCH   1   7
ATOM      4  C   UNL     1       1.004   9.241  20.321  0.00  0.00    +0.000 A 
ATOM      5  C   UNL     1       1.482   8.044  20.855  0.00  0.00    +0.000 A 
ATOM      6  C   UNL     1       2.126   7.113  20.068  0.00  0.00    +0.000 A 
ATOM      7  C   UNL     1       2.327   7.302  18.680  0.00  0.00    +0.000 A 
ATOM      8  C   UNL     1       1.841   8.529  18.157  0.00  0.00    +0.000 A 
ATOM      9  C   UNL     1       1.202   9.482  18.958  0.00  0.00    +0.000 A 
BRANCH   4  13
ATOM     10  C   UNL     1      -1.059  12.049  22.807  0.00  0.00    +0.000 A 
ATOM     11  C   UNL     1      -0.286  12.482  21.731  0.00  0.00    +0.000 A 
ATOM     12  C   UNL     1       0.371  11.570  20.941  0.00  0.00    +0.000 A 
ATOM     13  C   UNL     1       0.282  10.190  21.200  0.00  0.00    +0.000 A 
ATOM     14  C   UNL     1      -0.486   9.753  22.300  0.00  0.00    +0.000 A 
ATOM     15  C   UNL     1      -1.144  10.682  23.108  0.00  0.00    +0.000 A 
BRANCH  10  16
ATOM     16  C   UNL     1      -1.887  13.057  23.535  0.00  0.00    +0.000 C 
BRANCH  16  18
ATOM     17  C   UNL     1      -4.163  12.402  24.480  0.00  0.00    +0.000 C 
ATOM     18  C   UNL     1      -3.365  12.746  23.213  0.00  0.00    +0.000 C 
ENDBRANCH  16  18
ENDBRANCH  10  16
ENDBRANCH   4  13
ENDBRANCH   1   7
BRANCH   2  19
ATOM     19  C   UNL     1       4.963   5.358  16.573  0.00  0.00    +0.000 C 
ATOM     20  C   UNL     1       6.108   4.681  17.288  0.00  0.00    +0.000 C 
ATOM     21  C   UNL     1       6.392   5.646  16.117  0.00  0.00    +0.000 C 
BRANCH  21  22
ATOM     22  C   UNL     1       6.571   5.049  14.744  0.00  0.00    +0.000 A 
ATOM     23  C   UNL     1       5.620   4.137  14.257  0.00  0.00    +0.000 A 
ATOM     24  C   UNL     1       5.784   3.581  12.989  0.00  0.00    +0.000 A 
ATOM     25  C   UNL     1       6.895   3.928  12.221  0.00  0.00    +0.000 A 
ATOM     26  C   UNL     1       7.824   4.839  12.733  0.00  0.00    +0.000 A 
ATOM     27  N   UNL     1       7.640   5.382  13.968  0.00  0.00    +0.000 NA
ENDBRANCH  21  22
ENDBRANCH   2  19
BRANCH   1  28
ATOM     28  C   UNL     1       2.307   4.941  17.549  0.00  0.00    +0.000 C 
BRANCH  28  29
ATOM     29  C   UNL     1       2.070   3.822  18.601  0.00  0.00    +0.000 C 
BRANCH  29  30
ATOM     30  N   UNL     1       0.981   2.919  18.204  0.00  0.00    +0.000 NA
ATOM     31  H   UNL     1       0.349   3.389  17.523  0.00  0.00    +0.000 HD
ATOM     32  H   UNL     1       0.416   2.629  19.031  0.00  0.00    +0.000 HD
ENDBRANCH  29  30
BRANCH  29  33
ATOM     33  C   UNL     1       3.346   2.982  18.857  0.00  0.00    +0.000 C 
BRANCH  33  34
ATOM     34  C   UNL     1       3.813   2.908  20.342  0.00  0.00    +0.000 C 
ATOM     35  C   UNL     1       2.646   2.757  21.338  0.00  0.00    +0.000 C 
ATOM     36  C   UNL     1       4.780   1.734  20.510  0.00  0.00    +0.000 C 
ENDBRANCH  33  34
ENDBRANCH  29  33
ENDBRANCH  28  29
ENDBRANCH   1  28
TORSDOF 11
ENDMDL
MODEL 3
REMARK VINA RESULT:      -8.9      1.014      1.616
REMARK  Name = 
REMARK  14 active torsions:
REMARK  status: ('A' for Active; 'I' for Inactive)
REMARK    1  A    between atoms: C_1  and  C_2
REMARK    2  A    between atoms: C_2  and  C_3
REMARK    3  A    between atoms: C_3  and  C_4
REMARK    4  A    between atoms: C_7  and  C_8
REMARK    5  A    between atoms: C_11  and  N_12
REMARK    6  A    between atoms: N_12  and  C_13
REMARK    7  A    between atoms: C_13  and  C_14
REMARK    8  A    between atoms: C_14  and  N_15
REMARK    9  A    between atoms: C_14  and  C_16
REMARK   10  A    between atoms: C_16  and  C_17
REMARK   11  A    between atoms: C_17  and  C_18
REMARK   12  A    between atoms: C_17  and  C_19
REMARK   13  A    between atoms: C_20  and  C_22
REMARK   14  A    between atoms: C_24  and  C_25
REMARK                            x       y       z     vdW  Elec       q    Type
REMARK                         _______ _______ _______ _____ _____    ______ ____
ROOT
ATOM      1  N   UNL     1       3.099   6.151  17.704  0.00  0.00    +0.000 N 
ATOM      2  C   UNL     1       4.405   6.353  17.256  0.00  0.00    +0.000 C 
ATOM      3  O   UNL     1       5.027   7.371  17.541  0.00  0.00    +0.000 OA
ENDROOT
BRANCH   1   7
ATOM      4  C   UNL     1       1.004   9.117  20.046  0.00  0.00    +0.000 A 
ATOM      5  C   UNL     1       1.555   7.969  20.615  0.00  0.00    +0.000 A 
ATOM      6  C   UNL     1       2.244   7.050  19.853  0.00  0.00    +0.000 A 
ATOM      7  C   UNL     1       2.420   7.202  18.457  0.00  0.00    +0.000 A 
ATOM      8  C   UNL     1       1.860   8.380  17.898  0.00  0.00    +0.000 A 
ATOM      9  C   UNL     1       1.175   9.322  18.673  0.00  0.00    +0.000 A 
BRANCH   4  13
ATOM     10  C   UNL     1      -1.211  11.764  22.579  0.00  0.00    +0.000 A 
ATOM     11  C   UNL     1      -0.885  10.477  23.003  0.00  0.00    +0.000 A 
ATOM     12  C   UNL     1      -0.173   9.637  22.180  0.00  0.00    +0.000 A 
ATOM     13  C   UNL     1       0.236  10.053  20.900  0.00  0.00    +0.000 A 
ATOM     14  C   UNL     1      -0.111  11.350  20.463  0.00  0.00    +0.000 A 
ATOM     15  C   UNL     1      -0.843  12.197  21.297  0.00  0.00    +0.000 A 
BRANCH  10  16
ATOM     16  C   UNL     1      -1.837  12.696  23.563  0.00  0.00    +0.000 C 
BRANCH  16  18
ATOM     17  C   UNL     1      -4.035  13.048  24.809  0.00  0.00    +0.000 C 
ATOM     18  C   UNL     1      -3.335  12.327  23.647  0.00  0.00    +0.000 C 
ENDBRANCH  16  18
ENDBRANCH  10  16
ENDBRANCH   4  13
ENDBRANCH   1   7
BRANCH   2  19
ATOM     19  C   UNL     1       5.163   5.322  16.429  0.00  0.00    +0.000 C 
ATOM     20  C   UNL     1       6.367   4.760  17.147  0.00  0.00    +0.000 C 
ATOM     21  C   UNL     1       6.559   5.686  15.928  0.00  0.00    +0.000 C 
BRANCH  21  22
ATOM     22  C   UNL     1       6.752   5.041  14.579  0.00  0.00    +0.000 A 
ATOM     23  C   UNL     1       5.866   4.034  14.162  0.00  0.00    +0.000 A 
ATOM     24  C   UNL     1       6.043   3.434  12.916  0.00  0.00    +0.000 A 
ATOM     25  C   UNL     1       7.102   3.831  12.101  0.00  0.00    +0.000 A 
ATOM     26  C   UNL     1       7.967   4.836  12.544  0.00  0.00    +0.000 A 
ATOM     27  N   UNL     1       7.771   5.421  13.759  0.00  0.00    +0.000 NA
ENDBRANCH  21  22
ENDBRANCH   2  19
BRANCH   1  28
ATOM     28  C   UNL     1       2.509   4.822  17.368  0.00  0.00    +0.000 C 
BRANCH  28  29
ATOM     29  C   UNL     1       2.663   3.586  18.297  0.00  0.00    +0.000 C 
BRANCH  29  30
ATOM     30  N   UNL     1       3.474   2.531  17.672  0.00  0.00    +0.000 NA
ATOM     31  H   UNL     1       2.867   1.871  17.143  0.00  0.00    +0.000 HD
ATOM     32  H   UNL     1       4.000   1.989  18.391  0.00  0.00    +0.000 HD
ENDBRANCH  29  30
BRANCH  29  33
ATOM     33  C   UNL     1       3.294   3.956  19.662  0.00  0.00    +0.000 C 
BRANCH  33  34
ATOM     34  C   UNL     1       2.375   3.750  20.903  0.00  0.00    +0.000 C 
ATOM     35  C   UNL     1       0.874   3.739  20.550  0.00  0.00    +0.000 C 
ATOM     36  C   UNL     1       2.745   2.435  21.593  0.00  0.00    +0.000 C 
ENDBRANCH  33  34
ENDBRANCH  29  33
ENDBRANCH  28  29
ENDBRANCH   1  28
TORSDOF 11
ENDMDL
MODEL 4
REMARK VINA RESULT:      -8.8      0.559      1.065
REMARK  Name = 
REMARK  14 active torsions:
REMARK  status: ('A' for Active; 'I' for Inactive)
REMARK    1  A    between atoms: C_1  and  C_2
REMARK    2  A    between atoms: C_2  and  C_3
REMARK    3  A    between atoms: C_3  and  C_4
REMARK    4  A    between atoms: C_7  and  C_8
REMARK    5  A    between atoms: C_11  and  N_12
REMARK    6  A    between atoms: N_12  and  C_13
REMARK    7  A    between atoms: C_13  and  C_14
REMARK    8  A    between atoms: C_14  and  N_15
REMARK    9  A    between atoms: C_14  and  C_16
REMARK   10  A    between atoms: C_16  and  C_17
REMARK   11  A    between atoms: C_17  and  C_18
REMARK   12  A    between atoms: C_17  and  C_19
REMARK   13  A    between atoms: C_20  and  C_22
REMARK   14  A    between atoms: C_24  and  C_25
REMARK                            x       y       z     vdW  Elec       q    Type
REMARK                         _______ _______ _______ _____ _____    ______ ____
ROOT
ATOM      1  N   UNL     1       3.565   5.535  17.879  0.00  0.00    +0.000 N 
ATOM      2  C   UNL     1       4.689   6.009  17.202  0.00  0.00    +0.000 C 
ATOM      3  O   UNL     1       5.065   7.169  17.325  0.00  0.00    +0.000 OA
ENDROOT
BRANCH   1   7
ATOM      4  C   UNL     1       1.293   8.404  20.177  0.00  0.00    +0.000 A 
ATOM      5  C   UNL     1       1.618   8.610  18.837  0.00  0.00    +0.000 A 
ATOM      6  C   UNL     1       2.319   7.669  18.115  0.00  0.00    +0.000 A 
ATOM      7  C   UNL     1       2.764   6.452  18.686  0.00  0.00    +0.000 A 
ATOM      8  C   UNL     1       2.417   6.257  20.048  0.00  0.00    +0.000 A 
ATOM      9  C   UNL     1       1.689   7.205  20.777  0.00  0.00    +0.000 A 
BRANCH   4  13
ATOM     10  C   UNL     1      -0.785  11.417  22.398  0.00  0.00    +0.000 A 
ATOM     11  C   UNL     1      -0.562  10.155  22.944  0.00  0.00    +0.000 A 
ATOM     12  C   UNL     1       0.106   9.196  22.220  0.00  0.00    +0.000 A 
ATOM     13  C   UNL     1       0.574   9.465  20.921  0.00  0.00    +0.000 A 
ATOM     14  C   UNL     1       0.332  10.737  20.361  0.00  0.00    +0.000 A 
ATOM     15  C   UNL     1      -0.357  11.706  21.093  0.00  0.00    +0.000 A 
BRANCH  10  16
ATOM     16  C   UNL     1      -1.366  12.476  23.276  0.00  0.00    +0.000 C 
BRANCH  16  18
ATOM     17  C   UNL     1      -1.924  14.827  22.460  0.00  0.00    +0.000 C 
ATOM     18  C   UNL     1      -0.803  13.828  22.785  0.00  0.00    +0.000 C 
ENDBRANCH  16  18
ENDBRANCH  10  16
ENDBRANCH   4  13
ENDBRANCH   1   7
BRANCH   2  19
ATOM     19  C   UNL     1       5.548   5.124  16.308  0.00  0.00    +0.000 C 
ATOM     20  C   UNL     1       6.978   5.015  16.784  0.00  0.00    +0.000 C 
ATOM     21  C   UNL     1       6.652   5.786  15.486  0.00  0.00    +0.000 C 
BRANCH  21  22
ATOM     22  C   UNL     1       6.770   5.042  14.180  0.00  0.00    +0.000 A 
ATOM     23  C   UNL     1       5.898   3.974  13.913  0.00  0.00    +0.000 A 
ATOM     24  C   UNL     1       6.005   3.282  12.707  0.00  0.00    +0.000 A 
ATOM     25  C   UNL     1       6.982   3.651  11.783  0.00  0.00    +0.000 A 
ATOM     26  C   UNL     1       7.834   4.720  12.078  0.00  0.00    +0.000 A 
ATOM     27  N   UNL     1       7.706   5.392  13.255  0.00  0.00    +0.000 NA
ENDBRANCH  21  22
ENDBRANCH   2  19
BRANCH   1  28
ATOM     28  C   UNL     1       3.290   4.077  17.717  0.00  0.00    +0.000 C 
BRANCH  28  29
ATOM     29  C   UNL     1       4.007   2.996  18.572  0.00  0.00    +0.000 C 
BRANCH  29  30
ATOM     30  N   UNL     1       5.115   3.564  19.355  0.00  0.00    +0.000 NA
ATOM     31  H   UNL     1       5.920   3.788  18.735  0.00  0.00    +0.000 HD
ATOM     32  H   UNL     1       5.438   2.893  20.084  0.00  0.00    +0.000 HD
ENDBRANCH  29  30
BRANCH  29  33
ATOM     33  C   UNL     1       3.034   2.274  19.536  0.00  0.00    +0.000 C 
BRANCH  33  34
ATOM     34  C   UNL     1       1.638   2.947  19.708  0.00  0.00    +0.000 C 
ATOM     35  C   UNL     1       0.535   2.273  18.868  0.00  0.00    +0.000 C 
ATOM     36  C   UNL     1       1.242   2.918  21.186  0.00  0.00    +0.000 C 
ENDBRANCH  33  34
ENDBRANCH  29  33
ENDBRANCH  28  29
ENDBRANCH   1  28
TORSDOF 11
ENDMDL
MODEL 5
REMARK VINA RESULT:      -8.8      3.991     11.308
REMARK  Name = 
REMARK  14 active torsions:
REMARK  status: ('A' for Active; 'I' for Inactive)
REMARK    1  A    between atoms: C_1  and  C_2
REMARK    2  A    between atoms: C_2  and  C_3
REMARK    3  A    between atoms: C_3  and  C_4
REMARK    4  A    between atoms: C_7  and  C_8
REMARK    5  A    between atoms: C_11  and  N_12
REMARK    6  A    between atoms: N_12  and  C_13
REMARK    7  A    between atoms: C_13  and  C_14
REMARK    8  A    between atoms: C_14  and  N_15
REMARK    9  A    between atoms: C_14  and  C_16
REMARK   10  A    between atoms: C_16  and  C_17
REMARK   11  A    between atoms: C_17  and  C_18
REMARK   12  A    between atoms: C_17  and  C_19
REMARK   13  A    between atoms: C_20  and  C_22
REMARK   14  A    between atoms: C_24  and  C_25
REMARK                            x       y       z     vdW  Elec       q    Type
REMARK                         _______ _______ _______ _____ _____    ______ ____
ROOT
ATOM      1  N   UNL     1      -0.211  11.000  19.984  0.00  0.00    +0.000 N 
ATOM      2  C   UNL     1       0.223  11.948  20.911  0.00  0.00    +0.000 C 
ATOM      3  O   UNL     1       1.383  11.970  21.306  0.00  0.00    +0.000 OA
ENDROOT
BRANCH   1   7
ATOM      4  C   UNL     1       2.419   7.929  18.460  0.00  0.00    +0.000 A 
ATOM      5  C   UNL     1       2.088   9.064  17.720  0.00  0.00    +0.000 A 
ATOM      6  C   UNL     1       1.270  10.045  18.237  0.00  0.00    +0.000 A 
ATOM      7  C   UNL     1       0.705   9.957  19.532  0.00  0.00    +0.000 A 
ATOM      8  C   UNL     1       1.059   8.799  20.271  0.00  0.00    +0.000 A 
ATOM      9  C   UNL     1       1.904   7.810  19.754  0.00  0.00    +0.000 A 
BRANCH   4  13
ATOM     10  C   UNL     1       4.928   4.969  16.649  0.00  0.00    +0.000 A 
ATOM     11  C   UNL     1       5.186   6.328  16.475  0.00  0.00    +0.000 A 
ATOM     12  C   UNL     1       4.373   7.268  17.061  0.00  0.00    +0.000 A 
ATOM     13  C   UNL     1       3.268   6.883  17.843  0.00  0.00    +0.000 A 
ATOM     14  C   UNL     1       2.995   5.508  18.005  0.00  0.00    +0.000 A 
ATOM     15  C   UNL     1       3.816   4.555  17.399  0.00  0.00    +0.000 A 
BRANCH  10  16
ATOM     16  C   UNL     1       5.927   3.986  16.135  0.00  0.00    +0.000 C 
BRANCH  16  18
ATOM     17  C   UNL     1       7.038   4.693  13.952  0.00  0.00    +0.000 C 
ATOM     18  C   UNL     1       5.826   4.002  14.594  0.00  0.00    +0.000 C 
ENDBRANCH  16  18
ENDBRANCH  10  16
ENDBRANCH   4  13
ENDBRANCH   1   7
BRANCH   2  19
ATOM     19  C   UNL     1      -0.685  13.040  21.463  0.00  0.00    +0.000 C 
ATOM     20  C   UNL     1      -0.349  14.413  20.931  0.00  0.00    +0.000 C 
ATOM     21  C   UNL     1      -0.078  14.072  22.412  0.00  0.00    +0.000 C 
BRANCH  21  22
ATOM     22  C   UNL     1      -1.131  14.450  23.423  0.00  0.00    +0.000 A 
ATOM     23  C   UNL     1      -0.898  15.531  24.290  0.00  0.00    +0.000 A 
ATOM     24  C   UNL     1      -1.868  15.882  25.227  0.00  0.00    +0.000 A 
ATOM     25  C   UNL     1      -3.054  15.152  25.303  0.00  0.00    +0.000 A 
ATOM     26  C   UNL     1      -3.255  14.082  24.426  0.00  0.00    +0.000 A 
ATOM     27  N   UNL     1      -2.302  13.762  23.507  0.00  0.00    +0.000 NA
ENDBRANCH  21  22
ENDBRANCH   2  19
BRANCH   1  28
ATOM     28  C   UNL     1      -1.620  11.162  19.518  0.00  0.00    +0.000 C 
BRANCH  28  29
ATOM     29  C   UNL     1      -1.971  11.777  18.136  0.00  0.00    +0.000 C 
BRANCH  29  30
ATOM     30  N   UNL     1      -0.985  12.784  17.718  0.00  0.00    +0.000 NA
ATOM     31  H   UNL     1      -1.242  13.182  16.791  0.00  0.00    +0.000 HD
ATOM     32  H   UNL     1      -0.033  12.365  17.643  0.00  0.00    +0.000 HD
ENDBRANCH  29  30
BRANCH  29  33
ATOM     33  C   UNL     1      -2.083  10.700  17.029  0.00  0.00    +0.000 C 
BRANCH  33  34
ATOM     34  C   UNL     1      -3.064  11.035  15.865  0.00  0.00    +0.000 C 
ATOM     35  C   UNL     1      -3.096   9.951  14.769  0.00  0.00    +0.000 C 
ATOM     36  C   UNL     1      -4.472  11.229  16.431  0.00  0.00    +0.000 C 
ENDBRANCH  33  34
ENDBRANCH  29  33
ENDBRANCH  28  29
ENDBRANCH   1  28
TORSDOF 11
ENDMDL
MODEL 6
REMARK VINA RESULT:      -8.7      1.117      1.664
REMARK  Name = 
REMARK  14 active torsions:
REMARK  status: ('A' for Active; 'I' for Inactive)
REMARK    1  A    between atoms: C_1  and  C_2
REMARK    2  A    between atoms: C_2  and  C_3
REMARK    3  A    between atoms: C_3  and  C_4
REMARK    4  A    between atoms: C_7  and  C_8
REMARK    5  A    between atoms: C_11  and  N_12
REMARK    6  A    between atoms: N_12  and  C_13
REMARK    7  A    between atoms: C_13  and  C_14
REMARK    8  A    between atoms: C_14  and  N_15
REMARK    9  A    between atoms: C_14  and  C_16
REMARK   10  A    between atoms: C_16  and  C_17
REMARK   11  A    between atoms: C_17  and  C_18
REMARK   12  A    between atoms: C_17  and  C_19
REMARK   13  A    between atoms: C_20  and  C_22
REMARK   14  A    between atoms: C_24  and  C_25
REMARK                            x       y       z     vdW  Elec       q    Type
REMARK                         _______ _______ _______ _____ _____    ______ ____
ROOT
ATOM      1  N   UNL     1       2.956   5.999  17.904  0.00  0.00    +0.000 N 
ATOM      2  C   UNL     1       4.245   6.240  17.426  0.00  0.00    +0.000 C 
ATOM      3  O   UNL     1       4.858   7.258  17.730  0.00  0.00    +0.000 OA
ENDROOT
BRANCH   1   7
ATOM      4  C   UNL     1       1.057   9.134  20.193  0.00  0.00    +0.000 A 
ATOM      5  C   UNL     1       1.262   9.233  18.817  0.00  0.00    +0.000 A 
ATOM      6  C   UNL     1       1.844   8.209  18.102  0.00  0.00    +0.000 A 
ATOM      7  C   UNL     1       2.282   7.010  18.714  0.00  0.00    +0.000 A 
ATOM      8  C   UNL     1       2.058   6.925  20.112  0.00  0.00    +0.000 A 
ATOM      9  C   UNL     1       1.451   7.957  20.837  0.00  0.00    +0.000 A 
BRANCH   4  13
ATOM     10  C   UNL     1      -0.679  12.389  22.365  0.00  0.00    +0.000 A 
ATOM     11  C   UNL     1      -0.848  11.074  22.794  0.00  0.00    +0.000 A 
ATOM     12  C   UNL     1      -0.285  10.038  22.087  0.00  0.00    +0.000 A 
ATOM     13  C   UNL     1       0.466  10.279  20.923  0.00  0.00    +0.000 A 
ATOM     14  C   UNL     1       0.621  11.610  20.478  0.00  0.00    +0.000 A 
ATOM     15  C   UNL     1       0.040  12.659  21.191  0.00  0.00    +0.000 A 
BRANCH  10  16
ATOM     16  C   UNL     1      -1.164  13.490  23.249  0.00  0.00    +0.000 C 
BRANCH  16  18
ATOM     17  C   UNL     1      -3.505  13.546  22.239  0.00  0.00    +0.000 C 
ATOM     18  C   UNL     1      -2.669  13.245  23.493  0.00  0.00    +0.000 C 
ENDBRANCH  16  18
ENDBRANCH  10  16
ENDBRANCH   4  13
ENDBRANCH   1   7
BRANCH   2  19
ATOM     19  C   UNL     1       4.996   5.254  16.541  0.00  0.00    +0.000 C 
ATOM     20  C   UNL     1       6.142   4.575  17.253  0.00  0.00    +0.000 C 
ATOM     21  C   UNL     1       6.426   5.597  16.131  0.00  0.00    +0.000 C 
BRANCH  21  22
ATOM     22  C   UNL     1       6.652   5.066  14.738  0.00  0.00    +0.000 A 
ATOM     23  C   UNL     1       5.763   4.115  14.209  0.00  0.00    +0.000 A 
ATOM     24  C   UNL     1       5.971   3.621  12.922  0.00  0.00    +0.000 A 
ATOM     25  C   UNL     1       7.062   4.066  12.177  0.00  0.00    +0.000 A 
ATOM     26  C   UNL     1       7.928   5.014  12.732  0.00  0.00    +0.000 A 
ATOM     27  N   UNL     1       7.702   5.496  13.985  0.00  0.00    +0.000 NA
ENDBRANCH  21  22
ENDBRANCH   2  19
BRANCH   1  28
ATOM     28  C   UNL     1       2.378   4.673  17.536  0.00  0.00    +0.000 C 
BRANCH  28  29
ATOM     29  C   UNL     1       2.021   3.599  18.600  0.00  0.00    +0.000 C 
BRANCH  29  30
ATOM     30  N   UNL     1       0.903   2.749  18.166  0.00  0.00    +0.000 NA
ATOM     31  H   UNL     1       1.073   2.389  17.204  0.00  0.00    +0.000 HD
ATOM     32  H   UNL     1       0.007   3.283  18.163  0.00  0.00    +0.000 HD
ENDBRANCH  29  30
BRANCH  29  33
ATOM     33  C   UNL     1       3.230   2.694  18.945  0.00  0.00    +0.000 C 
BRANCH  33  34
ATOM     34  C   UNL     1       3.749   2.798  20.410  0.00  0.00    +0.000 C 
ATOM     35  C   UNL     1       2.629   2.660  21.460  0.00  0.00    +0.000 C 
ATOM     36  C   UNL     1       4.806   1.718  20.650  0.00  0.00    +0.000 C 
ENDBRANCH  33  34
ENDBRANCH  29  33
ENDBRANCH  28  29
ENDBRANCH   1  28
TORSDOF 11
ENDMDL
MODEL 7
REMARK VINA RESULT:      -8.7      0.862      1.501
REMARK  Name = 
REMARK  14 active torsions:
REMARK  status: ('A' for Active; 'I' for Inactive)
REMARK    1  A    between atoms: C_1  and  C_2
REMARK    2  A    between atoms: C_2  and  C_3
REMARK    3  A    between atoms: C_3  and  C_4
REMARK    4  A    between atoms: C_7  and  C_8
REMARK    5  A    between atoms: C_11  and  N_12
REMARK    6  A    between atoms: N_12  and  C_13
REMARK    7  A    between atoms: C_13  and  C_14
REMARK    8  A    between atoms: C_14  and  N_15
REMARK    9  A    between atoms: C_14  and  C_16
REMARK   10  A    between atoms: C_16  and  C_17
REMARK   11  A    between atoms: C_17  and  C_18
REMARK   12  A    between atoms: C_17  and  C_19
REMARK   13  A    between atoms: C_20  and  C_22
REMARK   14  A    between atoms: C_24  and  C_25
REMARK                            x       y       z     vdW  Elec       q    Type
REMARK                         _______ _______ _______ _____ _____    ______ ____
ROOT
ATOM      1  N   UNL     1       3.395   5.942  17.947  0.00  0.00    +0.000 N 
ATOM      2  C   UNL     1       4.521   6.287  17.199  0.00  0.00    +0.000 C 
ATOM      3  O   UNL     1       4.974   7.427  17.217  0.00  0.00    +0.000 OA
ENDROOT
BRANCH   1   7
ATOM      4  C   UNL     1       1.195   8.832  20.287  0.00  0.00    +0.000 A 
ATOM      5  C   UNL     1       1.676   7.641  20.831  0.00  0.00    +0.000 A 
ATOM      6  C   UNL     1       2.400   6.747  20.073  0.00  0.00    +0.000 A 
ATOM      7  C   UNL     1       2.685   6.968  18.704  0.00  0.00    +0.000 A 
ATOM      8  C   UNL     1       2.194   8.189  18.171  0.00  0.00    +0.000 A 
ATOM      9  C   UNL     1       1.474   9.106  18.945  0.00  0.00    +0.000 A 
BRANCH   4  13
ATOM     10  C   UNL     1      -1.138  11.521  22.666  0.00  0.00    +0.000 A 
ATOM     11  C   UNL     1      -0.574  11.939  21.462  0.00  0.00    +0.000 A 
ATOM     12  C   UNL     1       0.173  11.066  20.708  0.00  0.00    +0.000 A 
ATOM     13  C   UNL     1       0.386   9.741  21.132  0.00  0.00    +0.000 A 
ATOM     14  C   UNL     1      -0.170   9.323  22.360  0.00  0.00    +0.000 A 
ATOM     15  C   UNL     1      -0.919  10.215  23.130  0.00  0.00    +0.000 A 
BRANCH  10  16
ATOM     16  C   UNL     1      -2.075  12.446  23.369  0.00  0.00    +0.000 C 
BRANCH  16  18
ATOM     17  C   UNL     1      -4.176  12.709  21.947  0.00  0.00    +0.000 C 
ATOM     18  C   UNL     1      -2.789  13.279  22.281  0.00  0.00    +0.000 C 
ENDBRANCH  16  18
ENDBRANCH  10  16
ENDBRANCH   4  13
ENDBRANCH   1   7
BRANCH   2  19
ATOM     19  C   UNL     1       5.289   5.283  16.350  0.00  0.00    +0.000 C 
ATOM     20  C   UNL     1       6.548   4.785  17.018  0.00  0.00    +0.000 C 
ATOM     21  C   UNL     1       6.643   5.704  15.782  0.00  0.00    +0.000 C 
BRANCH  21  22
ATOM     22  C   UNL     1       6.806   5.051  14.433  0.00  0.00    +0.000 A 
ATOM     23  C   UNL     1       5.913   4.039  14.043  0.00  0.00    +0.000 A 
ATOM     24  C   UNL     1       6.062   3.432  12.797  0.00  0.00    +0.000 A 
ATOM     25  C   UNL     1       7.100   3.827  11.955  0.00  0.00    +0.000 A 
ATOM     26  C   UNL     1       7.972   4.838  12.371  0.00  0.00    +0.000 A 
ATOM     27  N   UNL     1       7.803   5.430  13.586  0.00  0.00    +0.000 NA
ENDBRANCH  21  22
ENDBRANCH   2  19
BRANCH   1  28
ATOM     28  C   UNL     1       3.024   4.497  17.909  0.00  0.00    +0.000 C 
BRANCH  28  29
ATOM     29  C   UNL     1       1.599   3.996  18.274  0.00  0.00    +0.000 C 
BRANCH  29  30
ATOM     30  N   UNL     1       0.670   4.114  17.141  0.00  0.00    +0.000 NA
ATOM     31  H   UNL     1      -0.315   4.103  17.477  0.00  0.00    +0.000 HD
ATOM     32  H   UNL     1       0.797   3.326  16.470  0.00  0.00    +0.000 HD
ENDBRANCH  29  30
BRANCH  29  33
ATOM     33  C   UNL     1       1.605   2.526  18.762  0.00  0.00    +0.000 C 
BRANCH  33  34
ATOM     34  C   UNL     1       1.914   2.323  20.276  0.00  0.00    +0.000 C 
ATOM     35  C   UNL     1       3.417   2.415  20.606  0.00  0.00    +0.000 C 
ATOM     36  C   UNL     1       1.150   3.369  21.092  0.00  0.00    +0.000 C 
ENDBRANCH  33  34
ENDBRANCH  29  33
ENDBRANCH  28  29
ENDBRANCH   1  28
TORSDOF 11
ENDMDL
MODEL 8
REMARK VINA RESULT:      -8.7      1.067      1.233
REMARK  Name = 
REMARK  14 active torsions:
REMARK  status: ('A' for Active; 'I' for Inactive)
REMARK    1  A    between atoms: C_1  and  C_2
REMARK    2  A    between atoms: C_2  and  C_3
REMARK    3  A    between atoms: C_3  and  C_4
REMARK    4  A    between atoms: C_7  and  C_8
REMARK    5  A    between atoms: C_11  and  N_12
REMARK    6  A    between atoms: N_12  and  C_13
REMARK    7  A    between atoms: C_13  and  C_14
REMARK    8  A    between atoms: C_14  and  N_15
REMARK    9  A    between atoms: C_14  and  C_16
REMARK   10  A    between atoms: C_16  and  C_17
REMARK   11  A    between atoms: C_17  and  C_18
REMARK   12  A    between atoms: C_17  and  C_19
REMARK   13  A    between atoms: C_20  and  C_22
REMARK   14  A    between atoms: C_24  and  C_25
REMARK                            x       y       z     vdW  Elec       q    Type
REMARK                         _______ _______ _______ _____ _____    ______ ____
ROOT
ATOM      1  N   UNL     1       3.165   5.868  17.857  0.00  0.00    +0.000 N 
ATOM      2  C   UNL     1       4.442   6.148  17.370  0.00  0.00    +0.000 C 
ATOM      3  O   UNL     1       5.029   7.181  17.674  0.00  0.00    +0.000 OA
ENDROOT
BRANCH   1   7
ATOM      4  C   UNL     1       1.203   8.935  20.184  0.00  0.00    +0.000 A 
ATOM      5  C   UNL     1       1.429   9.067  18.813  0.00  0.00    +0.000 A 
ATOM      6  C   UNL     1       2.031   8.064  18.086  0.00  0.00    +0.000 A 
ATOM      7  C   UNL     1       2.470   6.855  18.678  0.00  0.00    +0.000 A 
ATOM      8  C   UNL     1       2.225   6.737  20.071  0.00  0.00    +0.000 A 
ATOM      9  C   UNL     1       1.597   7.748  20.808  0.00  0.00    +0.000 A 
BRANCH   4  13
ATOM     10  C   UNL     1      -0.534  12.240  22.279  0.00  0.00    +0.000 A 
ATOM     11  C   UNL     1       0.309  12.449  21.189  0.00  0.00    +0.000 A 
ATOM     12  C   UNL     1       0.860  11.380  20.525  0.00  0.00    +0.000 A 
ATOM     13  C   UNL     1       0.590  10.059  20.929  0.00  0.00    +0.000 A 
ATOM     14  C   UNL     1      -0.249   9.848  22.044  0.00  0.00    +0.000 A 
ATOM     15  C   UNL     1      -0.799  10.936  22.724  0.00  0.00    +0.000 A 
BRANCH  10  16
ATOM     16  C   UNL     1      -1.240  13.418  22.866  0.00  0.00    +0.000 C 
BRANCH  16  18
ATOM     17  C   UNL     1      -1.369  15.914  22.357  0.00  0.00    +0.000 C 
ATOM     18  C   UNL     1      -0.460  14.677  22.427  0.00  0.00    +0.000 C 
ENDBRANCH  16  18
ENDBRANCH  10  16
ENDBRANCH   4  13
ENDBRANCH   1   7
BRANCH   2  19
ATOM     19  C   UNL     1       5.213   5.188  16.473  0.00  0.00    +0.000 C 
ATOM     20  C   UNL     1       6.453   4.630  17.132  0.00  0.00    +0.000 C 
ATOM     21  C   UNL     1       6.584   5.625  15.959  0.00  0.00    +0.000 C 
BRANCH  21  22
ATOM     22  C   UNL     1       6.764   5.057  14.573  0.00  0.00    +0.000 A 
ATOM     23  C   UNL     1       5.905   4.039  14.127  0.00  0.00    +0.000 A 
ATOM     24  C   UNL     1       6.071   3.511  12.848  0.00  0.00    +0.000 A 
ATOM     25  C   UNL     1       7.092   3.990  12.028  0.00  0.00    +0.000 A 
ATOM     26  C   UNL     1       7.930   5.004  12.501  0.00  0.00    +0.000 A 
ATOM     27  N   UNL     1       7.745   5.518  13.749  0.00  0.00    +0.000 NA
ENDBRANCH  21  22
ENDBRANCH   2  19
BRANCH   1  28
ATOM     28  C   UNL     1       2.622   4.529  17.487  0.00  0.00    +0.000 C 
BRANCH  28  29
ATOM     29  C   UNL     1       2.824   3.274  18.381  0.00  0.00    +0.000 C 
BRANCH  29  30
ATOM     30  N   UNL     1       3.821   2.354  17.814  0.00  0.00    +0.000 NA
ATOM     31  H   UNL     1       3.382   1.437  17.590  0.00  0.00    +0.000 HD
ATOM     32  H   UNL     1       4.601   2.190  18.486  0.00  0.00    +0.000 HD
ENDBRANCH  29  30
BRANCH  29  33
ATOM     33  C   UNL     1       3.253   3.647  19.822  0.00  0.00    +0.000 C 
BRANCH  33  34
ATOM     34  C   UNL     1       2.138   3.528  20.904  0.00  0.00    +0.000 C 
ATOM     35  C   UNL     1       0.723   3.404  20.306  0.00  0.00    +0.000 C 
ATOM     36  C   UNL     1       2.424   2.314  21.791  0.00  0.00    +0.000 C 
ENDBRANCH  33  34
ENDBRANCH  29  33
ENDBRANCH  28  29
ENDBRANCH   1  28
TORSDOF 11
ENDMDL
MODEL 9
REMARK VINA RESULT:      -8.6      0.866      1.377
REMARK  Name = 
REMARK  14 active torsions:
REMARK  status: ('A' for Active; 'I' for Inactive)
REMARK    1  A    between atoms: C_1  and  C_2
REMARK    2  A    between atoms: C_2  and  C_3
REMARK    3  A    between atoms: C_3  and  C_4
REMARK    4  A    between atoms: C_7  and  C_8
REMARK    5  A    between atoms: C_11  and  N_12
REMARK    6  A    between atoms: N_12  and  C_13
REMARK    7  A    between atoms: C_13  and  C_14
REMARK    8  A    between atoms: C_14  and  N_15
REMARK    9  A    between atoms: C_14  and  C_16
REMARK   10  A    between atoms: C_16  and  C_17
REMARK   11  A    between atoms: C_17  and  C_18
REMARK   12  A    between atoms: C_17  and  C_19
REMARK   13  A    between atoms: C_20  and  C_22
REMARK   14  A    between atoms: C_24  and  C_25
REMARK                            x       y       z     vdW  Elec       q    Type
REMARK                         _______ _______ _______ _____ _____    ______ ____
ROOT
ATOM      1  N   UNL     1       3.452   5.727  18.304  0.00  0.00    +0.000 N 
ATOM      2  C   UNL     1       4.309   6.189  17.304  0.00  0.00    +0.000 C 
ATOM      3  O   UNL     1       4.431   7.387  17.072  0.00  0.00    +0.000 OA
ENDROOT
BRANCH   1   7
ATOM      4  C   UNL     1       1.088   8.681  20.393  0.00  0.00    +0.000 A 
ATOM      5  C   UNL     1       1.508   8.856  19.074  0.00  0.00    +0.000 A 
ATOM      6  C   UNL     1       2.237   7.888  18.418  0.00  0.00    +0.000 A 
ATOM      7  C   UNL     1       2.618   6.674  19.039  0.00  0.00    +0.000 A 
ATOM      8  C   UNL     1       2.175   6.511  20.377  0.00  0.00    +0.000 A 
ATOM      9  C   UNL     1       1.420   7.486  21.038  0.00  0.00    +0.000 A 
BRANCH   4  13
ATOM     10  C   UNL     1      -1.064  11.778  22.418  0.00  0.00    +0.000 A 
ATOM     11  C   UNL     1      -0.775  10.574  23.057  0.00  0.00    +0.000 A 
ATOM     12  C   UNL     1      -0.083   9.588  22.396  0.00  0.00    +0.000 A 
ATOM     13  C   UNL     1       0.343   9.769  21.067  0.00  0.00    +0.000 A 
ATOM     14  C   UNL     1       0.034  10.980  20.413  0.00  0.00    +0.000 A 
ATOM     15  C   UNL     1      -0.678  11.977  21.084  0.00  0.00    +0.000 A 
BRANCH  10  16
ATOM     16  C   UNL     1      -1.669  12.881  23.223  0.00  0.00    +0.000 C 
BRANCH  16  18
ATOM     17  C   UNL     1      -4.128  12.830  22.548  0.00  0.00    +0.000 C 
ATOM     18  C   UNL     1      -2.771  13.524  22.353  0.00  0.00    +0.000 C 
ENDBRANCH  16  18
ENDBRANCH  10  16
ENDBRANCH   4  13
ENDBRANCH   1   7
BRANCH   2  19
ATOM     19  C   UNL     1       5.178   5.260  16.467  0.00  0.00    +0.000 C 
ATOM     20  C   UNL     1       6.500   4.938  17.121  0.00  0.00    +0.000 C 
ATOM     21  C   UNL     1       6.459   5.825  15.858  0.00  0.00    +0.000 C 
BRANCH  21  22
ATOM     22  C   UNL     1       6.675   5.157  14.524  0.00  0.00    +0.000 A 
ATOM     23  C   UNL     1       5.782   4.159  14.098  0.00  0.00    +0.000 A 
ATOM     24  C   UNL     1       5.981   3.538  12.866  0.00  0.00    +0.000 A 
ATOM     25  C   UNL     1       7.067   3.905  12.073  0.00  0.00    +0.000 A 
ATOM     26  C   UNL     1       7.938   4.902  12.525  0.00  0.00    +0.000 A 
ATOM     27  N   UNL     1       7.721   5.507  13.725  0.00  0.00    +0.000 NA
ENDBRANCH  21  22
ENDBRANCH   2  19
BRANCH   1  28
ATOM     28  C   UNL     1       3.487   4.254  18.543  0.00  0.00    +0.000 C 
BRANCH  28  29
ATOM     29  C   UNL     1       2.280   3.332  18.218  0.00  0.00    +0.000 C 
BRANCH  29  30
ATOM     30  N   UNL     1       2.332   2.831  16.836  0.00  0.00    +0.000 NA
ATOM     31  H   UNL     1       3.296   2.916  16.454  0.00  0.00    +0.000 HD
ATOM     32  H   UNL     1       1.685   3.368  16.220  0.00  0.00    +0.000 HD
ENDBRANCH  29  30
BRANCH  29  33
ATOM     33  C   UNL     1       2.192   2.123  19.183  0.00  0.00    +0.000 C 
BRANCH  33  34
ATOM     34  C   UNL     1       1.458   2.394  20.530  0.00  0.00    +0.000 C 
ATOM     35  C   UNL     1       2.420   2.719  21.690  0.00  0.00    +0.000 C 
ATOM     36  C   UNL     1       0.475   3.553  20.346  0.00  0.00    +0.000 C 
ENDBRANCH  33  34
ENDBRANCH  29  33
ENDBRANCH  28  29
ENDBRANCH   1  28
TORSDOF 11
ENDMDL
