MODEL 1
REMARK VINA RESULT:      -7.3      0.000      0.000
REMARK  Name = 
REMARK  9 active torsions:
REMARK  status: ('A' for Active; 'I' for Inactive)
REMARK    1  A    between atoms: C_1  and  N_2
REMARK    2  A    between atoms: N_5  and  C_6
REMARK    3  A    between atoms: C_6  and  S_8
REMARK    4  A    between atoms: S_8  and  C_9
REMARK    5  A    between atoms: C_9  and  C_10
REMARK    6  A    between atoms: C_10  and  C_11
REMARK    7  A    between atoms: C_11  and  C_12
REMARK    8  A    between atoms: C_11  and  C_14
REMARK    9  A    between atoms: C_11  and  C_20
REMARK                            x       y       z     vdW  Elec       q    Type
REMARK                         _______ _______ _______ _____ _____    ______ ____
ROOT
ATOM      1  C   UNL     1       4.560   5.456  18.176  0.00  0.00    +0.000 C 
ENDROOT
BRANCH   1   2
ATOM      2  C   UNL     1       3.470   4.464  18.632  0.00  0.00    +0.000 A 
ATOM      3  C   UNL     1       2.472   4.044  17.723  0.00  0.00    +0.000 A 
ATOM      4  C   UNL     1       1.458   3.167  18.130  0.00  0.00    +0.000 A 
ATOM      5  C   UNL     1       1.421   2.685  19.439  0.00  0.00    +0.000 A 
ATOM      6  C   UNL     1       2.395   3.077  20.350  0.00  0.00    +0.000 A 
ATOM      7  C   UNL     1       3.407   3.953  19.958  0.00  0.00    +0.000 A 
ENDBRANCH   1   2
BRANCH   1   8
ATOM      8  C   UNL     1       5.044   5.090  16.755  0.00  0.00    +0.000 A 
ATOM      9  C   UNL     1       5.466   3.769  16.462  0.00  0.00    +0.000 A 
ATOM     10  C   UNL     1       5.936   3.424  15.193  0.00  0.00    +0.000 A 
ATOM     11  C   UNL     1       5.984   4.381  14.182  0.00  0.00    +0.000 A 
ATOM     12  C   UNL     1       5.554   5.682  14.436  0.00  0.00    +0.000 A 
ATOM     13  C   UNL     1       5.086   6.037  15.705  0.00  0.00    +0.000 A 
ENDBRANCH   1   8
BRANCH   1  14
ATOM     14  C   UNL     1       5.744   5.358  19.124  0.00  0.00    +0.000 C 
ATOM     15  N   UNL     1       6.726   5.276  19.912  0.00  0.00    +0.000 NA
ENDBRANCH   1  14
BRANCH   1  16
ATOM     16  C   UNL     1       4.037   6.935  18.294  0.00  0.00    +0.000 C 
BRANCH  16  17
ATOM     17  C   UNL     1       2.492   7.116  18.390  0.00  0.00    +0.000 C 
BRANCH  17  18
ATOM     18  S   UNL     1       1.936   7.470  20.099  0.00  0.00    +0.000 S 
BRANCH  18  19
ATOM     19  C   UNL     1       1.283   9.111  19.818  0.00  0.00    +0.000 C 
ATOM     20  S   UNL     1       1.259   9.579  18.455  0.00  0.00    +0.000 S 
BRANCH  19  25
ATOM     21  C   UNL     1      -1.866  11.805  23.368  0.00  0.00    +0.000 C 
ATOM     22  N   UNL     1      -0.606  11.352  22.770  0.00  0.00    +0.000 NA
ATOM     23  C   UNL     1      -0.488  11.833  21.378  0.00  0.00    +0.000 C 
ATOM     24  C   UNL     1       0.876  11.434  20.814  0.00  0.00    +0.000 C 
ATOM     25  N   UNL     1       1.025   9.985  20.937  0.00  0.00    +0.000 N 
ATOM     26  C   UNL     1       0.865   9.458  22.289  0.00  0.00    +0.000 C 
ATOM     27  C   UNL     1      -0.503   9.881  22.816  0.00  0.00    +0.000 C 
ENDBRANCH  19  25
ENDBRANCH  18  19
ENDBRANCH  17  18
ENDBRANCH  16  17
ENDBRANCH   1  16
TORSDOF 8
ENDMDL
MODEL 2
REMARK VINA RESULT:      -7.2      0.198      1.329
REMARK  Name = 
REMARK  9 active torsions:
REMARK  status: ('A' for Active; 'I' for Inactive)
REMARK    1  A    between atoms: C_1  and  N_2
REMARK    2  A    between atoms: N_5  and  C_6
REMARK    3  A    between atoms: C_6  and  S_8
REMARK    4  A    between atoms: S_8  and  C_9
REMARK    5  A    between atoms: C_9  and  C_10
REMARK    6  A    between atoms: C_10  and  C_11
REMARK    7  A    between atoms: C_11  and  C_12
REMARK    8  A    between atoms: C_11  and  C_14
REMARK    9  A    between atoms: C_11  and  C_20
REMARK                            x       y       z     vdW  Elec       q    Type
REMARK                         _______ _______ _______ _____ _____    ______ ____
ROOT
ATOM      1  C   UNL     1       4.656   5.350  18.203  0.00  0.00    +0.000 C 
ENDROOT
BRANCH   1   2
ATOM      2  C   UNL     1       3.588   4.317  18.620  0.00  0.00    +0.000 A 
ATOM      3  C   UNL     1       3.577   3.804  19.936  0.00  0.00    +0.000 A 
ATOM      4  C   UNL     1       2.633   2.844  20.322  0.00  0.00    +0.000 A 
ATOM      5  C   UNL     1       1.680   2.383  19.413  0.00  0.00    +0.000 A 
ATOM      6  C   UNL     1       1.665   2.877  18.113  0.00  0.00    +0.000 A 
ATOM      7  C   UNL     1       2.603   3.830  17.716  0.00  0.00    +0.000 A 
ENDBRANCH   1   2
BRANCH   1   8
ATOM      8  C   UNL     1       5.160   5.039  16.776  0.00  0.00    +0.000 A 
ATOM      9  C   UNL     1       5.123   6.039  15.772  0.00  0.00    +0.000 A 
ATOM     10  C   UNL     1       5.544   5.770  14.468  0.00  0.00    +0.000 A 
ATOM     11  C   UNL     1       6.025   4.507  14.135  0.00  0.00    +0.000 A 
ATOM     12  C   UNL     1       6.094   3.511  15.108  0.00  0.00    +0.000 A 
ATOM     13  C   UNL     1       5.670   3.770  16.416  0.00  0.00    +0.000 A 
ENDBRANCH   1   8
BRANCH   1  14
ATOM     14  C   UNL     1       5.835   5.254  19.158  0.00  0.00    +0.000 C 
ATOM     15  N   UNL     1       6.813   5.174  19.950  0.00  0.00    +0.000 NA
ENDBRANCH   1  14
BRANCH   1  16
ATOM     16  C   UNL     1       4.094   6.811  18.361  0.00  0.00    +0.000 C 
BRANCH  16  17
ATOM     17  C   UNL     1       2.543   6.952  18.416  0.00  0.00    +0.000 C 
BRANCH  17  18
ATOM     18  S   UNL     1       1.937   7.328  20.104  0.00  0.00    +0.000 S 
BRANCH  18  19
ATOM     19  C   UNL     1       1.342   8.986  19.796  0.00  0.00    +0.000 C 
ATOM     20  S   UNL     1       1.367   9.445  18.429  0.00  0.00    +0.000 S 
BRANCH  19  25
ATOM     21  C   UNL     1      -1.805  11.620  23.393  0.00  0.00    +0.000 C 
ATOM     22  N   UNL     1      -0.547  11.211  22.760  0.00  0.00    +0.000 NA
ATOM     23  C   UNL     1      -0.501  11.661  21.353  0.00  0.00    +0.000 C 
ATOM     24  C   UNL     1       0.859  11.312  20.750  0.00  0.00    +0.000 C 
ATOM     25  N   UNL     1       1.082   9.876  20.902  0.00  0.00    +0.000 N 
ATOM     26  C   UNL     1       0.996   9.377  22.271  0.00  0.00    +0.000 C 
ATOM     27  C   UNL     1      -0.371   9.748  22.838  0.00  0.00    +0.000 C 
ENDBRANCH  19  25
ENDBRANCH  18  19
ENDBRANCH  17  18
ENDBRANCH  16  17
ENDBRANCH   1  16
TORSDOF 8
ENDMDL
MODEL 3
REMARK VINA RESULT:      -7.1      1.338      1.833
REMARK  Name = 
REMARK  9 active torsions:
REMARK  status: ('A' for Active; 'I' for Inactive)
REMARK    1  A    between atoms: C_1  and  N_2
REMARK    2  A    between atoms: N_5  and  C_6
REMARK    3  A    between atoms: C_6  and  S_8
REMARK    4  A    between atoms: S_8  and  C_9
REMARK    5  A    between atoms: C_9  and  C_10
REMARK    6  A    between atoms: C_10  and  C_11
REMARK    7  A    between atoms: C_11  and  C_12
REMARK    8  A    between atoms: C_11  and  C_14
REMARK    9  A    between atoms: C_11  and  C_20
REMARK                            x       y       z     vdW  Elec       q    Type
REMARK                         _______ _______ _______ _____ _____    ______ ____
ROOT
ATOM      1  C   UNL     1       4.710   5.372  17.649  0.00  0.00    +0.000 C 
ENDROOT
BRANCH   1   2
ATOM      2  C   UNL     1       3.625   4.326  17.981  0.00  0.00    +0.000 A 
ATOM      3  C   UNL     1       3.986   3.100  18.582  0.00  0.00    +0.000 A 
ATOM      4  C   UNL     1       3.016   2.129  18.862  0.00  0.00    +0.000 A 
ATOM      5  C   UNL     1       1.674   2.359  18.559  0.00  0.00    +0.000 A 
ATOM      6  C   UNL     1       1.292   3.561  17.974  0.00  0.00    +0.000 A 
ATOM      7  C   UNL     1       2.248   4.534  17.686  0.00  0.00    +0.000 A 
ENDBRANCH   1   2
BRANCH   1   8
ATOM      8  C   UNL     1       5.429   4.987  16.338  0.00  0.00    +0.000 A 
ATOM      9  C   UNL     1       6.803   5.288  16.161  0.00  0.00    +0.000 A 
ATOM     10  C   UNL     1       7.465   4.976  14.971  0.00  0.00    +0.000 A 
ATOM     11  C   UNL     1       6.780   4.344  13.936  0.00  0.00    +0.000 A 
ATOM     12  C   UNL     1       5.435   4.016  14.091  0.00  0.00    +0.000 A 
ATOM     13  C   UNL     1       4.763   4.329  15.277  0.00  0.00    +0.000 A 
ENDBRANCH   1   8
BRANCH   1  14
ATOM     14  C   UNL     1       5.737   5.390  18.770  0.00  0.00    +0.000 C 
ATOM     15  N   UNL     1       6.588   5.405  19.701  0.00  0.00    +0.000 NA
ENDBRANCH   1  14
BRANCH   1  16
ATOM     16  C   UNL     1       4.086   6.816  17.616  0.00  0.00    +0.000 C 
BRANCH  16  17
ATOM     17  C   UNL     1       2.998   7.123  18.689  0.00  0.00    +0.000 C 
BRANCH  17  18
ATOM     18  S   UNL     1       1.863   8.463  18.167  0.00  0.00    +0.000 S 
BRANCH  18  19
ATOM     19  C   UNL     1       1.391   9.043  19.791  0.00  0.00    +0.000 C 
ATOM     20  S   UNL     1       1.371   8.067  20.852  0.00  0.00    +0.000 S 
BRANCH  19  25
ATOM     21  C   UNL     1      -2.631  12.690  20.339  0.00  0.00    +0.000 C 
ATOM     22  N   UNL     1      -1.241  12.231  20.252  0.00  0.00    +0.000 NA
ATOM     23  C   UNL     1      -0.975  11.621  18.933  0.00  0.00    +0.000 C 
ATOM     24  C   UNL     1       0.503  11.245  18.834  0.00  0.00    +0.000 C 
ATOM     25  N   UNL     1       0.837  10.366  19.952  0.00  0.00    +0.000 N 
ATOM     26  C   UNL     1       0.544  10.908  21.275  0.00  0.00    +0.000 C 
ATOM     27  C   UNL     1      -0.936  11.274  21.333  0.00  0.00    +0.000 C 
ENDBRANCH  19  25
ENDBRANCH  18  19
ENDBRANCH  17  18
ENDBRANCH  16  17
ENDBRANCH   1  16
TORSDOF 8
ENDMDL
MODEL 4
REMARK VINA RESULT:      -7.1      1.494      2.173
REMARK  Name = 
REMARK  9 active torsions:
REMARK  status: ('A' for Active; 'I' for Inactive)
REMARK    1  A    between atoms: C_1  and  N_2
REMARK    2  A    between atoms: N_5  and  C_6
REMARK    3  A    between atoms: C_6  and  S_8
REMARK    4  A    between atoms: S_8  and  C_9
REMARK    5  A    between atoms: C_9  and  C_10
REMARK    6  A    between atoms: C_10  and  C_11
REMARK    7  A    between atoms: C_11  and  C_12
REMARK    8  A    between atoms: C_11  and  C_14
REMARK    9  A    between atoms: C_11  and  C_20
REMARK                            x       y       z     vdW  Elec       q    Type
REMARK                         _______ _______ _______ _____ _____    ______ ____
ROOT
ATOM      1  C   UNL     1       4.698   5.382  17.580  0.00  0.00    +0.000 C 
ENDROOT
BRANCH   1   2
ATOM      2  C   UNL     1       3.616   4.324  17.884  0.00  0.00    +0.000 A 
ATOM      3  C   UNL     1       3.992   3.041  18.341  0.00  0.00    +0.000 A 
ATOM      4  C   UNL     1       3.024   2.061  18.594  0.00  0.00    +0.000 A 
ATOM      5  C   UNL     1       1.669   2.337  18.406  0.00  0.00    +0.000 A 
ATOM      6  C   UNL     1       1.273   3.594  17.964  0.00  0.00    +0.000 A 
ATOM      7  C   UNL     1       2.227   4.578  17.705  0.00  0.00    +0.000 A 
ENDBRANCH   1   2
BRANCH   1   8
ATOM      8  C   UNL     1       5.442   5.014  16.277  0.00  0.00    +0.000 A 
ATOM      9  C   UNL     1       4.752   4.372  15.218  0.00  0.00    +0.000 A 
ATOM     10  C   UNL     1       5.413   4.002  14.044  0.00  0.00    +0.000 A 
ATOM     11  C   UNL     1       6.770   4.275  13.890  0.00  0.00    +0.000 A 
ATOM     12  C   UNL     1       7.467   4.926  14.906  0.00  0.00    +0.000 A 
ATOM     13  C   UNL     1       6.815   5.295  16.087  0.00  0.00    +0.000 A 
ENDBRANCH   1   8
BRANCH   1  14
ATOM     14  C   UNL     1       5.705   5.399  18.718  0.00  0.00    +0.000 C 
ATOM     15  N   UNL     1       6.541   5.413  19.662  0.00  0.00    +0.000 NA
ENDBRANCH   1  14
BRANCH   1  16
ATOM     16  C   UNL     1       4.061   6.820  17.548  0.00  0.00    +0.000 C 
BRANCH  16  17
ATOM     17  C   UNL     1       3.032   7.146  18.672  0.00  0.00    +0.000 C 
BRANCH  17  18
ATOM     18  S   UNL     1       1.946   8.555  18.236  0.00  0.00    +0.000 S 
BRANCH  18  19
ATOM     19  C   UNL     1       1.312   8.902  19.872  0.00  0.00    +0.000 C 
ATOM     20  S   UNL     1       1.470   7.869  20.866  0.00  0.00    +0.000 S 
BRANCH  19  25
ATOM     21  C   UNL     1      -0.363  14.024  19.011  0.00  0.00    +0.000 C 
ATOM     22  N   UNL     1      -0.382  12.693  19.628  0.00  0.00    +0.000 NA
ATOM     23  C   UNL     1       0.872  12.444  20.367  0.00  0.00    +0.000 C 
ATOM     24  C   UNL     1       0.783  11.095  21.082  0.00  0.00    +0.000 C 
ATOM     25  N   UNL     1       0.483  10.062  20.093  0.00  0.00    +0.000 N 
ATOM     26  C   UNL     1      -0.722  10.293  19.303  0.00  0.00    +0.000 C 
ATOM     27  C   UNL     1      -0.597  11.646  18.610  0.00  0.00    +0.000 C 
ENDBRANCH  19  25
ENDBRANCH  18  19
ENDBRANCH  17  18
ENDBRANCH  16  17
ENDBRANCH   1  16
TORSDOF 8
ENDMDL
MODEL 5
REMARK VINA RESULT:      -7.0      0.653      1.138
REMARK  Name = 
REMARK  9 active torsions:
REMARK  status: ('A' for Active; 'I' for Inactive)
REMARK    1  A    between atoms: C_1  and  N_2
REMARK    2  A    between atoms: N_5  and  C_6
REMARK    3  A    between atoms: C_6  and  S_8
REMARK    4  A    between atoms: S_8  and  C_9
REMARK    5  A    between atoms: C_9  and  C_10
REMARK    6  A    between atoms: C_10  and  C_11
REMARK    7  A    between atoms: C_11  and  C_12
REMARK    8  A    between atoms: C_11  and  C_14
REMARK    9  A    between atoms: C_11  and  C_20
REMARK                            x       y       z     vdW  Elec       q    Type
REMARK                         _______ _______ _______ _____ _____    ______ ____
ROOT
ATOM      1  C   UNL     1       4.575   5.441  18.167  0.00  0.00    +0.000 C 
ENDROOT
BRANCH   1   2
ATOM      2  C   UNL     1       3.469   4.477  18.646  0.00  0.00    +0.000 A 
ATOM      3  C   UNL     1       2.482   4.029  17.740  0.00  0.00    +0.000 A 
ATOM      4  C   UNL     1       1.455   3.177  18.166  0.00  0.00    +0.000 A 
ATOM      5  C   UNL     1       1.393   2.750  19.493  0.00  0.00    +0.000 A 
ATOM      6  C   UNL     1       2.356   3.171  20.402  0.00  0.00    +0.000 A 
ATOM      7  C   UNL     1       3.382   4.023  19.991  0.00  0.00    +0.000 A 
ENDBRANCH   1   2
BRANCH   1   8
ATOM      8  C   UNL     1       5.057   5.031  16.758  0.00  0.00    +0.000 A 
ATOM      9  C   UNL     1       5.463   3.698  16.502  0.00  0.00    +0.000 A 
ATOM     10  C   UNL     1       5.931   3.313  15.243  0.00  0.00    +0.000 A 
ATOM     11  C   UNL     1       5.991   4.241  14.206  0.00  0.00    +0.000 A 
ATOM     12  C   UNL     1       5.577   5.554  14.424  0.00  0.00    +0.000 A 
ATOM     13  C   UNL     1       5.112   5.949  15.682  0.00  0.00    +0.000 A 
ENDBRANCH   1   8
BRANCH   1  14
ATOM     14  C   UNL     1       5.755   5.351  19.121  0.00  0.00    +0.000 C 
ATOM     15  N   UNL     1       6.734   5.275  19.912  0.00  0.00    +0.000 NA
ENDBRANCH   1  14
BRANCH   1  16
ATOM     16  C   UNL     1       4.074   6.930  18.245  0.00  0.00    +0.000 C 
BRANCH  16  17
ATOM     17  C   UNL     1       2.531   7.137  18.320  0.00  0.00    +0.000 C 
BRANCH  17  18
ATOM     18  S   UNL     1       1.990   7.763  19.955  0.00  0.00    +0.000 S 
BRANCH  18  19
ATOM     19  C   UNL     1       1.038   9.166  19.386  0.00  0.00    +0.000 C 
ATOM     20  S   UNL     1       1.542   9.873  18.235  0.00  0.00    +0.000 S 
BRANCH  19  25
ATOM     21  C   UNL     1      -1.247  12.548  23.008  0.00  0.00    +0.000 C 
ATOM     22  N   UNL     1      -1.209  11.441  22.047  0.00  0.00    +0.000 NA
ATOM     23  C   UNL     1      -0.286  10.383  22.508  0.00  0.00    +0.000 C 
ATOM     24  C   UNL     1      -0.344   9.200  21.540  0.00  0.00    +0.000 C 
ATOM     25  N   UNL     1      -0.039   9.683  20.196  0.00  0.00    +0.000 N 
ATOM     26  C   UNL     1      -0.894  10.765  19.717  0.00  0.00    +0.000 C 
ATOM     27  C   UNL     1      -0.813  11.922  20.709  0.00  0.00    +0.000 C 
ENDBRANCH  19  25
ENDBRANCH  18  19
ENDBRANCH  17  18
ENDBRANCH  16  17
ENDBRANCH   1  16
TORSDOF 8
ENDMDL
MODEL 6
REMARK VINA RESULT:      -7.0      1.396      2.134
REMARK  Name = 
REMARK  9 active torsions:
REMARK  status: ('A' for Active; 'I' for Inactive)
REMARK    1  A    between atoms: C_1  and  N_2
REMARK    2  A    between atoms: N_5  and  C_6
REMARK    3  A    between atoms: C_6  and  S_8
REMARK    4  A    between atoms: S_8  and  C_9
REMARK    5  A    between atoms: C_9  and  C_10
REMARK    6  A    between atoms: C_10  and  C_11
REMARK    7  A    between atoms: C_11  and  C_12
REMARK    8  A    between atoms: C_11  and  C_14
REMARK    9  A    between atoms: C_11  and  C_20
REMARK                            x       y       z     vdW  Elec       q    Type
REMARK                         _______ _______ _______ _____ _____    ______ ____
ROOT
ATOM      1  C   UNL     1       4.745   5.377  17.717  0.00  0.00    +0.000 C 
ENDROOT
BRANCH   1   2
ATOM      2  C   UNL     1       3.654   4.342  18.065  0.00  0.00    +0.000 A 
ATOM      3  C   UNL     1       3.988   3.182  18.799  0.00  0.00    +0.000 A 
ATOM      4  C   UNL     1       3.015   2.220  19.098  0.00  0.00    +0.000 A 
ATOM      5  C   UNL     1       1.695   2.394  18.681  0.00  0.00    +0.000 A 
ATOM      6  C   UNL     1       1.338   3.529  17.963  0.00  0.00    +0.000 A 
ATOM      7  C   UNL     1       2.299   4.493  17.656  0.00  0.00    +0.000 A 
ENDBRANCH   1   2
BRANCH   1   8
ATOM      8  C   UNL     1       5.432   4.990  16.389  0.00  0.00    +0.000 A 
ATOM      9  C   UNL     1       6.786   5.341  16.157  0.00  0.00    +0.000 A 
ATOM     10  C   UNL     1       7.418   5.028  14.951  0.00  0.00    +0.000 A 
ATOM     11  C   UNL     1       6.724   4.346  13.955  0.00  0.00    +0.000 A 
ATOM     12  C   UNL     1       5.399   3.969  14.165  0.00  0.00    +0.000 A 
ATOM     13  C   UNL     1       4.756   4.282  15.367  0.00  0.00    +0.000 A 
ENDBRANCH   1   8
BRANCH   1  14
ATOM     14  C   UNL     1       5.793   5.377  18.817  0.00  0.00    +0.000 C 
ATOM     15  N   UNL     1       6.664   5.377  19.730  0.00  0.00    +0.000 NA
ENDBRANCH   1  14
BRANCH   1  16
ATOM     16  C   UNL     1       4.137   6.828  17.703  0.00  0.00    +0.000 C 
BRANCH  16  17
ATOM     17  C   UNL     1       2.905   7.070  18.627  0.00  0.00    +0.000 C 
BRANCH  17  18
ATOM     18  S   UNL     1       1.974   8.579  18.166  0.00  0.00    +0.000 S 
BRANCH  18  19
ATOM     19  C   UNL     1       1.219   8.906  19.754  0.00  0.00    +0.000 C 
ATOM     20  S   UNL     1       1.547   8.004  20.830  0.00  0.00    +0.000 S 
BRANCH  19  25
ATOM     21  C   UNL     1      -0.870  13.945  19.899  0.00  0.00    +0.000 C 
ATOM     22  N   UNL     1      -0.905  12.479  19.917  0.00  0.00    +0.000 NA
ATOM     23  C   UNL     1      -0.166  11.954  21.084  0.00  0.00    +0.000 C 
ATOM     24  C   UNL     1      -0.304  10.433  21.133  0.00  0.00    +0.000 C 
ATOM     25  N   UNL     1       0.161   9.881  19.863  0.00  0.00    +0.000 N 
ATOM     26  C   UNL     1      -0.507  10.408  18.677  0.00  0.00    +0.000 C 
ATOM     27  C   UNL     1      -0.351  11.926  18.666  0.00  0.00    +0.000 C 
ENDBRANCH  19  25
ENDBRANCH  18  19
ENDBRANCH  17  18
ENDBRANCH  16  17
ENDBRANCH   1  16
TORSDOF 8
ENDMDL
MODEL 7
REMARK VINA RESULT:      -7.0      1.259      1.826
REMARK  Name = 
REMARK  9 active torsions:
REMARK  status: ('A' for Active; 'I' for Inactive)
REMARK    1  A    between atoms: C_1  and  N_2
REMARK    2  A    between atoms: N_5  and  C_6
REMARK    3  A    between atoms: C_6  and  S_8
REMARK    4  A    between atoms: S_8  and  C_9
REMARK    5  A    between atoms: C_9  and  C_10
REMARK    6  A    between atoms: C_10  and  C_11
REMARK    7  A    between atoms: C_11  and  C_12
REMARK    8  A    between atoms: C_11  and  C_14
REMARK    9  A    between atoms: C_11  and  C_20
REMARK                            x       y       z     vdW  Elec       q    Type
REMARK                         _______ _______ _______ _____ _____    ______ ____
ROOT
ATOM      1  C   UNL     1       4.432   5.503  18.005  0.00  0.00    +0.000 C 
ENDROOT
BRANCH   1   2
ATOM      2  C   UNL     1       3.309   4.541  18.448  0.00  0.00    +0.000 A 
ATOM      3  C   UNL     1       2.161   4.374  17.641  0.00  0.00    +0.000 A 
ATOM      4  C   UNL     1       1.121   3.527  18.044  0.00  0.00    +0.000 A 
ATOM      5  C   UNL     1       1.203   2.827  19.248  0.00  0.00    +0.000 A 
ATOM      6  C   UNL     1       2.325   2.968  20.057  0.00  0.00    +0.000 A 
ATOM      7  C   UNL     1       3.366   3.811  19.669  0.00  0.00    +0.000 A 
ENDBRANCH   1   2
BRANCH   1   8
ATOM      8  C   UNL     1       4.987   5.065  16.631  0.00  0.00    +0.000 A 
ATOM      9  C   UNL     1       5.327   3.709  16.397  0.00  0.00    +0.000 A 
ATOM     10  C   UNL     1       5.860   3.298  15.174  0.00  0.00    +0.000 A 
ATOM     11  C   UNL     1       6.053   4.221  14.149  0.00  0.00    +0.000 A 
ATOM     12  C   UNL     1       5.706   5.557  14.344  0.00  0.00    +0.000 A 
ATOM     13  C   UNL     1       5.177   5.979  15.568  0.00  0.00    +0.000 A 
ENDBRANCH   1   8
BRANCH   1  14
ATOM     14  C   UNL     1       5.562   5.443  19.019  0.00  0.00    +0.000 C 
ATOM     15  N   UNL     1       6.500   5.393  19.861  0.00  0.00    +0.000 NA
ENDBRANCH   1  14
BRANCH   1  16
ATOM     16  C   UNL     1       3.917   6.989  18.023  0.00  0.00    +0.000 C 
BRANCH  16  17
ATOM     17  C   UNL     1       2.707   7.290  18.959  0.00  0.00    +0.000 C 
BRANCH  17  18
ATOM     18  S   UNL     1       1.797   8.800  18.459  0.00  0.00    +0.000 S 
BRANCH  18  19
ATOM     19  C   UNL     1       1.056   9.184  20.040  0.00  0.00    +0.000 C 
ATOM     20  S   UNL     1       1.242   8.223  21.099  0.00  0.00    +0.000 S 
BRANCH  19  25
ATOM     21  C   UNL     1      -0.561  14.367  19.491  0.00  0.00    +0.000 C 
ATOM     22  N   UNL     1      -0.698  12.951  19.849  0.00  0.00    +0.000 NA
ATOM     23  C   UNL     1       0.261  12.588  20.913  0.00  0.00    +0.000 C 
ATOM     24  C   UNL     1       0.027  11.138  21.336  0.00  0.00    +0.000 C 
ATOM     25  N   UNL     1       0.130  10.285  20.154  0.00  0.00    +0.000 N 
ATOM     26  C   UNL     1      -0.764  10.638  19.056  0.00  0.00    +0.000 C 
ATOM     27  C   UNL     1      -0.504  12.090  18.666  0.00  0.00    +0.000 C 
ENDBRANCH  19  25
ENDBRANCH  18  19
ENDBRANCH  17  18
ENDBRANCH  16  17
ENDBRANCH   1  16
TORSDOF 8
ENDMDL
MODEL 8
REMARK VINA RESULT:      -6.9      1.297      2.043
REMARK  Name = 
REMARK  9 active torsions:
REMARK  status: ('A' for Active; 'I' for Inactive)
REMARK    1  A    between atoms: C_1  and  N_2
REMARK    2  A    between atoms: N_5  and  C_6
REMARK    3  A    between atoms: C_6  and  S_8
REMARK    4  A    between atoms: S_8  and  C_9
REMARK    5  A    between atoms: C_9  and  C_10
REMARK    6  A    between atoms: C_10  and  C_11
REMARK    7  A    between atoms: C_11  and  C_12
REMARK    8  A    between atoms: C_11  and  C_14
REMARK    9  A    between atoms: C_11  and  C_20
REMARK                            x       y       z     vdW  Elec       q    Type
REMARK                         _______ _______ _______ _____ _____    ______ ____
ROOT
ATOM      1  C   UNL     1       4.534   5.525  18.034  0.00  0.00    +0.000 C 
ENDROOT
BRANCH   1   2
ATOM      2  C   UNL     1       3.381   4.614  18.505  0.00  0.00    +0.000 A 
ATOM      3  C   UNL     1       3.444   3.994  19.774  0.00  0.00    +0.000 A 
ATOM      4  C   UNL     1       2.419   3.142  20.204  0.00  0.00    +0.000 A 
ATOM      5  C   UNL     1       1.313   2.895  19.389  0.00  0.00    +0.000 A 
ATOM      6  C   UNL     1       1.224   3.498  18.140  0.00  0.00    +0.000 A 
ATOM      7  C   UNL     1       2.240   4.346  17.698  0.00  0.00    +0.000 A 
ENDBRANCH   1   2
BRANCH   1   8
ATOM      8  C   UNL     1       5.049   5.052  16.656  0.00  0.00    +0.000 A 
ATOM      9  C   UNL     1       5.191   5.977  15.591  0.00  0.00    +0.000 A 
ATOM     10  C   UNL     1       5.625   5.565  14.329  0.00  0.00    +0.000 A 
ATOM     11  C   UNL     1       5.941   4.228  14.100  0.00  0.00    +0.000 A 
ATOM     12  C   UNL     1       5.831   3.301  15.136  0.00  0.00    +0.000 A 
ATOM     13  C   UNL     1       5.393   3.704  16.401  0.00  0.00    +0.000 A 
ENDBRANCH   1   8
BRANCH   1  14
ATOM     14  C   UNL     1       5.678   5.429  19.030  0.00  0.00    +0.000 C 
ATOM     15  N   UNL     1       6.627   5.349  19.857  0.00  0.00    +0.000 NA
ENDBRANCH   1  14
BRANCH   1  16
ATOM     16  C   UNL     1       4.081   7.031  18.046  0.00  0.00    +0.000 C 
BRANCH  16  17
ATOM     17  C   UNL     1       2.715   7.336  18.733  0.00  0.00    +0.000 C 
BRANCH  17  18
ATOM     18  S   UNL     1       1.840   8.743  17.951  0.00  0.00    +0.000 S 
BRANCH  18  19
ATOM     19  C   UNL     1       1.202   9.503  19.439  0.00  0.00    +0.000 C 
ATOM     20  S   UNL     1       1.107   8.666  20.609  0.00  0.00    +0.000 S 
BRANCH  19  25
ATOM     21  C   UNL     1      -2.106  13.511  21.103  0.00  0.00    +0.000 C 
ATOM     22  N   UNL     1      -1.091  12.876  20.256  0.00  0.00    +0.000 NA
ATOM     23  C   UNL     1      -1.653  11.696  19.566  0.00  0.00    +0.000 C 
ATOM     24  C   UNL     1      -0.606  11.116  18.614  0.00  0.00    +0.000 C 
ATOM     25  N   UNL     1       0.602  10.814  19.379  0.00  0.00    +0.000 N 
ATOM     26  C   UNL     1       1.164  11.939  20.119  0.00  0.00    +0.000 C 
ATOM     27  C   UNL     1       0.091  12.492  21.052  0.00  0.00    +0.000 C 
ENDBRANCH  19  25
ENDBRANCH  18  19
ENDBRANCH  17  18
ENDBRANCH  16  17
ENDBRANCH   1  16
TORSDOF 8
ENDMDL
MODEL 9
REMARK VINA RESULT:      -6.9      1.301      1.842
REMARK  Name = 
REMARK  9 active torsions:
REMARK  status: ('A' for Active; 'I' for Inactive)
REMARK    1  A    between atoms: C_1  and  N_2
REMARK    2  A    between atoms: N_5  and  C_6
REMARK    3  A    between atoms: C_6  and  S_8
REMARK    4  A    between atoms: S_8  and  C_9
REMARK    5  A    between atoms: C_9  and  C_10
REMARK    6  A    between atoms: C_10  and  C_11
REMARK    7  A    between atoms: C_11  and  C_12
REMARK    8  A    between atoms: C_11  and  C_14
REMARK    9  A    between atoms: C_11  and  C_20
REMARK                            x       y       z     vdW  Elec       q    Type
REMARK                         _______ _______ _______ _____ _____    ______ ____
ROOT
ATOM      1  C   UNL     1       4.750   5.394  17.722  0.00  0.00    +0.000 C 
ENDROOT
BRANCH   1   2
ATOM      2  C   UNL     1       3.647   4.366  18.052  0.00  0.00    +0.000 A 
ATOM      3  C   UNL     1       2.329   4.569  17.586  0.00  0.00    +0.000 A 
ATOM      4  C   UNL     1       1.311   3.660  17.902  0.00  0.00    +0.000 A 
ATOM      5  C   UNL     1       1.583   2.532  18.677  0.00  0.00    +0.000 A 
ATOM      6  C   UNL     1       2.873   2.306  19.143  0.00  0.00    +0.000 A 
ATOM      7  C   UNL     1       3.895   3.206  18.839  0.00  0.00    +0.000 A 
ENDBRANCH   1   2
BRANCH   1   8
ATOM      8  C   UNL     1       5.441   5.016  16.393  0.00  0.00    +0.000 A 
ATOM      9  C   UNL     1       6.807   5.328  16.184  0.00  0.00    +0.000 A 
ATOM     10  C   UNL     1       7.443   5.024  14.978  0.00  0.00    +0.000 A 
ATOM     11  C   UNL     1       6.739   4.388  13.959  0.00  0.00    +0.000 A 
ATOM     12  C   UNL     1       5.400   4.048  14.146  0.00  0.00    +0.000 A 
ATOM     13  C   UNL     1       4.754   4.354  15.348  0.00  0.00    +0.000 A 
ENDBRANCH   1   8
BRANCH   1  14
ATOM     14  C   UNL     1       5.793   5.370  18.827  0.00  0.00    +0.000 C 
ATOM     15  N   UNL     1       6.659   5.351  19.744  0.00  0.00    +0.000 NA
ENDBRANCH   1  14
BRANCH   1  16
ATOM     16  C   UNL     1       4.157   6.851  17.723  0.00  0.00    +0.000 C 
BRANCH  16  17
ATOM     17  C   UNL     1       2.898   7.084  18.612  0.00  0.00    +0.000 C 
BRANCH  17  18
ATOM     18  S   UNL     1       1.893   8.505  18.040  0.00  0.00    +0.000 S 
BRANCH  18  19
ATOM     19  C   UNL     1       1.369   9.105  19.640  0.00  0.00    +0.000 C 
ATOM     20  S   UNL     1       1.427   8.173  20.738  0.00  0.00    +0.000 S 
BRANCH  19  25
ATOM     21  C   UNL     1       0.360  13.985  21.865  0.00  0.00    +0.000 C 
ATOM     22  N   UNL     1       0.207  12.899  20.892  0.00  0.00    +0.000 NA
ATOM     23  C   UNL     1      -0.284  11.672  21.554  0.00  0.00    +0.000 C 
ATOM     24  C   UNL     1      -0.530  10.590  20.503  0.00  0.00    +0.000 C 
ATOM     25  N   UNL     1       0.704  10.382  19.749  0.00  0.00    +0.000 N 
ATOM     26  C   UNL     1       1.254  11.578  19.119  0.00  0.00    +0.000 C 
ATOM     27  C   UNL     1       1.482  12.633  20.197  0.00  0.00    +0.000 C 
ENDBRANCH  19  25
ENDBRANCH  18  19
ENDBRANCH  17  18
ENDBRANCH  16  17
ENDBRANCH   1  16
TORSDOF 8
ENDMDL
