MODEL 1
REMARK VINA RESULT:      -6.4      0.000      0.000
REMARK  Name = 
REMARK  7 active torsions:
REMARK  status: ('A' for Active; 'I' for Inactive)
REMARK    1  A    between atoms: S_2  and  C_4
REMARK    2  A    between atoms: S_2  and  C_12
REMARK    3  A    between atoms: C_4  and  C_5
REMARK    4  A    between atoms: C_12  and  C_13
REMARK    5  A    between atoms: C_13  and  O_14
REMARK    6  A    between atoms: C_13  and  C_15
REMARK    7  A    between atoms: C_15  and  O_16
REMARK                            x       y       z     vdW  Elec       q    Type
REMARK                         _______ _______ _______ _____ _____    ______ ____
ROOT
ATOM      1  O   UNL     1       4.468   5.944  18.048  0.00  0.00    +0.000 OA
ATOM      2  S   UNL     1       5.298   4.799  18.384  0.00  0.00    +0.000 S 
ATOM      3  O   UNL     1       6.033   4.774  19.638  0.00  0.00    +0.000 OA
ENDROOT
BRANCH   2   4
ATOM      4  C   UNL     1       4.298   3.308  18.236  0.00  0.00    +0.000 C 
BRANCH   4   5
ATOM      5  C   UNL     1       3.221   3.279  19.296  0.00  0.00    +0.000 A 
ATOM      6  C   UNL     1       3.507   2.677  20.538  0.00  0.00    +0.000 A 
ATOM      7  C   UNL     1       2.540   2.590  21.541  0.00  0.00    +0.000 A 
ATOM      8  C   UNL     1       1.262   3.088  21.319  0.00  0.00    +0.000 A 
ATOM      9  C   UNL     1       0.949   3.664  20.090  0.00  0.00    +0.000 A 
ATOM     10  C   UNL     1       1.919   3.760  19.082  0.00  0.00    +0.000 A 
ATOM     11 CL   UNL     1       1.425   4.444  17.574  0.00  0.00    +0.000 Cl
ENDBRANCH   4   5
ENDBRANCH   2   4
BRANCH   2  12
ATOM     12  C   UNL     1       6.501   4.674  17.069  0.00  0.00    +0.000 C 
BRANCH  12  13
ATOM     13  C   UNL     1       5.973   5.175  15.740  0.00  0.00    +0.000 C 
BRANCH  13  14
ATOM     14  O   UNL     1       6.049   6.605  15.729  0.00  0.00    +0.000 OA
ATOM     15  H   UNL     1       5.645   6.920  14.895  0.00  0.00    +0.000 HD
ENDBRANCH  13  14
BRANCH  13  16
ATOM     16  C   UNL     1       6.822   4.646  14.576  0.00  0.00    +0.000 C 
BRANCH  16  17
ATOM     17  O   UNL     1       7.879   5.570  14.312  0.00  0.00    +0.000 OA
ATOM     18  H   UNL     1       7.570   6.194  13.628  0.00  0.00    +0.000 HD
ENDBRANCH  16  17
ENDBRANCH  13  16
ENDBRANCH  12  13
ENDBRANCH   2  12
TORSDOF 7
ENDMDL
MODEL 2
REMARK VINA RESULT:      -6.2      1.951      2.886
REMARK  Name = 
REMARK  7 active torsions:
REMARK  status: ('A' for Active; 'I' for Inactive)
REMARK    1  A    between atoms: S_2  and  C_4
REMARK    2  A    between atoms: S_2  and  C_12
REMARK    3  A    between atoms: C_4  and  C_5
REMARK    4  A    between atoms: C_12  and  C_13
REMARK    5  A    between atoms: C_13  and  O_14
REMARK    6  A    between atoms: C_13  and  C_15
REMARK    7  A    between atoms: C_15  and  O_16
REMARK                            x       y       z     vdW  Elec       q    Type
REMARK                         _______ _______ _______ _____ _____    ______ ____
ROOT
ATOM      1  O   UNL     1       4.905   3.817  15.962  0.00  0.00    +0.000 OA
ATOM      2  S   UNL     1       4.893   4.726  17.097  0.00  0.00    +0.000 S 
ATOM      3  O   UNL     1       3.958   5.838  17.131  0.00  0.00    +0.000 OA
ENDROOT
BRANCH   2   4
ATOM      4  C   UNL     1       4.733   3.751  18.604  0.00  0.00    +0.000 C 
BRANCH   4   5
ATOM      5  C   UNL     1       3.344   3.886  19.182  0.00  0.00    +0.000 A 
ATOM      6  C   UNL     1       3.131   4.801  20.232  0.00  0.00    +0.000 A 
ATOM      7  C   UNL     1       1.876   4.942  20.828  0.00  0.00    +0.000 A 
ATOM      8  C   UNL     1       0.812   4.159  20.400  0.00  0.00    +0.000 A 
ATOM      9  C   UNL     1       1.005   3.228  19.382  0.00  0.00    +0.000 A 
ATOM     10  C   UNL     1       2.261   3.089  18.775  0.00  0.00    +0.000 A 
ATOM     11 CL   UNL     1       2.418   1.874  17.555  0.00  0.00    +0.000 Cl
ENDBRANCH   4   5
ENDBRANCH   2   4
BRANCH   2  12
ATOM     12  C   UNL     1       6.537   5.420  17.175  0.00  0.00    +0.000 C 
BRANCH  12  13
ATOM     13  C   UNL     1       7.382   4.809  18.275  0.00  0.00    +0.000 C 
BRANCH  13  14
ATOM     14  O   UNL     1       8.420   4.028  17.671  0.00  0.00    +0.000 OA
ATOM     15  H   UNL     1       8.404   3.140  18.083  0.00  0.00    +0.000 HD
ENDBRANCH  13  14
BRANCH  13  16
ATOM     16  C   UNL     1       8.044   5.897  19.131  0.00  0.00    +0.000 C 
BRANCH  16  17
ATOM     17  O   UNL     1       7.977   5.513  20.506  0.00  0.00    +0.000 OA
ATOM     18  H   UNL     1       7.144   5.024  20.642  0.00  0.00    +0.000 HD
ENDBRANCH  16  17
ENDBRANCH  13  16
ENDBRANCH  12  13
ENDBRANCH   2  12
TORSDOF 7
ENDMDL
MODEL 3
REMARK VINA RESULT:      -6.1      1.361      1.807
REMARK  Name = 
REMARK  7 active torsions:
REMARK  status: ('A' for Active; 'I' for Inactive)
REMARK    1  A    between atoms: S_2  and  C_4
REMARK    2  A    between atoms: S_2  and  C_12
REMARK    3  A    between atoms: C_4  and  C_5
REMARK    4  A    between atoms: C_12  and  C_13
REMARK    5  A    between atoms: C_13  and  O_14
REMARK    6  A    between atoms: C_13  and  C_15
REMARK    7  A    between atoms: C_15  and  O_16
REMARK                            x       y       z     vdW  Elec       q    Type
REMARK                         _______ _______ _______ _____ _____    ______ ____
ROOT
ATOM      1  O   UNL     1       4.558   6.177  18.062  0.00  0.00    +0.000 OA
ATOM      2  S   UNL     1       5.309   4.944  18.232  0.00  0.00    +0.000 S 
ATOM      3  O   UNL     1       6.095   4.729  19.436  0.00  0.00    +0.000 OA
ENDROOT
BRANCH   2   4
ATOM      4  C   UNL     1       4.188   3.556  17.982  0.00  0.00    +0.000 C 
BRANCH   4   5
ATOM      5  C   UNL     1       3.206   3.450  19.126  0.00  0.00    +0.000 A 
ATOM      6  C   UNL     1       2.025   4.216  19.080  0.00  0.00    +0.000 A 
ATOM      7  C   UNL     1       1.099   4.186  20.125  0.00  0.00    +0.000 A 
ATOM      8  C   UNL     1       1.344   3.404  21.246  0.00  0.00    +0.000 A 
ATOM      9  C   UNL     1       2.518   2.659  21.327  0.00  0.00    +0.000 A 
ATOM     10  C   UNL     1       3.446   2.680  20.276  0.00  0.00    +0.000 A 
ATOM     11 CL   UNL     1       4.897   1.764  20.486  0.00  0.00    +0.000 Cl
ENDBRANCH   4   5
ENDBRANCH   2   4
BRANCH   2  12
ATOM     12  C   UNL     1       6.438   4.873  16.849  0.00  0.00    +0.000 C 
BRANCH  12  13
ATOM     13  C   UNL     1       5.746   5.066  15.514  0.00  0.00    +0.000 C 
BRANCH  13  14
ATOM     14  O   UNL     1       5.440   6.457  15.358  0.00  0.00    +0.000 OA
ATOM     15  H   UNL     1       5.752   6.733  14.472  0.00  0.00    +0.000 HD
ENDBRANCH  13  14
BRANCH  13  16
ATOM     16  C   UNL     1       6.659   4.647  14.354  0.00  0.00    +0.000 C 
BRANCH  16  17
ATOM     17  O   UNL     1       7.842   5.447  14.380  0.00  0.00    +0.000 OA
ATOM     18  H   UNL     1       8.173   5.525  13.466  0.00  0.00    +0.000 HD
ENDBRANCH  16  17
ENDBRANCH  13  16
ENDBRANCH  12  13
ENDBRANCH   2  12
TORSDOF 7
ENDMDL
MODEL 4
REMARK VINA RESULT:      -6.1      1.715      1.824
REMARK  Name = 
REMARK  7 active torsions:
REMARK  status: ('A' for Active; 'I' for Inactive)
REMARK    1  A    between atoms: S_2  and  C_4
REMARK    2  A    between atoms: S_2  and  C_12
REMARK    3  A    between atoms: C_4  and  C_5
REMARK    4  A    between atoms: C_12  and  C_13
REMARK    5  A    between atoms: C_13  and  O_14
REMARK    6  A    between atoms: C_13  and  C_15
REMARK    7  A    between atoms: C_15  and  O_16
REMARK                            x       y       z     vdW  Elec       q    Type
REMARK                         _______ _______ _______ _____ _____    ______ ____
ROOT
ATOM      1  O   UNL     1       5.874   5.931  18.771  0.00  0.00    +0.000 OA
ATOM      2  S   UNL     1       5.415   4.645  18.271  0.00  0.00    +0.000 S 
ATOM      3  O   UNL     1       5.394   3.486  19.149  0.00  0.00    +0.000 OA
ENDROOT
BRANCH   2   4
ATOM      4  C   UNL     1       3.789   4.872  17.526  0.00  0.00    +0.000 C 
BRANCH   4   5
ATOM      5  C   UNL     1       2.718   4.232  18.378  0.00  0.00    +0.000 A 
ATOM      6  C   UNL     1       2.213   2.972  18.000  0.00  0.00    +0.000 A 
ATOM      7  C   UNL     1       1.198   2.349  18.729  0.00  0.00    +0.000 A 
ATOM      8  C   UNL     1       0.654   2.980  19.840  0.00  0.00    +0.000 A 
ATOM      9  C   UNL     1       1.118   4.238  20.217  0.00  0.00    +0.000 A 
ATOM     10  C   UNL     1       2.143   4.864  19.493  0.00  0.00    +0.000 A 
ATOM     11 CL   UNL     1       2.620   6.444  20.005  0.00  0.00    +0.000 Cl
ENDBRANCH   4   5
ENDBRANCH   2   4
BRANCH   2  12
ATOM     12  C   UNL     1       6.492   4.248  16.903  0.00  0.00    +0.000 C 
BRANCH  12  13
ATOM     13  C   UNL     1       6.515   5.328  15.839  0.00  0.00    +0.000 C 
BRANCH  13  14
ATOM     14  O   UNL     1       7.441   6.344  16.243  0.00  0.00    +0.000 OA
ATOM     15  H   UNL     1       8.085   6.466  15.516  0.00  0.00    +0.000 HD
ENDBRANCH  13  14
BRANCH  13  16
ATOM     16  C   UNL     1       6.986   4.764  14.492  0.00  0.00    +0.000 C 
BRANCH  16  17
ATOM     17  O   UNL     1       6.349   3.506  14.265  0.00  0.00    +0.000 OA
ATOM     18  H   UNL     1       7.044   2.824  14.200  0.00  0.00    +0.000 HD
ENDBRANCH  16  17
ENDBRANCH  13  16
ENDBRANCH  12  13
ENDBRANCH   2  12
TORSDOF 7
ENDMDL
MODEL 5
REMARK VINA RESULT:      -6.1      1.769      2.156
REMARK  Name = 
REMARK  7 active torsions:
REMARK  status: ('A' for Active; 'I' for Inactive)
REMARK    1  A    between atoms: S_2  and  C_4
REMARK    2  A    between atoms: S_2  and  C_12
REMARK    3  A    between atoms: C_4  and  C_5
REMARK    4  A    between atoms: C_12  and  C_13
REMARK    5  A    between atoms: C_13  and  O_14
REMARK    6  A    between atoms: C_13  and  C_15
REMARK    7  A    between atoms: C_15  and  O_16
REMARK                            x       y       z     vdW  Elec       q    Type
REMARK                         _______ _______ _______ _____ _____    ______ ____
ROOT
ATOM      1  O   UNL     1       4.028   5.359  17.448  0.00  0.00    +0.000 OA
ATOM      2  S   UNL     1       4.847   4.164  17.569  0.00  0.00    +0.000 S 
ATOM      3  O   UNL     1       5.936   4.120  18.531  0.00  0.00    +0.000 OA
ENDROOT
BRANCH   2   4
ATOM      4  C   UNL     1       3.759   2.750  17.818  0.00  0.00    +0.000 C 
BRANCH   4   5
ATOM      5  C   UNL     1       2.920   2.934  19.061  0.00  0.00    +0.000 A 
ATOM      6  C   UNL     1       1.688   3.610  18.955  0.00  0.00    +0.000 A 
ATOM      7  C   UNL     1       0.889   3.842  20.077  0.00  0.00    +0.000 A 
ATOM      8  C   UNL     1       1.312   3.418  21.330  0.00  0.00    +0.000 A 
ATOM      9  C   UNL     1       2.538   2.771  21.463  0.00  0.00    +0.000 A 
ATOM     10  C   UNL     1       3.341   2.530  20.339  0.00  0.00    +0.000 A 
ATOM     11 CL   UNL     1       4.868   1.766  20.608  0.00  0.00    +0.000 Cl
ENDBRANCH   4   5
ENDBRANCH   2   4
BRANCH   2  12
ATOM     12  C   UNL     1       5.566   3.908  15.953  0.00  0.00    +0.000 C 
BRANCH  12  13
ATOM     13  C   UNL     1       6.689   4.878  15.648  0.00  0.00    +0.000 C 
BRANCH  13  14
ATOM     14  O   UNL     1       7.831   4.513  16.432  0.00  0.00    +0.000 OA
ATOM     15  H   UNL     1       8.094   3.607  16.172  0.00  0.00    +0.000 HD
ENDBRANCH  13  14
BRANCH  13  16
ATOM     16  C   UNL     1       7.088   4.812  14.168  0.00  0.00    +0.000 C 
BRANCH  16  17
ATOM     17  O   UNL     1       6.518   3.639  13.584  0.00  0.00    +0.000 OA
ATOM     18  H   UNL     1       7.239   3.005  13.417  0.00  0.00    +0.000 HD
ENDBRANCH  16  17
ENDBRANCH  13  16
ENDBRANCH  12  13
ENDBRANCH   2  12
TORSDOF 7
ENDMDL
MODEL 6
REMARK VINA RESULT:      -6.1      2.185      2.807
REMARK  Name = 
REMARK  7 active torsions:
REMARK  status: ('A' for Active; 'I' for Inactive)
REMARK    1  A    between atoms: S_2  and  C_4
REMARK    2  A    between atoms: S_2  and  C_12
REMARK    3  A    between atoms: C_4  and  C_5
REMARK    4  A    between atoms: C_12  and  C_13
REMARK    5  A    between atoms: C_13  and  O_14
REMARK    6  A    between atoms: C_13  and  C_15
REMARK    7  A    between atoms: C_15  and  O_16
REMARK                            x       y       z     vdW  Elec       q    Type
REMARK                         _______ _______ _______ _____ _____    ______ ____
ROOT
ATOM      1  O   UNL     1       5.216   4.640  18.766  0.00  0.00    +0.000 OA
ATOM      2  S   UNL     1       4.735   5.210  17.518  0.00  0.00    +0.000 S 
ATOM      3  O   UNL     1       4.886   4.474  16.273  0.00  0.00    +0.000 OA
ENDROOT
BRANCH   2   4
ATOM      4  C   UNL     1       3.011   5.686  17.737  0.00  0.00    +0.000 C 
BRANCH   4   5
ATOM      5  C   UNL     1       2.259   4.628  18.511  0.00  0.00    +0.000 A 
ATOM      6  C   UNL     1       2.006   3.387  17.893  0.00  0.00    +0.000 A 
ATOM      7  C   UNL     1       1.285   2.385  18.546  0.00  0.00    +0.000 A 
ATOM      8  C   UNL     1       0.787   2.609  19.824  0.00  0.00    +0.000 A 
ATOM      9  C   UNL     1       1.002   3.838  20.444  0.00  0.00    +0.000 A 
ATOM     10  C   UNL     1       1.732   4.843  19.795  0.00  0.00    +0.000 A 
ATOM     11 CL   UNL     1       1.905   6.352  20.620  0.00  0.00    +0.000 Cl
ENDBRANCH   4   5
ENDBRANCH   2   4
BRANCH   2  12
ATOM     12  C   UNL     1       5.613   6.754  17.324  0.00  0.00    +0.000 C 
BRANCH  12  13
ATOM     13  C   UNL     1       7.119   6.578  17.323  0.00  0.00    +0.000 C 
BRANCH  13  14
ATOM     14  O   UNL     1       7.528   6.172  16.011  0.00  0.00    +0.000 OA
ATOM     15  H   UNL     1       8.499   6.049  16.027  0.00  0.00    +0.000 HD
ENDBRANCH  13  14
BRANCH  13  16
ATOM     16  C   UNL     1       7.828   7.897  17.656  0.00  0.00    +0.000 C 
BRANCH  16  17
ATOM     17  O   UNL     1       8.575   7.733  18.863  0.00  0.00    +0.000 OA
ATOM     18  H   UNL     1       8.634   8.602  19.301  0.00  0.00    +0.000 HD
ENDBRANCH  16  17
ENDBRANCH  13  16
ENDBRANCH  12  13
ENDBRANCH   2  12
TORSDOF 7
ENDMDL
MODEL 7
REMARK VINA RESULT:      -6.1      1.524      1.645
REMARK  Name = 
REMARK  7 active torsions:
REMARK  status: ('A' for Active; 'I' for Inactive)
REMARK    1  A    between atoms: S_2  and  C_4
REMARK    2  A    between atoms: S_2  and  C_12
REMARK    3  A    between atoms: C_4  and  C_5
REMARK    4  A    between atoms: C_12  and  C_13
REMARK    5  A    between atoms: C_13  and  O_14
REMARK    6  A    between atoms: C_13  and  C_15
REMARK    7  A    between atoms: C_15  and  O_16
REMARK                            x       y       z     vdW  Elec       q    Type
REMARK                         _______ _______ _______ _____ _____    ______ ____
ROOT
ATOM      1  O   UNL     1       4.150   6.308  17.822  0.00  0.00    +0.000 OA
ATOM      2  S   UNL     1       5.235   5.340  17.805  0.00  0.00    +0.000 S 
ATOM      3  O   UNL     1       6.616   5.792  17.783  0.00  0.00    +0.000 OA
ENDROOT
BRANCH   2   4
ATOM      4  C   UNL     1       4.994   4.191  19.173  0.00  0.00    +0.000 C 
BRANCH   4   5
ATOM      5  C   UNL     1       3.522   4.009  19.462  0.00  0.00    +0.000 A 
ATOM      6  C   UNL     1       2.860   4.971  20.250  0.00  0.00    +0.000 A 
ATOM      7  C   UNL     1       1.510   4.835  20.580  0.00  0.00    +0.000 A 
ATOM      8  C   UNL     1       0.798   3.725  20.144  0.00  0.00    +0.000 A 
ATOM      9  C   UNL     1       1.437   2.747  19.387  0.00  0.00    +0.000 A 
ATOM     10  C   UNL     1       2.790   2.883  19.047  0.00  0.00    +0.000 A 
ATOM     11 CL   UNL     1       3.512   1.596  18.147  0.00  0.00    +0.000 Cl
ENDBRANCH   4   5
ENDBRANCH   2   4
BRANCH   2  12
ATOM     12  C   UNL     1       4.981   4.357  16.335  0.00  0.00    +0.000 C 
BRANCH  12  13
ATOM     13  C   UNL     1       5.461   5.050  15.075  0.00  0.00    +0.000 C 
BRANCH  13  14
ATOM     14  O   UNL     1       5.643   6.442  15.362  0.00  0.00    +0.000 OA
ATOM     15  H   UNL     1       4.801   6.784  15.727  0.00  0.00    +0.000 HD
ENDBRANCH  13  14
BRANCH  13  16
ATOM     16  C   UNL     1       6.808   4.481  14.612  0.00  0.00    +0.000 C 
BRANCH  16  17
ATOM     17  O   UNL     1       7.720   5.559  14.396  0.00  0.00    +0.000 OA
ATOM     18  H   UNL     1       8.508   5.202  13.945  0.00  0.00    +0.000 HD
ENDBRANCH  16  17
ENDBRANCH  13  16
ENDBRANCH  12  13
ENDBRANCH   2  12
TORSDOF 7
ENDMDL
MODEL 8
REMARK VINA RESULT:      -6.0      1.588      2.453
REMARK  Name = 
REMARK  7 active torsions:
REMARK  status: ('A' for Active; 'I' for Inactive)
REMARK    1  A    between atoms: S_2  and  C_4
REMARK    2  A    between atoms: S_2  and  C_12
REMARK    3  A    between atoms: C_4  and  C_5
REMARK    4  A    between atoms: C_12  and  C_13
REMARK    5  A    between atoms: C_13  and  O_14
REMARK    6  A    between atoms: C_13  and  C_15
REMARK    7  A    between atoms: C_15  and  O_16
REMARK                            x       y       z     vdW  Elec       q    Type
REMARK                         _______ _______ _______ _____ _____    ______ ____
ROOT
ATOM      1  O   UNL     1       3.853   5.933  17.109  0.00  0.00    +0.000 OA
ATOM      2  S   UNL     1       4.659   5.294  18.137  0.00  0.00    +0.000 S 
ATOM      3  O   UNL     1       4.702   5.849  19.480  0.00  0.00    +0.000 OA
ENDROOT
BRANCH   2   4
ATOM      4  C   UNL     1       4.208   3.551  18.214  0.00  0.00    +0.000 C 
BRANCH   4   5
ATOM      5  C   UNL     1       3.156   3.319  19.273  0.00  0.00    +0.000 A 
ATOM      6  C   UNL     1       3.550   2.778  20.513  0.00  0.00    +0.000 A 
ATOM      7  C   UNL     1       2.617   2.508  21.517  0.00  0.00    +0.000 A 
ATOM      8  C   UNL     1       1.268   2.757  21.295  0.00  0.00    +0.000 A 
ATOM      9  C   UNL     1       0.852   3.267  20.067  0.00  0.00    +0.000 A 
ATOM     10  C   UNL     1       1.786   3.546  19.060  0.00  0.00    +0.000 A 
ATOM     11 CL   UNL     1       1.173   4.129  17.553  0.00  0.00    +0.000 Cl
ENDBRANCH   4   5
ENDBRANCH   2   4
BRANCH   2  12
ATOM     12  C   UNL     1       6.333   5.305  17.512  0.00  0.00    +0.000 C 
BRANCH  12  13
ATOM     13  C   UNL     1       7.330   4.721  18.493  0.00  0.00    +0.000 C 
BRANCH  13  14
ATOM     14  O   UNL     1       8.344   4.030  17.754  0.00  0.00    +0.000 OA
ATOM     15  H   UNL     1       9.212   4.281  18.131  0.00  0.00    +0.000 HD
ENDBRANCH  13  14
BRANCH  13  16
ATOM     16  C   UNL     1       8.010   5.827  19.311  0.00  0.00    +0.000 C 
BRANCH  16  17
ATOM     17  O   UNL     1       8.477   5.276  20.544  0.00  0.00    +0.000 OA
ATOM     18  H   UNL     1       7.846   5.526  21.244  0.00  0.00    +0.000 HD
ENDBRANCH  16  17
ENDBRANCH  13  16
ENDBRANCH  12  13
ENDBRANCH   2  12
TORSDOF 7
ENDMDL
MODEL 9
REMARK VINA RESULT:      -6.0      1.538      1.731
REMARK  Name = 
REMARK  7 active torsions:
REMARK  status: ('A' for Active; 'I' for Inactive)
REMARK    1  A    between atoms: S_2  and  C_4
REMARK    2  A    between atoms: S_2  and  C_12
REMARK    3  A    between atoms: C_4  and  C_5
REMARK    4  A    between atoms: C_12  and  C_13
REMARK    5  A    between atoms: C_13  and  O_14
REMARK    6  A    between atoms: C_13  and  C_15
REMARK    7  A    between atoms: C_15  and  O_16
REMARK                            x       y       z     vdW  Elec       q    Type
REMARK                         _______ _______ _______ _____ _____    ______ ____
ROOT
ATOM      1  O   UNL     1       6.202   5.439  19.694  0.00  0.00    +0.000 OA
ATOM      2  S   UNL     1       5.178   4.970  18.775  0.00  0.00    +0.000 S 
ATOM      3  O   UNL     1       4.985   3.545  18.563  0.00  0.00    +0.000 OA
ENDROOT
BRANCH   2   4
ATOM      4  C   UNL     1       3.611   5.734  19.231  0.00  0.00    +0.000 C 
BRANCH   4   5
ATOM      5  C   UNL     1       2.670   4.710  19.822  0.00  0.00    +0.000 A 
ATOM      6  C   UNL     1       2.827   4.345  21.174  0.00  0.00    +0.000 A 
ATOM      7  C   UNL     1       2.010   3.378  21.765  0.00  0.00    +0.000 A 
ATOM      8  C   UNL     1       1.031   2.743  21.011  0.00  0.00    +0.000 A 
ATOM      9  C   UNL     1       0.875   3.067  19.666  0.00  0.00    +0.000 A 
ATOM     10  C   UNL     1       1.688   4.043  19.071  0.00  0.00    +0.000 A 
ATOM     11 CL   UNL     1       1.456   4.344  17.385  0.00  0.00    +0.000 Cl
ENDBRANCH   4   5
ENDBRANCH   2   4
BRANCH   2  12
ATOM     12  C   UNL     1       5.590   5.684  17.190  0.00  0.00    +0.000 C 
BRANCH  12  13
ATOM     13  C   UNL     1       6.794   5.028  16.544  0.00  0.00    +0.000 C 
BRANCH  13  14
ATOM     14  O   UNL     1       7.516   4.310  17.553  0.00  0.00    +0.000 OA
ATOM     15  H   UNL     1       8.435   4.647  17.558  0.00  0.00    +0.000 HD
ENDBRANCH  13  14
BRANCH  13  16
ATOM     16  C   UNL     1       6.363   4.026  15.465  0.00  0.00    +0.000 C 
BRANCH  16  17
ATOM     17  O   UNL     1       5.395   4.644  14.615  0.00  0.00    +0.000 OA
ATOM     18  H   UNL     1       4.808   3.947  14.270  0.00  0.00    +0.000 HD
ENDBRANCH  16  17
ENDBRANCH  13  16
ENDBRANCH  12  13
ENDBRANCH   2  12
TORSDOF 7
ENDMDL
