MODEL 1
REMARK VINA RESULT:      -5.3      0.000      0.000
REMARK  Name = 
REMARK  15 active torsions:
REMARK  status: ('A' for Active; 'I' for Inactive)
REMARK    1  A    between atoms: C_1  and  C_2
REMARK    2  A    between atoms: C_2  and  C_3
REMARK    3  A    between atoms: C_3  and  C_4
REMARK    4  A    between atoms: C_4  and  C_5
REMARK    5  A    between atoms: C_5  and  C_6
REMARK    6  A    between atoms: C_6  and  C_7
REMARK    7  A    between atoms: C_7  and  C_8
REMARK    8  A    between atoms: C_8  and  C_9
REMARK    9  A    between atoms: C_9  and  C_10
REMARK   10  A    between atoms: C_10  and  C_11
REMARK   11  A    between atoms: C_11  and  C_12
REMARK   12  A    between atoms: C_12  and  C_13
REMARK   13  A    between atoms: C_13  and  C_14
REMARK   14  A    between atoms: C_14  and  C_16
REMARK   15  A    between atoms: C_16  and  C_17
REMARK                            x       y       z     vdW  Elec       q    Type
REMARK                         _______ _______ _______ _____ _____    ______ ____
ROOT
ATOM      1  C   UNL     1       4.160   5.340  19.650  0.00  0.00    +0.000 C 
ENDROOT
BRANCH   1   2
ATOM      2  C   UNL     1       2.942   6.230  19.503  0.00  0.00    +0.000 C 
BRANCH   2   3
ATOM      3  C   UNL     1       1.774   5.638  20.268  0.00  0.00    +0.000 C 
BRANCH   3   4
ATOM      4  C   UNL     1       2.268   4.557  21.209  0.00  0.00    +0.000 C 
BRANCH   4   5
ATOM      5  C   UNL     1       1.286   3.402  21.230  0.00  0.00    +0.000 C 
BRANCH   5   6
ATOM      6  C   UNL     1       0.828   3.088  19.819  0.00  0.00    +0.000 C 
BRANCH   6   7
ATOM      7  C   UNL     1       1.745   2.053  19.196  0.00  0.00    +0.000 C 
BRANCH   7   9
ATOM      8  C   UNL     1       3.682   1.931  17.650  0.00  0.00    +0.000 C 
ATOM      9  C   UNL     1       2.350   2.596  17.913  0.00  0.00    +0.000 C 
ENDBRANCH   7   9
ENDBRANCH   6   7
ENDBRANCH   5   6
ENDBRANCH   4   5
ENDBRANCH   3   4
ENDBRANCH   2   3
ENDBRANCH   1   2
BRANCH   1  10
ATOM     10  C   UNL     1       4.944   5.317  18.353  0.00  0.00    +0.000 C 
BRANCH  10  11
ATOM     11  C   UNL     1       4.488   6.452  17.456  0.00  0.00    +0.000 C 
BRANCH  11  12
ATOM     12  C   UNL     1       5.003   6.237  16.047  0.00  0.00    +0.000 C 
BRANCH  12  13
ATOM     13  C   UNL     1       5.354   4.771  15.818  0.00  0.00    +0.000 C 
BRANCH  13  14
ATOM     14  C   UNL     1       6.795   4.671  15.354  0.00  0.00    +0.000 C 
ATOM     15  O   UNL     1       7.712   4.532  16.157  0.00  0.00    +0.000 OA
BRANCH  14  16
ATOM     16  C   UNL     1       7.059   4.749  13.861  0.00  0.00    +0.000 C 
ATOM     17  C   UNL     1       6.224   3.697  13.148  0.00  0.00    +0.000 C 
ENDBRANCH  14  16
ENDBRANCH  13  14
ENDBRANCH  12  13
ENDBRANCH  11  12
ENDBRANCH  10  11
ENDBRANCH   1  10
TORSDOF 13
ENDMDL
MODEL 2
REMARK VINA RESULT:      -5.1      2.672      6.521
REMARK  Name = 
REMARK  15 active torsions:
REMARK  status: ('A' for Active; 'I' for Inactive)
REMARK    1  A    between atoms: C_1  and  C_2
REMARK    2  A    between atoms: C_2  and  C_3
REMARK    3  A    between atoms: C_3  and  C_4
REMARK    4  A    between atoms: C_4  and  C_5
REMARK    5  A    between atoms: C_5  and  C_6
REMARK    6  A    between atoms: C_6  and  C_7
REMARK    7  A    between atoms: C_7  and  C_8
REMARK    8  A    between atoms: C_8  and  C_9
REMARK    9  A    between atoms: C_9  and  C_10
REMARK   10  A    between atoms: C_10  and  C_11
REMARK   11  A    between atoms: C_11  and  C_12
REMARK   12  A    between atoms: C_12  and  C_13
REMARK   13  A    between atoms: C_13  and  C_14
REMARK   14  A    between atoms: C_14  and  C_16
REMARK   15  A    between atoms: C_16  and  C_17
REMARK                            x       y       z     vdW  Elec       q    Type
REMARK                         _______ _______ _______ _____ _____    ______ ____
ROOT
ATOM      1  C   UNL     1       3.512   5.419  17.486  0.00  0.00    +0.000 C 
ENDROOT
BRANCH   1   2
ATOM      2  C   UNL     1       3.890   4.000  17.862  0.00  0.00    +0.000 C 
BRANCH   2   3
ATOM      3  C   UNL     1       4.916   3.463  16.884  0.00  0.00    +0.000 C 
BRANCH   3   4
ATOM      4  C   UNL     1       5.043   4.402  15.700  0.00  0.00    +0.000 C 
BRANCH   4   5
ATOM      5  C   UNL     1       6.493   4.496  15.268  0.00  0.00    +0.000 C 
BRANCH   5   6
ATOM      6  C   UNL     1       7.355   4.915  16.443  0.00  0.00    +0.000 C 
BRANCH   6   7
ATOM      7  C   UNL     1       7.096   6.371  16.781  0.00  0.00    +0.000 C 
BRANCH   7   9
ATOM      8  C   UNL     1       8.203   8.076  18.204  0.00  0.00    +0.000 C 
ATOM      9  C   UNL     1       7.614   6.683  18.174  0.00  0.00    +0.000 C 
ENDBRANCH   7   9
ENDBRANCH   6   7
ENDBRANCH   5   6
ENDBRANCH   4   5
ENDBRANCH   3   4
ENDBRANCH   2   3
ENDBRANCH   1   2
BRANCH   1  10
ATOM     10  C   UNL     1       2.232   5.818  18.194  0.00  0.00    +0.000 C 
BRANCH  10  11
ATOM     11  C   UNL     1       2.552   6.346  19.579  0.00  0.00    +0.000 C 
BRANCH  11  12
ATOM     12  C   UNL     1       1.694   5.642  20.612  0.00  0.00    +0.000 C 
BRANCH  12  13
ATOM     13  C   UNL     1       2.430   4.442  21.198  0.00  0.00    +0.000 C 
BRANCH  13  14
ATOM     14  C   UNL     1       1.526   3.225  21.135  0.00  0.00    +0.000 C 
ATOM     15  O   UNL     1       1.538   2.379  22.022  0.00  0.00    +0.000 OA
BRANCH  14  16
ATOM     16  C   UNL     1       0.605   3.096  19.934  0.00  0.00    +0.000 C 
ATOM     17  C   UNL     1       1.235   2.154  18.918  0.00  0.00    +0.000 C 
ENDBRANCH  14  16
ENDBRANCH  13  14
ENDBRANCH  12  13
ENDBRANCH  11  12
ENDBRANCH  10  11
ENDBRANCH   1  10
TORSDOF 13
ENDMDL
MODEL 3
REMARK VINA RESULT:      -5.0      1.909      5.723
REMARK  Name = 
REMARK  15 active torsions:
REMARK  status: ('A' for Active; 'I' for Inactive)
REMARK    1  A    between atoms: C_1  and  C_2
REMARK    2  A    between atoms: C_2  and  C_3
REMARK    3  A    between atoms: C_3  and  C_4
REMARK    4  A    between atoms: C_4  and  C_5
REMARK    5  A    between atoms: C_5  and  C_6
REMARK    6  A    between atoms: C_6  and  C_7
REMARK    7  A    between atoms: C_7  and  C_8
REMARK    8  A    between atoms: C_8  and  C_9
REMARK    9  A    between atoms: C_9  and  C_10
REMARK   10  A    between atoms: C_10  and  C_11
REMARK   11  A    between atoms: C_11  and  C_12
REMARK   12  A    between atoms: C_12  and  C_13
REMARK   13  A    between atoms: C_13  and  C_14
REMARK   14  A    between atoms: C_14  and  C_16
REMARK   15  A    between atoms: C_16  and  C_17
REMARK                            x       y       z     vdW  Elec       q    Type
REMARK                         _______ _______ _______ _____ _____    ______ ____
ROOT
ATOM      1  C   UNL     1       2.661   5.450  18.465  0.00  0.00    +0.000 C 
ENDROOT
BRANCH   1   2
ATOM      2  C   UNL     1       2.295   6.901  18.219  0.00  0.00    +0.000 C 
BRANCH   2   3
ATOM      3  C   UNL     1       3.464   7.629  17.585  0.00  0.00    +0.000 C 
BRANCH   3   4
ATOM      4  C   UNL     1       4.654   6.697  17.475  0.00  0.00    +0.000 C 
BRANCH   4   5
ATOM      5  C   UNL     1       5.091   6.586  16.028  0.00  0.00    +0.000 C 
BRANCH   5   6
ATOM      6  C   UNL     1       6.135   5.495  15.886  0.00  0.00    +0.000 C 
BRANCH   6   7
ATOM      7  C   UNL     1       5.487   4.222  15.375  0.00  0.00    +0.000 C 
BRANCH   7   9
ATOM      8  C   UNL     1       7.146   4.549  13.560  0.00  0.00    +0.000 C 
ATOM      9  C   UNL     1       5.753   4.062  13.889  0.00  0.00    +0.000 C 
ENDBRANCH   7   9
ENDBRANCH   6   7
ENDBRANCH   5   6
ENDBRANCH   4   5
ENDBRANCH   3   4
ENDBRANCH   2   3
ENDBRANCH   1   2
BRANCH   1  10
ATOM     10  C   UNL     1       1.692   4.541  17.736  0.00  0.00    +0.000 C 
BRANCH  10  11
ATOM     11  C   UNL     1       2.428   3.329  17.198  0.00  0.00    +0.000 C 
BRANCH  11  12
ATOM     12  C   UNL     1       3.570   2.964  18.126  0.00  0.00    +0.000 C 
BRANCH  12  13
ATOM     13  C   UNL     1       3.126   1.917  19.142  0.00  0.00    +0.000 C 
BRANCH  13  14
ATOM     14  C   UNL     1       3.641   2.308  20.515  0.00  0.00    +0.000 C 
ATOM     15  O   UNL     1       4.821   2.165  20.814  0.00  0.00    +0.000 OA
BRANCH  14  16
ATOM     16  C   UNL     1       2.640   2.881  21.503  0.00  0.00    +0.000 C 
ATOM     17  C   UNL     1       1.237   2.743  20.933  0.00  0.00    +0.000 C 
ENDBRANCH  14  16
ENDBRANCH  13  14
ENDBRANCH  12  13
ENDBRANCH  11  12
ENDBRANCH  10  11
ENDBRANCH   1  10
TORSDOF 13
ENDMDL
MODEL 4
REMARK VINA RESULT:      -5.0      1.576      3.543
REMARK  Name = 
REMARK  15 active torsions:
REMARK  status: ('A' for Active; 'I' for Inactive)
REMARK    1  A    between atoms: C_1  and  C_2
REMARK    2  A    between atoms: C_2  and  C_3
REMARK    3  A    between atoms: C_3  and  C_4
REMARK    4  A    between atoms: C_4  and  C_5
REMARK    5  A    between atoms: C_5  and  C_6
REMARK    6  A    between atoms: C_6  and  C_7
REMARK    7  A    between atoms: C_7  and  C_8
REMARK    8  A    between atoms: C_8  and  C_9
REMARK    9  A    between atoms: C_9  and  C_10
REMARK   10  A    between atoms: C_10  and  C_11
REMARK   11  A    between atoms: C_11  and  C_12
REMARK   12  A    between atoms: C_12  and  C_13
REMARK   13  A    between atoms: C_13  and  C_14
REMARK   14  A    between atoms: C_14  and  C_16
REMARK   15  A    between atoms: C_16  and  C_17
REMARK                            x       y       z     vdW  Elec       q    Type
REMARK                         _______ _______ _______ _____ _____    ______ ____
ROOT
ATOM      1  C   UNL     1       2.679   2.409  17.665  0.00  0.00    +0.000 C 
ENDROOT
BRANCH   1   2
ATOM      2  C   UNL     1       2.189   1.893  19.004  0.00  0.00    +0.000 C 
BRANCH   2   3
ATOM      3  C   UNL     1       1.172   2.855  19.587  0.00  0.00    +0.000 C 
BRANCH   3   4
ATOM      4  C   UNL     1       1.381   2.982  21.083  0.00  0.00    +0.000 C 
BRANCH   4   5
ATOM      5  C   UNL     1       2.199   4.221  21.388  0.00  0.00    +0.000 C 
BRANCH   5   6
ATOM      6  C   UNL     1       1.929   5.287  20.344  0.00  0.00    +0.000 C 
BRANCH   6   7
ATOM      7  C   UNL     1       3.240   5.870  19.849  0.00  0.00    +0.000 C 
BRANCH   7   9
ATOM      8  C   UNL     1       1.772   6.136  17.866  0.00  0.00    +0.000 C 
ATOM      9  C   UNL     1       3.013   6.646  18.563  0.00  0.00    +0.000 C 
ENDBRANCH   7   9
ENDBRANCH   6   7
ENDBRANCH   5   6
ENDBRANCH   4   5
ENDBRANCH   3   4
ENDBRANCH   2   3
ENDBRANCH   1   2
BRANCH   1  10
ATOM     10  C   UNL     1       4.000   3.133  17.841  0.00  0.00    +0.000 C 
BRANCH  10  11
ATOM     11  C   UNL     1       4.341   3.897  16.576  0.00  0.00    +0.000 C 
BRANCH  11  12
ATOM     12  C   UNL     1       5.836   4.139  16.506  0.00  0.00    +0.000 C 
BRANCH  12  13
ATOM     13  C   UNL     1       6.131   5.565  16.057  0.00  0.00    +0.000 C 
BRANCH  13  14
ATOM     14  C   UNL     1       6.761   6.328  17.208  0.00  0.00    +0.000 C 
ATOM     15  O   UNL     1       7.322   7.402  17.026  0.00  0.00    +0.000 OA
BRANCH  14  16
ATOM     16  C   UNL     1       6.669   5.711  18.593  0.00  0.00    +0.000 C 
ATOM     17  C   UNL     1       8.037   5.762  19.257  0.00  0.00    +0.000 C 
ENDBRANCH  14  16
ENDBRANCH  13  14
ENDBRANCH  12  13
ENDBRANCH  11  12
ENDBRANCH  10  11
ENDBRANCH   1  10
TORSDOF 13
ENDMDL
MODEL 5
REMARK VINA RESULT:      -5.0      1.002      1.233
REMARK  Name = 
REMARK  15 active torsions:
REMARK  status: ('A' for Active; 'I' for Inactive)
REMARK    1  A    between atoms: C_1  and  C_2
REMARK    2  A    between atoms: C_2  and  C_3
REMARK    3  A    between atoms: C_3  and  C_4
REMARK    4  A    between atoms: C_4  and  C_5
REMARK    5  A    between atoms: C_5  and  C_6
REMARK    6  A    between atoms: C_6  and  C_7
REMARK    7  A    between atoms: C_7  and  C_8
REMARK    8  A    between atoms: C_8  and  C_9
REMARK    9  A    between atoms: C_9  and  C_10
REMARK   10  A    between atoms: C_10  and  C_11
REMARK   11  A    between atoms: C_11  and  C_12
REMARK   12  A    between atoms: C_12  and  C_13
REMARK   13  A    between atoms: C_13  and  C_14
REMARK   14  A    between atoms: C_14  and  C_16
REMARK   15  A    between atoms: C_16  and  C_17
REMARK                            x       y       z     vdW  Elec       q    Type
REMARK                         _______ _______ _______ _____ _____    ______ ____
ROOT
ATOM      1  C   UNL     1       4.246   5.002  19.444  0.00  0.00    +0.000 C 
ENDROOT
BRANCH   1   2
ATOM      2  C   UNL     1       3.017   5.890  19.398  0.00  0.00    +0.000 C 
BRANCH   2   3
ATOM      3  C   UNL     1       2.113   5.580  20.574  0.00  0.00    +0.000 C 
BRANCH   3   4
ATOM      4  C   UNL     1       2.050   4.082  20.798  0.00  0.00    +0.000 C 
BRANCH   4   5
ATOM      5  C   UNL     1       0.720   3.542  20.311  0.00  0.00    +0.000 C 
BRANCH   5   6
ATOM      6  C   UNL     1       0.929   2.699  19.068  0.00  0.00    +0.000 C 
BRANCH   6   7
ATOM      7  C   UNL     1       2.261   1.977  19.151  0.00  0.00    +0.000 C 
BRANCH   7   9
ATOM      8  C   UNL     1       2.690   3.132  16.997  0.00  0.00    +0.000 C 
ATOM      9  C   UNL     1       2.869   1.842  17.765  0.00  0.00    +0.000 C 
ENDBRANCH   7   9
ENDBRANCH   6   7
ENDBRANCH   5   6
ENDBRANCH   4   5
ENDBRANCH   3   4
ENDBRANCH   2   3
ENDBRANCH   1   2
BRANCH   1  10
ATOM     10  C   UNL     1       5.400   5.679  18.729  0.00  0.00    +0.000 C 
BRANCH  10  11
ATOM     11  C   UNL     1       6.025   4.717  17.736  0.00  0.00    +0.000 C 
BRANCH  11  12
ATOM     12  C   UNL     1       6.189   5.397  16.392  0.00  0.00    +0.000 C 
BRANCH  12  13
ATOM     13  C   UNL     1       5.786   4.459  15.259  0.00  0.00    +0.000 C 
BRANCH  13  14
ATOM     14  C   UNL     1       6.765   4.618  14.111  0.00  0.00    +0.000 C 
ATOM     15  O   UNL     1       7.661   5.454  14.151  0.00  0.00    +0.000 OA
BRANCH  14  16
ATOM     16  C   UNL     1       6.595   3.703  12.911  0.00  0.00    +0.000 C 
ATOM     17  C   UNL     1       5.123   3.642  12.531  0.00  0.00    +0.000 C 
ENDBRANCH  14  16
ENDBRANCH  13  14
ENDBRANCH  12  13
ENDBRANCH  11  12
ENDBRANCH  10  11
ENDBRANCH   1  10
TORSDOF 13
ENDMDL
MODEL 6
REMARK VINA RESULT:      -5.0      2.018      6.008
REMARK  Name = 
REMARK  15 active torsions:
REMARK  status: ('A' for Active; 'I' for Inactive)
REMARK    1  A    between atoms: C_1  and  C_2
REMARK    2  A    between atoms: C_2  and  C_3
REMARK    3  A    between atoms: C_3  and  C_4
REMARK    4  A    between atoms: C_4  and  C_5
REMARK    5  A    between atoms: C_5  and  C_6
REMARK    6  A    between atoms: C_6  and  C_7
REMARK    7  A    between atoms: C_7  and  C_8
REMARK    8  A    between atoms: C_8  and  C_9
REMARK    9  A    between atoms: C_9  and  C_10
REMARK   10  A    between atoms: C_10  and  C_11
REMARK   11  A    between atoms: C_11  and  C_12
REMARK   12  A    between atoms: C_12  and  C_13
REMARK   13  A    between atoms: C_13  and  C_14
REMARK   14  A    between atoms: C_14  and  C_16
REMARK   15  A    between atoms: C_16  and  C_17
REMARK                            x       y       z     vdW  Elec       q    Type
REMARK                         _______ _______ _______ _____ _____    ______ ____
ROOT
ATOM      1  C   UNL     1       4.751   5.277  19.059  0.00  0.00    +0.000 C 
ENDROOT
BRANCH   1   2
ATOM      2  C   UNL     1       5.469   6.115  18.019  0.00  0.00    +0.000 C 
BRANCH   2   3
ATOM      3  C   UNL     1       4.554   6.366  16.837  0.00  0.00    +0.000 C 
BRANCH   3   4
ATOM      4  C   UNL     1       5.297   6.095  15.543  0.00  0.00    +0.000 C 
BRANCH   4   5
ATOM      5  C   UNL     1       6.445   5.138  15.797  0.00  0.00    +0.000 C 
BRANCH   5   6
ATOM      6  C   UNL     1       6.214   3.843  15.044  0.00  0.00    +0.000 C 
BRANCH   6   7
ATOM      7  C   UNL     1       5.427   4.116  13.775  0.00  0.00    +0.000 C 
BRANCH   7   9
ATOM      8  C   UNL     1       7.154   4.223  11.997  0.00  0.00    +0.000 C 
ATOM      9  C   UNL     1       6.054   3.380  12.604  0.00  0.00    +0.000 C 
ENDBRANCH   7   9
ENDBRANCH   6   7
ENDBRANCH   5   6
ENDBRANCH   4   5
ENDBRANCH   3   4
ENDBRANCH   2   3
ENDBRANCH   1   2
BRANCH   1  10
ATOM     10  C   UNL     1       5.219   3.838  18.977  0.00  0.00    +0.000 C 
BRANCH  10  11
ATOM     11  C   UNL     1       4.250   2.938  19.720  0.00  0.00    +0.000 C 
BRANCH  11  12
ATOM     12  C   UNL     1       3.631   1.941  18.761  0.00  0.00    +0.000 C 
BRANCH  12  13
ATOM     13  C   UNL     1       3.014   2.655  17.564  0.00  0.00    +0.000 C 
BRANCH  13  14
ATOM     14  C   UNL     1       1.675   3.241  17.971  0.00  0.00    +0.000 C 
ATOM     15  O   UNL     1       1.213   4.224  17.403  0.00  0.00    +0.000 OA
BRANCH  14  16
ATOM     16  C   UNL     1       0.929   2.565  19.108  0.00  0.00    +0.000 C 
ATOM     17  C   UNL     1       0.757   3.551  20.253  0.00  0.00    +0.000 C 
ENDBRANCH  14  16
ENDBRANCH  13  14
ENDBRANCH  12  13
ENDBRANCH  11  12
ENDBRANCH  10  11
ENDBRANCH   1  10
TORSDOF 13
ENDMDL
MODEL 7
REMARK VINA RESULT:      -5.0      1.819      5.300
REMARK  Name = 
REMARK  15 active torsions:
REMARK  status: ('A' for Active; 'I' for Inactive)
REMARK    1  A    between atoms: C_1  and  C_2
REMARK    2  A    between atoms: C_2  and  C_3
REMARK    3  A    between atoms: C_3  and  C_4
REMARK    4  A    between atoms: C_4  and  C_5
REMARK    5  A    between atoms: C_5  and  C_6
REMARK    6  A    between atoms: C_6  and  C_7
REMARK    7  A    between atoms: C_7  and  C_8
REMARK    8  A    between atoms: C_8  and  C_9
REMARK    9  A    between atoms: C_9  and  C_10
REMARK   10  A    between atoms: C_10  and  C_11
REMARK   11  A    between atoms: C_11  and  C_12
REMARK   12  A    between atoms: C_12  and  C_13
REMARK   13  A    between atoms: C_13  and  C_14
REMARK   14  A    between atoms: C_14  and  C_16
REMARK   15  A    between atoms: C_16  and  C_17
REMARK                            x       y       z     vdW  Elec       q    Type
REMARK                         _______ _______ _______ _____ _____    ______ ____
ROOT
ATOM      1  C   UNL     1       2.354   5.662  18.686  0.00  0.00    +0.000 C 
ENDROOT
BRANCH   1   2
ATOM      2  C   UNL     1       3.248   6.797  18.226  0.00  0.00    +0.000 C 
BRANCH   2   3
ATOM      3  C   UNL     1       4.567   6.245  17.724  0.00  0.00    +0.000 C 
BRANCH   3   4
ATOM      4  C   UNL     1       5.253   5.461  18.826  0.00  0.00    +0.000 C 
BRANCH   4   5
ATOM      5  C   UNL     1       6.757   5.611  18.708  0.00  0.00    +0.000 C 
BRANCH   5   6
ATOM      6  C   UNL     1       7.139   5.850  17.261  0.00  0.00    +0.000 C 
BRANCH   6   7
ATOM      7  C   UNL     1       7.320   4.523  16.548  0.00  0.00    +0.000 C 
BRANCH   7   9
ATOM      8  C   UNL     1       5.602   4.195  14.788  0.00  0.00    +0.000 C 
ATOM      9  C   UNL     1       7.007   4.678  15.070  0.00  0.00    +0.000 C 
ENDBRANCH   7   9
ENDBRANCH   6   7
ENDBRANCH   5   6
ENDBRANCH   4   5
ENDBRANCH   3   4
ENDBRANCH   2   3
ENDBRANCH   1   2
BRANCH   1  10
ATOM     10  C   UNL     1       1.835   5.945  20.082  0.00  0.00    +0.000 C 
BRANCH  10  11
ATOM     11  C   UNL     1       1.352   4.658  20.723  0.00  0.00    +0.000 C 
BRANCH  11  12
ATOM     12  C   UNL     1       2.539   3.819  21.154  0.00  0.00    +0.000 C 
BRANCH  12  13
ATOM     13  C   UNL     1       2.508   2.452  20.478  0.00  0.00    +0.000 C 
BRANCH  13  14
ATOM     14  C   UNL     1       3.813   2.237  19.735  0.00  0.00    +0.000 C 
ATOM     15  O   UNL     1       4.876   2.132  20.336  0.00  0.00    +0.000 OA
BRANCH  14  16
ATOM     16  C   UNL     1       3.753   2.155  18.219  0.00  0.00    +0.000 C 
ATOM     17  C   UNL     1       2.304   2.266  17.768  0.00  0.00    +0.000 C 
ENDBRANCH  14  16
ENDBRANCH  13  14
ENDBRANCH  12  13
ENDBRANCH  11  12
ENDBRANCH  10  11
ENDBRANCH   1  10
TORSDOF 13
ENDMDL
MODEL 8
REMARK VINA RESULT:      -5.0      1.340      2.654
REMARK  Name = 
REMARK  15 active torsions:
REMARK  status: ('A' for Active; 'I' for Inactive)
REMARK    1  A    between atoms: C_1  and  C_2
REMARK    2  A    between atoms: C_2  and  C_3
REMARK    3  A    between atoms: C_3  and  C_4
REMARK    4  A    between atoms: C_4  and  C_5
REMARK    5  A    between atoms: C_5  and  C_6
REMARK    6  A    between atoms: C_6  and  C_7
REMARK    7  A    between atoms: C_7  and  C_8
REMARK    8  A    between atoms: C_8  and  C_9
REMARK    9  A    between atoms: C_9  and  C_10
REMARK   10  A    between atoms: C_10  and  C_11
REMARK   11  A    between atoms: C_11  and  C_12
REMARK   12  A    between atoms: C_12  and  C_13
REMARK   13  A    between atoms: C_13  and  C_14
REMARK   14  A    between atoms: C_14  and  C_16
REMARK   15  A    between atoms: C_16  and  C_17
REMARK                            x       y       z     vdW  Elec       q    Type
REMARK                         _______ _______ _______ _____ _____    ______ ____
ROOT
ATOM      1  C   UNL     1       2.749   5.385  18.491  0.00  0.00    +0.000 C 
ENDROOT
BRANCH   1   2
ATOM      2  C   UNL     1       1.864   4.464  17.674  0.00  0.00    +0.000 C 
BRANCH   2   3
ATOM      3  C   UNL     1       2.713   3.432  16.959  0.00  0.00    +0.000 C 
BRANCH   3   4
ATOM      4  C   UNL     1       3.916   3.074  17.810  0.00  0.00    +0.000 C 
BRANCH   4   5
ATOM      5  C   UNL     1       3.561   1.946  18.758  0.00  0.00    +0.000 C 
BRANCH   5   6
ATOM      6  C   UNL     1       4.225   2.174  20.102  0.00  0.00    +0.000 C 
BRANCH   6   7
ATOM      7  C   UNL     1       3.205   2.686  21.102  0.00  0.00    +0.000 C 
BRANCH   7   9
ATOM      8  C   UNL     1       0.862   3.456  20.832  0.00  0.00    +0.000 C 
ATOM      9  C   UNL     1       1.805   2.284  20.673  0.00  0.00    +0.000 C 
ENDBRANCH   7   9
ENDBRANCH   6   7
ENDBRANCH   5   6
ENDBRANCH   4   5
ENDBRANCH   3   4
ENDBRANCH   2   3
ENDBRANCH   1   2
BRANCH   1  10
ATOM     10  C   UNL     1       3.037   6.652  17.711  0.00  0.00    +0.000 C 
BRANCH  10  11
ATOM     11  C   UNL     1       4.536   6.834  17.560  0.00  0.00    +0.000 C 
BRANCH  11  12
ATOM     12  C   UNL     1       5.001   6.224  16.252  0.00  0.00    +0.000 C 
BRANCH  12  13
ATOM     13  C   UNL     1       6.523   6.163  16.195  0.00  0.00    +0.000 C 
BRANCH  13  14
ATOM     14  C   UNL     1       6.962   4.711  16.161  0.00  0.00    +0.000 C 
ATOM     15  O   UNL     1       7.921   4.323  16.817  0.00  0.00    +0.000 OA
BRANCH  14  16
ATOM     16  C   UNL     1       6.168   3.758  15.284  0.00  0.00    +0.000 C 
ATOM     17  C   UNL     1       6.408   4.104  13.822  0.00  0.00    +0.000 C 
ENDBRANCH  14  16
ENDBRANCH  13  14
ENDBRANCH  12  13
ENDBRANCH  11  12
ENDBRANCH  10  11
ENDBRANCH   1  10
TORSDOF 13
ENDMDL
MODEL 9
REMARK VINA RESULT:      -4.9      1.678      3.566
REMARK  Name = 
REMARK  15 active torsions:
REMARK  status: ('A' for Active; 'I' for Inactive)
REMARK    1  A    between atoms: C_1  and  C_2
REMARK    2  A    between atoms: C_2  and  C_3
REMARK    3  A    between atoms: C_3  and  C_4
REMARK    4  A    between atoms: C_4  and  C_5
REMARK    5  A    between atoms: C_5  and  C_6
REMARK    6  A    between atoms: C_6  and  C_7
REMARK    7  A    between atoms: C_7  and  C_8
REMARK    8  A    between atoms: C_8  and  C_9
REMARK    9  A    between atoms: C_9  and  C_10
REMARK   10  A    between atoms: C_10  and  C_11
REMARK   11  A    between atoms: C_11  and  C_12
REMARK   12  A    between atoms: C_12  and  C_13
REMARK   13  A    between atoms: C_13  and  C_14
REMARK   14  A    between atoms: C_14  and  C_16
REMARK   15  A    between atoms: C_16  and  C_17
REMARK                            x       y       z     vdW  Elec       q    Type
REMARK                         _______ _______ _______ _____ _____    ______ ____
ROOT
ATOM      1  C   UNL     1       4.323   3.193  16.884  0.00  0.00    +0.000 C 
ENDROOT
BRANCH   1   2
ATOM      2  C   UNL     1       3.338   3.852  17.830  0.00  0.00    +0.000 C 
BRANCH   2   3
ATOM      3  C   UNL     1       3.439   5.360  17.712  0.00  0.00    +0.000 C 
BRANCH   3   4
ATOM      4  C   UNL     1       2.202   6.008  18.303  0.00  0.00    +0.000 C 
BRANCH   4   5
ATOM      5  C   UNL     1       2.435   6.327  19.767  0.00  0.00    +0.000 C 
BRANCH   5   6
ATOM      6  C   UNL     1       1.527   5.474  20.632  0.00  0.00    +0.000 C 
BRANCH   6   7
ATOM      7  C   UNL     1       2.341   4.406  21.339  0.00  0.00    +0.000 C 
BRANCH   7   9
ATOM      8  C   UNL     1       0.661   3.133  20.029  0.00  0.00    +0.000 C 
ATOM      9  C   UNL     1       1.727   3.038  21.098  0.00  0.00    +0.000 C 
ENDBRANCH   7   9
ENDBRANCH   6   7
ENDBRANCH   5   6
ENDBRANCH   4   5
ENDBRANCH   3   4
ENDBRANCH   2   3
ENDBRANCH   1   2
BRANCH   1  10
ATOM     10  C   UNL     1       4.865   4.217  15.906  0.00  0.00    +0.000 C 
BRANCH  10  11
ATOM     11  C   UNL     1       6.301   3.879  15.552  0.00  0.00    +0.000 C 
BRANCH  11  12
ATOM     12  C   UNL     1       7.165   5.121  15.656  0.00  0.00    +0.000 C 
BRANCH  12  13
ATOM     13  C   UNL     1       6.418   6.239  16.375  0.00  0.00    +0.000 C 
BRANCH  13  14
ATOM     14  C   UNL     1       7.335   6.865  17.409  0.00  0.00    +0.000 C 
ATOM     15  O   UNL     1       7.707   8.029  17.306  0.00  0.00    +0.000 OA
BRANCH  14  16
ATOM     16  C   UNL     1       7.776   5.996  18.574  0.00  0.00    +0.000 C 
ATOM     17  C   UNL     1       6.548   5.499  19.322  0.00  0.00    +0.000 C 
ENDBRANCH  14  16
ENDBRANCH  13  14
ENDBRANCH  12  13
ENDBRANCH  11  12
ENDBRANCH  10  11
ENDBRANCH   1  10
TORSDOF 13
ENDMDL
