MODEL 1
REMARK VINA RESULT:      -8.9      0.000      0.000
REMARK  Name = 
REMARK  5 active torsions:
REMARK  status: ('A' for Active; 'I' for Inactive)
REMARK    1  A    between atoms: C_1  and  C_2
REMARK    2  A    between atoms: C_8  and  C_9
REMARK    3  A    between atoms: C_9  and  S_10
REMARK    4  A    between atoms: S_10  and  C_11
REMARK    5  A    between atoms: N_21  and  C_22
REMARK                            x       y       z     vdW  Elec       q    Type
REMARK                         _______ _______ _______ _____ _____    ______ ____
ROOT
ATOM      1  C   UNL     1       3.440   5.403  18.568  0.00  0.00    +0.000 A 
ATOM      2  N   UNL     1       4.068   6.109  17.692  0.00  0.00    +0.000 NA
ATOM      3  C   UNL     1       4.777   5.479  16.680  0.00  0.00    +0.000 A 
ATOM      4  C   UNL     1       5.369   6.262  15.687  0.00  0.00    +0.000 A 
ATOM      5  C   UNL     1       6.065   5.660  14.639  0.00  0.00    +0.000 A 
ATOM      6  C   UNL     1       6.202   4.273  14.599  0.00  0.00    +0.000 A 
ATOM      7  C   UNL     1       5.619   3.487  15.591  0.00  0.00    +0.000 A 
ATOM      8  C   UNL     1       4.889   4.101  16.615  0.00  0.00    +0.000 A 
ATOM      9  C   UNL     1       4.161   3.311  17.618  0.00  0.00    +0.000 A 
ATOM     10  O   UNL     1       4.219   2.085  17.528  0.00  0.00    +0.000 OA
ATOM     11  N   UNL     1       3.424   4.007  18.590  0.00  0.00    +0.000 N 
ENDROOT
BRANCH  11  12
ATOM     12  C   UNL     1       2.643   3.134  19.498  0.00  0.00    +0.000 C 
ATOM     13  C   UNL     1       3.174   2.962  20.917  0.00  0.00    +0.000 C 
ATOM     14  C   UNL     1       1.960   2.607  21.768  0.00  0.00    +0.000 C 
ATOM     15  C   UNL     1       0.709   2.964  20.969  0.00  0.00    +0.000 C 
ATOM     16  C   UNL     1       1.157   3.476  19.606  0.00  0.00    +0.000 C 
ENDBRANCH  11  12
BRANCH   1  17
ATOM     17  S   UNL     1       2.560   6.348  19.756  0.00  0.00    +0.000 S 
BRANCH  17  18
ATOM     18  C   UNL     1       2.199   7.881  18.816  0.00  0.00    +0.000 C 
BRANCH  18  26
ATOM     19  C   UNL     1      -2.453  12.993  21.711  0.00  0.00    +0.000 C 
ATOM     20  C   UNL     1      -1.443  11.883  21.605  0.00  0.00    +0.000 A 
ATOM     21  C   UNL     1      -0.970  11.254  22.694  0.00  0.00    +0.000 A 
ATOM     22  C   UNL     1       0.024  10.163  22.537  0.00  0.00    +0.000 A 
ATOM     23  O   UNL     1       0.452   9.588  23.532  0.00  0.00    +0.000 OA
ATOM     24  N   UNL     1       0.368   9.913  21.223  0.00  0.00    +0.000 N 
ATOM     25  N   UNL     1       1.255   8.914  20.871  0.00  0.00    +0.000 NA
ATOM     26  C   UNL     1       1.389   8.906  19.571  0.00  0.00    +0.000 A 
ATOM     27  S   UNL     1       0.426  10.074  18.681  0.00  0.00    +0.000 S 
ATOM     28  C   UNL     1      -0.189  10.631  20.201  0.00  0.00    +0.000 A 
ATOM     29  N   UNL     1      -1.057  11.578  20.318  0.00  0.00    +0.000 NA
ENDBRANCH  18  26
ENDBRANCH  17  18
ENDBRANCH   1  17
TORSDOF 4
ENDMDL
MODEL 2
REMARK VINA RESULT:      -8.5      1.450      1.638
REMARK  Name = 
REMARK  5 active torsions:
REMARK  status: ('A' for Active; 'I' for Inactive)
REMARK    1  A    between atoms: C_1  and  C_2
REMARK    2  A    between atoms: C_8  and  C_9
REMARK    3  A    between atoms: C_9  and  S_10
REMARK    4  A    between atoms: S_10  and  C_11
REMARK    5  A    between atoms: N_21  and  C_22
REMARK                            x       y       z     vdW  Elec       q    Type
REMARK                         _______ _______ _______ _____ _____    ______ ____
ROOT
ATOM      1  C   UNL     1       3.514   5.339  18.477  0.00  0.00    +0.000 A 
ATOM      2  N   UNL     1       4.161   6.025  17.597  0.00  0.00    +0.000 NA
ATOM      3  C   UNL     1       4.842   5.371  16.581  0.00  0.00    +0.000 A 
ATOM      4  C   UNL     1       5.454   6.134  15.584  0.00  0.00    +0.000 A 
ATOM      5  C   UNL     1       6.123   5.509  14.533  0.00  0.00    +0.000 A 
ATOM      6  C   UNL     1       6.213   4.119  14.491  0.00  0.00    +0.000 A 
ATOM      7  C   UNL     1       5.610   3.352  15.487  0.00  0.00    +0.000 A 
ATOM      8  C   UNL     1       4.907   3.990  16.515  0.00  0.00    +0.000 A 
ATOM      9  C   UNL     1       4.159   3.224  17.523  0.00  0.00    +0.000 A 
ATOM     10  O   UNL     1       4.175   1.998  17.432  0.00  0.00    +0.000 OA
ATOM     11  N   UNL     1       3.452   3.945  18.498  0.00  0.00    +0.000 N 
ENDROOT
BRANCH  11  12
ATOM     12  C   UNL     1       2.646   3.098  19.411  0.00  0.00    +0.000 C 
ATOM     13  C   UNL     1       3.162   2.935  20.837  0.00  0.00    +0.000 C 
ATOM     14  C   UNL     1       1.935   2.615  21.681  0.00  0.00    +0.000 C 
ATOM     15  C   UNL     1       0.698   2.984  20.867  0.00  0.00    +0.000 C 
ATOM     16  C   UNL     1       1.167   3.469  19.502  0.00  0.00    +0.000 C 
ENDBRANCH  11  12
BRANCH   1  17
ATOM     17  S   UNL     1       2.673   6.313  19.669  0.00  0.00    +0.000 S 
BRANCH  17  18
ATOM     18  C   UNL     1       2.316   7.839  18.716  0.00  0.00    +0.000 C 
BRANCH  18  26
ATOM     19  C   UNL     1      -1.687  12.440  23.072  0.00  0.00    +0.000 C 
ATOM     20  C   UNL     1      -1.026  11.840  21.860  0.00  0.00    +0.000 A 
ATOM     21  C   UNL     1      -1.073  12.443  20.660  0.00  0.00    +0.000 A 
ATOM     22  C   UNL     1      -0.402  11.812  19.496  0.00  0.00    +0.000 A 
ATOM     23  O   UNL     1      -0.445  12.366  18.402  0.00  0.00    +0.000 OA
ATOM     24  N   UNL     1       0.220  10.618  19.797  0.00  0.00    +0.000 N 
ATOM     25  N   UNL     1       0.925   9.896  18.853  0.00  0.00    +0.000 NA
ATOM     26  C   UNL     1       1.404   8.818  19.415  0.00  0.00    +0.000 A 
ATOM     27  S   UNL     1       1.072   8.619  21.128  0.00  0.00    +0.000 S 
ATOM     28  C   UNL     1       0.193  10.110  21.067  0.00  0.00    +0.000 A 
ATOM     29  N   UNL     1      -0.380  10.646  22.091  0.00  0.00    +0.000 NA
ENDBRANCH  18  26
ENDBRANCH  17  18
ENDBRANCH   1  17
TORSDOF 4
ENDMDL
MODEL 3
REMARK VINA RESULT:      -8.4      1.772      1.911
REMARK  Name = 
REMARK  5 active torsions:
REMARK  status: ('A' for Active; 'I' for Inactive)
REMARK    1  A    between atoms: C_1  and  C_2
REMARK    2  A    between atoms: C_8  and  C_9
REMARK    3  A    between atoms: C_9  and  S_10
REMARK    4  A    between atoms: S_10  and  C_11
REMARK    5  A    between atoms: N_21  and  C_22
REMARK                            x       y       z     vdW  Elec       q    Type
REMARK                         _______ _______ _______ _____ _____    ______ ____
ROOT
ATOM      1  C   UNL     1       2.882   6.728  18.159  0.00  0.00    +0.000 A 
ATOM      2  N   UNL     1       3.919   7.328  17.683  0.00  0.00    +0.000 NA
ATOM      3  C   UNL     1       5.166   6.731  17.783  0.00  0.00    +0.000 A 
ATOM      4  C   UNL     1       6.259   7.351  17.175  0.00  0.00    +0.000 A 
ATOM      5  C   UNL     1       7.522   6.764  17.232  0.00  0.00    +0.000 A 
ATOM      6  C   UNL     1       7.705   5.569  17.928  0.00  0.00    +0.000 A 
ATOM      7  C   UNL     1       6.619   4.948  18.542  0.00  0.00    +0.000 A 
ATOM      8  C   UNL     1       5.349   5.527  18.443  0.00  0.00    +0.000 A 
ATOM      9  C   UNL     1       4.155   4.854  18.975  0.00  0.00    +0.000 A 
ATOM     10  O   UNL     1       4.313   3.760  19.516  0.00  0.00    +0.000 OA
ATOM     11  N   UNL     1       2.915   5.489  18.801  0.00  0.00    +0.000 N 
ENDROOT
BRANCH  11  12
ATOM     12  C   UNL     1       1.757   4.695  19.277  0.00  0.00    +0.000 C 
ATOM     13  C   UNL     1       1.401   3.445  18.478  0.00  0.00    +0.000 C 
ATOM     14  C   UNL     1       0.680   2.526  19.457  0.00  0.00    +0.000 C 
ATOM     15  C   UNL     1       0.967   3.029  20.869  0.00  0.00    +0.000 C 
ATOM     16  C   UNL     1       1.808   4.293  20.751  0.00  0.00    +0.000 C 
ENDBRANCH  11  12
BRANCH   1  17
ATOM     17  S   UNL     1       1.376   7.594  17.917  0.00  0.00    +0.000 S 
BRANCH  17  18
ATOM     18  C   UNL     1       1.872   9.316  18.308  0.00  0.00    +0.000 C 
BRANCH  18  26
ATOM     19  C   UNL     1      -3.142  12.805  22.650  0.00  0.00    +0.000 C 
ATOM     20  C   UNL     1      -1.991  11.938  22.215  0.00  0.00    +0.000 A 
ATOM     21  C   UNL     1      -1.303  11.188  23.092  0.00  0.00    +0.000 A 
ATOM     22  C   UNL     1      -0.177  10.347  22.612  0.00  0.00    +0.000 A 
ATOM     23  O   UNL     1       0.448   9.661  23.414  0.00  0.00    +0.000 OA
ATOM     24  N   UNL     1       0.044  10.443  21.253  0.00  0.00    +0.000 N 
ATOM     25  N   UNL     1       1.027   9.712  20.614  0.00  0.00    +0.000 NA
ATOM     26  C   UNL     1       1.008  10.001  19.339  0.00  0.00    +0.000 A 
ATOM     27  S   UNL     1      -0.222  11.141  18.817  0.00  0.00    +0.000 S 
ATOM     28  C   UNL     1      -0.733  11.249  20.468  0.00  0.00    +0.000 A 
ATOM     29  N   UNL     1      -1.717  11.982  20.866  0.00  0.00    +0.000 NA
ENDBRANCH  18  26
ENDBRANCH  17  18
ENDBRANCH   1  17
TORSDOF 4
ENDMDL
MODEL 4
REMARK VINA RESULT:      -8.3      1.203      4.077
REMARK  Name = 
REMARK  5 active torsions:
REMARK  status: ('A' for Active; 'I' for Inactive)
REMARK    1  A    between atoms: C_1  and  C_2
REMARK    2  A    between atoms: C_8  and  C_9
REMARK    3  A    between atoms: C_9  and  S_10
REMARK    4  A    between atoms: S_10  and  C_11
REMARK    5  A    between atoms: N_21  and  C_22
REMARK                            x       y       z     vdW  Elec       q    Type
REMARK                         _______ _______ _______ _____ _____    ______ ____
ROOT
ATOM      1  C   UNL     1       3.212   6.340  18.156  0.00  0.00    +0.000 A 
ATOM      2  N   UNL     1       2.319   6.047  19.039  0.00  0.00    +0.000 NA
ATOM      3  C   UNL     1       2.107   4.722  19.390  0.00  0.00    +0.000 A 
ATOM      4  C   UNL     1       1.205   4.436  20.417  0.00  0.00    +0.000 A 
ATOM      5  C   UNL     1       0.990   3.117  20.816  0.00  0.00    +0.000 A 
ATOM      6  C   UNL     1       1.650   2.075  20.166  0.00  0.00    +0.000 A 
ATOM      7  C   UNL     1       2.546   2.355  19.136  0.00  0.00    +0.000 A 
ATOM      8  C   UNL     1       2.784   3.685  18.772  0.00  0.00    +0.000 A 
ATOM      9  C   UNL     1       3.803   4.037  17.772  0.00  0.00    +0.000 A 
ATOM     10  O   UNL     1       4.439   3.117  17.261  0.00  0.00    +0.000 OA
ATOM     11  N   UNL     1       4.001   5.399  17.493  0.00  0.00    +0.000 N 
ENDROOT
BRANCH  11  12
ATOM     12  C   UNL     1       5.113   5.667  16.550  0.00  0.00    +0.000 C 
ATOM     13  C   UNL     1       6.527   5.402  17.056  0.00  0.00    +0.000 C 
ATOM     14  C   UNL     1       7.363   5.130  15.811  0.00  0.00    +0.000 C 
ATOM     15  C   UNL     1       6.405   4.835  14.660  0.00  0.00    +0.000 C 
ATOM     16  C   UNL     1       4.984   4.990  15.186  0.00  0.00    +0.000 C 
ENDBRANCH  11  12
BRANCH   1  17
ATOM     17  S   UNL     1       3.385   8.059  17.852  0.00  0.00    +0.000 S 
BRANCH  17  18
ATOM     18  C   UNL     1       1.646   8.559  17.551  0.00  0.00    +0.000 C 
BRANCH  18  26
ATOM     19  C   UNL     1      -2.377  12.440  22.542  0.00  0.00    +0.000 C 
ATOM     20  C   UNL     1      -1.337  11.529  21.949  0.00  0.00    +0.000 A 
ATOM     21  C   UNL     1      -0.476  10.845  22.722  0.00  0.00    +0.000 A 
ATOM     22  C   UNL     1       0.530   9.956  22.088  0.00  0.00    +0.000 A 
ATOM     23  O   UNL     1       1.313   9.331  22.796  0.00  0.00    +0.000 OA
ATOM     24  N   UNL     1       0.463   9.940  20.710  0.00  0.00    +0.000 N 
ATOM     25  N   UNL     1       1.296   9.149  19.942  0.00  0.00    +0.000 NA
ATOM     26  C   UNL     1       1.010   9.334  18.680  0.00  0.00    +0.000 A 
ATOM     27  S   UNL     1      -0.309  10.441  18.334  0.00  0.00    +0.000 S 
ATOM     28  C   UNL     1      -0.465  10.688  20.040  0.00  0.00    +0.000 A 
ATOM     29  N   UNL     1      -1.350  11.461  20.573  0.00  0.00    +0.000 NA
ENDBRANCH  18  26
ENDBRANCH  17  18
ENDBRANCH   1  17
TORSDOF 4
ENDMDL
MODEL 5
REMARK VINA RESULT:      -8.2      2.346      2.639
REMARK  Name = 
REMARK  5 active torsions:
REMARK  status: ('A' for Active; 'I' for Inactive)
REMARK    1  A    between atoms: C_1  and  C_2
REMARK    2  A    between atoms: C_8  and  C_9
REMARK    3  A    between atoms: C_9  and  S_10
REMARK    4  A    between atoms: S_10  and  C_11
REMARK    5  A    between atoms: N_21  and  C_22
REMARK                            x       y       z     vdW  Elec       q    Type
REMARK                         _______ _______ _______ _____ _____    ______ ____
ROOT
ATOM      1  C   UNL     1       3.173   6.375  18.319  0.00  0.00    +0.000 A 
ATOM      2  N   UNL     1       3.938   6.755  17.354  0.00  0.00    +0.000 NA
ATOM      3  C   UNL     1       4.673   5.815  16.648  0.00  0.00    +0.000 A 
ATOM      4  C   UNL     1       5.419   6.236  15.545  0.00  0.00    +0.000 A 
ATOM      5  C   UNL     1       6.147   5.312  14.795  0.00  0.00    +0.000 A 
ATOM      6  C   UNL     1       6.161   3.968  15.166  0.00  0.00    +0.000 A 
ATOM      7  C   UNL     1       5.424   3.544  16.270  0.00  0.00    +0.000 A 
ATOM      8  C   UNL     1       4.665   4.473  16.990  0.00  0.00    +0.000 A 
ATOM      9  C   UNL     1       3.782   4.057  18.089  0.00  0.00    +0.000 A 
ATOM     10  O   UNL     1       3.737   2.857  18.358  0.00  0.00    +0.000 OA
ATOM     11  N   UNL     1       3.029   5.050  18.735  0.00  0.00    +0.000 N 
ENDROOT
BRANCH  11  12
ATOM     12  C   UNL     1       2.095   4.530  19.761  0.00  0.00    +0.000 C 
ATOM     13  C   UNL     1       1.183   3.380  19.345  0.00  0.00    +0.000 C 
ATOM     14  C   UNL     1       0.835   2.646  20.635  0.00  0.00    +0.000 C 
ATOM     15  C   UNL     1       1.828   3.088  21.706  0.00  0.00    +0.000 C 
ATOM     16  C   UNL     1       2.742   4.139  21.089  0.00  0.00    +0.000 C 
ENDBRANCH  11  12
BRANCH   1  17
ATOM     17  S   UNL     1       2.281   7.677  19.084  0.00  0.00    +0.000 S 
BRANCH  17  18
ATOM     18  C   UNL     1       2.252   8.938  17.752  0.00  0.00    +0.000 C 
BRANCH  18  26
ATOM     19  C   UNL     1      -1.162  14.999  20.539  0.00  0.00    +0.000 C 
ATOM     20  C   UNL     1      -0.167  14.126  19.824  0.00  0.00    +0.000 A 
ATOM     21  C   UNL     1       0.949  14.635  19.275  0.00  0.00    +0.000 A 
ATOM     22  C   UNL     1       1.902  13.731  18.582  0.00  0.00    +0.000 A 
ATOM     23  O   UNL     1       2.922  14.198  18.084  0.00  0.00    +0.000 OA
ATOM     24  N   UNL     1       1.508  12.409  18.580  0.00  0.00    +0.000 N 
ATOM     25  N   UNL     1       2.277  11.412  18.012  0.00  0.00    +0.000 NA
ATOM     26  C   UNL     1       1.663  10.267  18.157  0.00  0.00    +0.000 A 
ATOM     27  S   UNL     1       0.135  10.309  19.023  0.00  0.00    +0.000 S 
ATOM     28  C   UNL     1       0.340  12.020  19.178  0.00  0.00    +0.000 A 
ATOM     29  N   UNL     1      -0.497  12.790  19.788  0.00  0.00    +0.000 NA
ENDBRANCH  18  26
ENDBRANCH  17  18
ENDBRANCH   1  17
TORSDOF 4
ENDMDL
MODEL 6
REMARK VINA RESULT:      -8.2      2.178      2.552
REMARK  Name = 
REMARK  5 active torsions:
REMARK  status: ('A' for Active; 'I' for Inactive)
REMARK    1  A    between atoms: C_1  and  C_2
REMARK    2  A    between atoms: C_8  and  C_9
REMARK    3  A    between atoms: C_9  and  S_10
REMARK    4  A    between atoms: S_10  and  C_11
REMARK    5  A    between atoms: N_21  and  C_22
REMARK                            x       y       z     vdW  Elec       q    Type
REMARK                         _______ _______ _______ _____ _____    ______ ____
ROOT
ATOM      1  C   UNL     1       3.223   6.415  18.445  0.00  0.00    +0.000 A 
ATOM      2  N   UNL     1       3.981   6.839  17.492  0.00  0.00    +0.000 NA
ATOM      3  C   UNL     1       4.634   5.929  16.675  0.00  0.00    +0.000 A 
ATOM      4  C   UNL     1       5.371   6.409  15.590  0.00  0.00    +0.000 A 
ATOM      5  C   UNL     1       6.016   5.520  14.731  0.00  0.00    +0.000 A 
ATOM      6  C   UNL     1       5.956   4.149  14.972  0.00  0.00    +0.000 A 
ATOM      7  C   UNL     1       5.227   3.664  16.057  0.00  0.00    +0.000 A 
ATOM      8  C   UNL     1       4.550   4.564  16.888  0.00  0.00    +0.000 A 
ATOM      9  C   UNL     1       3.677   4.097  17.975  0.00  0.00    +0.000 A 
ATOM     10  O   UNL     1       3.564   2.882  18.131  0.00  0.00    +0.000 OA
ATOM     11  N   UNL     1       3.008   5.067  18.738  0.00  0.00    +0.000 N 
ENDROOT
BRANCH  11  12
ATOM     12  C   UNL     1       2.074   4.507  19.744  0.00  0.00    +0.000 C 
ATOM     13  C   UNL     1       1.163   3.374  19.284  0.00  0.00    +0.000 C 
ATOM     14  C   UNL     1       0.816   2.591  20.545  0.00  0.00    +0.000 C 
ATOM     15  C   UNL     1       1.809   2.992  21.632  0.00  0.00    +0.000 C 
ATOM     16  C   UNL     1       2.722   4.066  21.056  0.00  0.00    +0.000 C 
ENDBRANCH  11  12
BRANCH   1  17
ATOM     17  S   UNL     1       2.439   7.689  19.361  0.00  0.00    +0.000 S 
BRANCH  17  18
ATOM     18  C   UNL     1       1.765   8.747  18.023  0.00  0.00    +0.000 C 
BRANCH  18  26
ATOM     19  C   UNL     1      -3.734  13.249  20.400  0.00  0.00    +0.000 C 
ATOM     20  C   UNL     1      -2.962  12.254  19.576  0.00  0.00    +0.000 A 
ATOM     21  C   UNL     1      -3.455  11.754  18.431  0.00  0.00    +0.000 A 
ATOM     22  C   UNL     1      -2.653  10.777  17.652  0.00  0.00    +0.000 A 
ATOM     23  O   UNL     1      -3.105  10.324  16.605  0.00  0.00    +0.000 OA
ATOM     24  N   UNL     1      -1.435  10.478  18.228  0.00  0.00    +0.000 N 
ATOM     25  N   UNL     1      -0.534   9.614  17.637  0.00  0.00    +0.000 NA
ATOM     26  C   UNL     1       0.526   9.521  18.397  0.00  0.00    +0.000 A 
ATOM     27  S   UNL     1       0.525  10.500  19.856  0.00  0.00    +0.000 S 
ATOM     28  C   UNL     1      -1.050  11.060  19.405  0.00  0.00    +0.000 A 
ATOM     29  N   UNL     1      -1.731  11.914  20.092  0.00  0.00    +0.000 NA
ENDBRANCH  18  26
ENDBRANCH  17  18
ENDBRANCH   1  17
TORSDOF 4
ENDMDL
MODEL 7
REMARK VINA RESULT:      -8.0      1.989      2.334
REMARK  Name = 
REMARK  5 active torsions:
REMARK  status: ('A' for Active; 'I' for Inactive)
REMARK    1  A    between atoms: C_1  and  C_2
REMARK    2  A    between atoms: C_8  and  C_9
REMARK    3  A    between atoms: C_9  and  S_10
REMARK    4  A    between atoms: S_10  and  C_11
REMARK    5  A    between atoms: N_21  and  C_22
REMARK                            x       y       z     vdW  Elec       q    Type
REMARK                         _______ _______ _______ _____ _____    ______ ____
ROOT
ATOM      1  C   UNL     1       3.083   6.688  18.444  0.00  0.00    +0.000 A 
ATOM      2  N   UNL     1       4.114   7.221  17.883  0.00  0.00    +0.000 NA
ATOM      3  C   UNL     1       5.252   6.458  17.668  0.00  0.00    +0.000 A 
ATOM      4  C   UNL     1       6.320   7.027  16.971  0.00  0.00    +0.000 A 
ATOM      5  C   UNL     1       7.468   6.278  16.713  0.00  0.00    +0.000 A 
ATOM      6  C   UNL     1       7.567   4.969  17.180  0.00  0.00    +0.000 A 
ATOM      7  C   UNL     1       6.507   4.398  17.881  0.00  0.00    +0.000 A 
ATOM      8  C   UNL     1       5.344   5.146  18.099  0.00  0.00    +0.000 A 
ATOM      9  C   UNL     1       4.158   4.552  18.732  0.00  0.00    +0.000 A 
ATOM     10  O   UNL     1       4.224   3.371  19.069  0.00  0.00    +0.000 OA
ATOM     11  N   UNL     1       3.021   5.364  18.880  0.00  0.00    +0.000 N 
ENDROOT
BRANCH  11  12
ATOM     12  C   UNL     1       1.842   4.657  19.435  0.00  0.00    +0.000 C 
ATOM     13  C   UNL     1       1.276   3.505  18.611  0.00  0.00    +0.000 C 
ATOM     14  C   UNL     1       0.568   2.597  19.609  0.00  0.00    +0.000 C 
ATOM     15  C   UNL     1       1.049   2.975  21.007  0.00  0.00    +0.000 C 
ATOM     16  C   UNL     1       2.002   4.155  20.869  0.00  0.00    +0.000 C 
ENDBRANCH  11  12
BRANCH   1  17
ATOM     17  S   UNL     1       1.714   7.772  18.608  0.00  0.00    +0.000 S 
BRANCH  17  18
ATOM     18  C   UNL     1       1.748   8.145  20.404  0.00  0.00    +0.000 C 
BRANCH  18  26
ATOM     19  C   UNL     1      -2.875  13.114  23.582  0.00  0.00    +0.000 C 
ATOM     20  C   UNL     1      -2.122  12.330  22.541  0.00  0.00    +0.000 A 
ATOM     21  C   UNL     1      -2.224  12.617  21.232  0.00  0.00    +0.000 A 
ATOM     22  C   UNL     1      -1.459  11.815  20.244  0.00  0.00    +0.000 A 
ATOM     23  O   UNL     1      -1.551  12.082  19.050  0.00  0.00    +0.000 OA
ATOM     24  N   UNL     1      -0.697  10.815  20.814  0.00  0.00    +0.000 N 
ATOM     25  N   UNL     1       0.109   9.983  20.062  0.00  0.00    +0.000 NA
ATOM     26  C   UNL     1       0.709   9.139  20.859  0.00  0.00    +0.000 A 
ATOM     27  S   UNL     1       0.374   9.317  22.574  0.00  0.00    +0.000 S 
ATOM     28  C   UNL     1      -0.683  10.626  22.169  0.00  0.00    +0.000 A 
ATOM     29  N   UNL     1      -1.337  11.315  23.042  0.00  0.00    +0.000 NA
ENDBRANCH  18  26
ENDBRANCH  17  18
ENDBRANCH   1  17
TORSDOF 4
ENDMDL
MODEL 8
REMARK VINA RESULT:      -8.0      1.378      1.664
REMARK  Name = 
REMARK  5 active torsions:
REMARK  status: ('A' for Active; 'I' for Inactive)
REMARK    1  A    between atoms: C_1  and  C_2
REMARK    2  A    between atoms: C_8  and  C_9
REMARK    3  A    between atoms: C_9  and  S_10
REMARK    4  A    between atoms: S_10  and  C_11
REMARK    5  A    between atoms: N_21  and  C_22
REMARK                            x       y       z     vdW  Elec       q    Type
REMARK                         _______ _______ _______ _____ _____    ______ ____
ROOT
ATOM      1  C   UNL     1       3.197   6.340  18.400  0.00  0.00    +0.000 A 
ATOM      2  N   UNL     1       4.020   6.797  17.520  0.00  0.00    +0.000 NA
ATOM      3  C   UNL     1       4.691   5.918  16.684  0.00  0.00    +0.000 A 
ATOM      4  C   UNL     1       5.504   6.439  15.674  0.00  0.00    +0.000 A 
ATOM      5  C   UNL     1       6.170   5.584  14.797  0.00  0.00    +0.000 A 
ATOM      6  C   UNL     1       6.055   4.203  14.947  0.00  0.00    +0.000 A 
ATOM      7  C   UNL     1       5.250   3.677  15.956  0.00  0.00    +0.000 A 
ATOM      8  C   UNL     1       4.555   4.545  16.805  0.00  0.00    +0.000 A 
ATOM      9  C   UNL     1       3.607   4.042  17.809  0.00  0.00    +0.000 A 
ATOM     10  O   UNL     1       3.449   2.824  17.881  0.00  0.00    +0.000 OA
ATOM     11  N   UNL     1       2.925   4.985  18.595  0.00  0.00    +0.000 N 
ENDROOT
BRANCH  11  12
ATOM     12  C   UNL     1       1.918   4.395  19.509  0.00  0.00    +0.000 C 
ATOM     13  C   UNL     1       1.037   3.285  18.944  0.00  0.00    +0.000 C 
ATOM     14  C   UNL     1       0.597   2.460  20.147  0.00  0.00    +0.000 C 
ATOM     15  C   UNL     1       1.510   2.814  21.316  0.00  0.00    +0.000 C 
ATOM     16  C   UNL     1       2.467   3.902  20.847  0.00  0.00    +0.000 C 
ENDBRANCH  11  12
BRANCH   1  17
ATOM     17  S   UNL     1       2.400   7.580  19.351  0.00  0.00    +0.000 S 
BRANCH  17  18
ATOM     18  C   UNL     1       1.725   8.674  18.042  0.00  0.00    +0.000 C 
BRANCH  18  26
ATOM     19  C   UNL     1      -3.949  13.116  20.100  0.00  0.00    +0.000 C 
ATOM     20  C   UNL     1      -2.592  12.467  20.050  0.00  0.00    +0.000 A 
ATOM     21  C   UNL     1      -1.635  12.767  20.944  0.00  0.00    +0.000 A 
ATOM     22  C   UNL     1      -0.313  12.097  20.855  0.00  0.00    +0.000 A 
ATOM     23  O   UNL     1       0.559  12.371  21.674  0.00  0.00    +0.000 OA
ATOM     24  N   UNL     1      -0.216  11.203  19.808  0.00  0.00    +0.000 N 
ATOM     25  N   UNL     1       0.925  10.458  19.580  0.00  0.00    +0.000 NA
ATOM     26  C   UNL     1       0.734   9.701  18.531  0.00  0.00    +0.000 A 
ATOM     27  S   UNL     1      -0.848   9.806  17.774  0.00  0.00    +0.000 S 
ATOM     28  C   UNL     1      -1.271  10.989  18.964  0.00  0.00    +0.000 A 
ATOM     29  N   UNL     1      -2.427  11.558  19.029  0.00  0.00    +0.000 NA
ENDBRANCH  18  26
ENDBRANCH  17  18
ENDBRANCH   1  17
TORSDOF 4
ENDMDL
MODEL 9
REMARK VINA RESULT:      -8.0      2.102      2.430
REMARK  Name = 
REMARK  5 active torsions:
REMARK  status: ('A' for Active; 'I' for Inactive)
REMARK    1  A    between atoms: C_1  and  C_2
REMARK    2  A    between atoms: C_8  and  C_9
REMARK    3  A    between atoms: C_9  and  S_10
REMARK    4  A    between atoms: S_10  and  C_11
REMARK    5  A    between atoms: N_21  and  C_22
REMARK                            x       y       z     vdW  Elec       q    Type
REMARK                         _______ _______ _______ _____ _____    ______ ____
ROOT
ATOM      1  C   UNL     1       3.114   6.448  18.404  0.00  0.00    +0.000 A 
ATOM      2  N   UNL     1       3.873   6.847  17.441  0.00  0.00    +0.000 NA
ATOM      3  C   UNL     1       4.599   5.921  16.708  0.00  0.00    +0.000 A 
ATOM      4  C   UNL     1       5.338   6.364  15.609  0.00  0.00    +0.000 A 
ATOM      5  C   UNL     1       6.056   5.455  14.833  0.00  0.00    +0.000 A 
ATOM      6  C   UNL     1       6.068   4.104  15.173  0.00  0.00    +0.000 A 
ATOM      7  C   UNL     1       5.339   3.656  16.273  0.00  0.00    +0.000 A 
ATOM      8  C   UNL     1       4.589   4.572  17.020  0.00  0.00    +0.000 A 
ATOM      9  C   UNL     1       3.714   4.133  18.117  0.00  0.00    +0.000 A 
ATOM     10  O   UNL     1       3.667   2.928  18.359  0.00  0.00    +0.000 OA
ATOM     11  N   UNL     1       2.969   5.115  18.791  0.00  0.00    +0.000 N 
ENDROOT
BRANCH  11  12
ATOM     12  C   UNL     1       2.041   4.574  19.813  0.00  0.00    +0.000 C 
ATOM     13  C   UNL     1       1.132   3.427  19.383  0.00  0.00    +0.000 C 
ATOM     14  C   UNL     1       0.793   2.672  20.662  0.00  0.00    +0.000 C 
ATOM     15  C   UNL     1       1.789   3.101  21.736  0.00  0.00    +0.000 C 
ATOM     16  C   UNL     1       2.696   4.165  21.132  0.00  0.00    +0.000 C 
ENDBRANCH  11  12
BRANCH   1  17
ATOM     17  S   UNL     1       2.233   7.736  19.206  0.00  0.00    +0.000 S 
BRANCH  17  18
ATOM     18  C   UNL     1       2.092   8.979  17.864  0.00  0.00    +0.000 C 
BRANCH  18  26
ATOM     19  C   UNL     1      -0.095  16.012  19.248  0.00  0.00    +0.000 C 
ATOM     20  C   UNL     1      -0.090  14.509  19.174  0.00  0.00    +0.000 A 
ATOM     21  C   UNL     1      -1.151  13.781  19.562  0.00  0.00    +0.000 A 
ATOM     22  C   UNL     1      -1.099  12.300  19.467  0.00  0.00    +0.000 A 
ATOM     23  O   UNL     1      -2.069  11.638  19.820  0.00  0.00    +0.000 OA
ATOM     24  N   UNL     1       0.096  11.820  18.969  0.00  0.00    +0.000 N 
ATOM     25  N   UNL     1       0.325  10.472  18.776  0.00  0.00    +0.000 NA
ATOM     26  C   UNL     1       1.530  10.311  18.297  0.00  0.00    +0.000 A 
ATOM     27  S   UNL     1       2.455  11.775  18.008  0.00  0.00    +0.000 S 
ATOM     28  C   UNL     1       1.103  12.674  18.609  0.00  0.00    +0.000 A 
ATOM     29  N   UNL     1       1.073  13.961  18.680  0.00  0.00    +0.000 NA
ENDBRANCH  18  26
ENDBRANCH  17  18
ENDBRANCH   1  17
TORSDOF 4
ENDMDL
