MODEL 1
REMARK VINA RESULT:      -7.2      0.000      0.000
REMARK  Name = 
REMARK  4 active torsions:
REMARK  status: ('A' for Active; 'I' for Inactive)
REMARK    1  A    between atoms: C_1  and  C_2
REMARK    2  A    between atoms: C_2  and  C_3
REMARK    3  A    between atoms: C_7  and  C_8
REMARK    4  A    between atoms: N_10  and  C_11
REMARK                            x       y       z     vdW  Elec       q    Type
REMARK                         _______ _______ _______ _____ _____    ______ ____
ROOT
ATOM      1  C   UNL     1       6.958   4.692  15.868  0.00  0.00    +0.000 C 
ATOM      2  O   UNL     1       7.823   4.378  16.683  0.00  0.00    +0.000 OA
ATOM      3  N   UNL     1       5.650   4.928  16.219  0.00  0.00    +0.000 N 
ATOM      4  H   UNL     1       5.008   5.202  15.483  0.00  0.00    +0.000 HD
ENDROOT
BRANCH   3   5
ATOM      5  C   UNL     1       5.196   4.815  17.589  0.00  0.00    +0.000 C 
ATOM      6  C   UNL     1       4.887   6.203  18.217  0.00  0.00    +0.000 C 
ATOM      7  C   UNL     1       3.546   6.804  17.732  0.00  0.00    +0.000 C 
ATOM      8  C   UNL     1       2.338   5.894  18.042  0.00  0.00    +0.000 C 
ATOM      9  C   UNL     1       2.712   4.488  17.775  0.00  0.00    +0.000 A 
ATOM     10  O   UNL     1       1.765   3.523  17.736  0.00  0.00    +0.000 OA
ATOM     11  C   UNL     1       2.430   2.354  17.516  0.00  0.00    +0.000 A 
ATOM     12  C   UNL     1       3.788   2.574  17.418  0.00  0.00    +0.000 A 
ATOM     13  C   UNL     1       3.973   3.966  17.587  0.00  0.00    +0.000 A 
ENDBRANCH   3   5
BRANCH   1  18
ATOM     14  C   UNL     1       6.511   4.256  13.411  0.00  0.00    +0.000 A 
ATOM     15  O   UNL     1       7.071   4.652  12.228  0.00  0.00    +0.000 OA
ATOM     16  C   UNL     1       8.101   5.455  12.605  0.00  0.00    +0.000 A 
ATOM     17  N   UNL     1       8.250   5.607  13.902  0.00  0.00    +0.000 NA
ATOM     18  C   UNL     1       7.228   4.836  14.441  0.00  0.00    +0.000 A 
BRANCH  14  20
ATOM     19  C   UNL     1       4.888   3.163  11.894  0.00  0.00    +0.000 C 
ATOM     20  C   UNL     1       5.320   3.378  13.336  0.00  0.00    +0.000 C 
ENDBRANCH  14  20
ENDBRANCH   1  18
TORSDOF 3
ENDMDL
MODEL 2
REMARK VINA RESULT:      -7.1      2.333      3.964
REMARK  Name = 
REMARK  4 active torsions:
REMARK  status: ('A' for Active; 'I' for Inactive)
REMARK    1  A    between atoms: C_1  and  C_2
REMARK    2  A    between atoms: C_2  and  C_3
REMARK    3  A    between atoms: C_7  and  C_8
REMARK    4  A    between atoms: N_10  and  C_11
REMARK                            x       y       z     vdW  Elec       q    Type
REMARK                         _______ _______ _______ _____ _____    ______ ____
ROOT
ATOM      1  C   UNL     1       4.614   5.506  17.211  0.00  0.00    +0.000 C 
ATOM      2  O   UNL     1       4.264   6.533  16.633  0.00  0.00    +0.000 OA
ATOM      3  N   UNL     1       3.732   4.676  17.859  0.00  0.00    +0.000 N 
ATOM      4  H   UNL     1       4.108   3.838  18.292  0.00  0.00    +0.000 HD
ENDROOT
BRANCH   3   5
ATOM      5  C   UNL     1       2.314   4.959  17.911  0.00  0.00    +0.000 C 
ATOM      6  C   UNL     1       1.464   3.664  18.033  0.00  0.00    +0.000 C 
ATOM      7  C   UNL     1       1.481   3.059  19.458  0.00  0.00    +0.000 C 
ATOM      8  C   UNL     1       0.958   4.040  20.528  0.00  0.00    +0.000 C 
ATOM      9  C   UNL     1       1.484   5.392  20.241  0.00  0.00    +0.000 A 
ATOM     10  O   UNL     1       1.372   6.379  21.159  0.00  0.00    +0.000 OA
ATOM     11  C   UNL     1       1.907   7.491  20.581  0.00  0.00    +0.000 A 
ATOM     12  C   UNL     1       2.352   7.215  19.305  0.00  0.00    +0.000 A 
ATOM     13  C   UNL     1       2.076   5.845  19.083  0.00  0.00    +0.000 A 
ENDBRANCH   3   5
BRANCH   1  18
ATOM     14  C   UNL     1       6.849   4.860  16.202  0.00  0.00    +0.000 A 
ATOM     15  O   UNL     1       8.069   4.479  16.688  0.00  0.00    +0.000 OA
ATOM     16  C   UNL     1       7.901   4.481  18.037  0.00  0.00    +0.000 A 
ATOM     17  N   UNL     1       6.702   4.822  18.453  0.00  0.00    +0.000 NA
ATOM     18  C   UNL     1       6.005   5.071  17.278  0.00  0.00    +0.000 A 
BRANCH  14  20
ATOM     19  C   UNL     1       6.167   3.704  14.121  0.00  0.00    +0.000 C 
ATOM     20  C   UNL     1       6.714   4.985  14.733  0.00  0.00    +0.000 C 
ENDBRANCH  14  20
ENDBRANCH   1  18
TORSDOF 3
ENDMDL
MODEL 3
REMARK VINA RESULT:      -6.9      2.333      4.236
REMARK  Name = 
REMARK  4 active torsions:
REMARK  status: ('A' for Active; 'I' for Inactive)
REMARK    1  A    between atoms: C_1  and  C_2
REMARK    2  A    between atoms: C_2  and  C_3
REMARK    3  A    between atoms: C_7  and  C_8
REMARK    4  A    between atoms: N_10  and  C_11
REMARK                            x       y       z     vdW  Elec       q    Type
REMARK                         _______ _______ _______ _____ _____    ______ ____
ROOT
ATOM      1  C   UNL     1       4.436   4.499  17.457  0.00  0.00    +0.000 C 
ATOM      2  O   UNL     1       3.762   3.607  16.948  0.00  0.00    +0.000 OA
ATOM      3  N   UNL     1       3.882   5.598  18.070  0.00  0.00    +0.000 N 
ATOM      4  H   UNL     1       4.516   6.275  18.481  0.00  0.00    +0.000 HD
ENDROOT
BRANCH   3   5
ATOM      5  C   UNL     1       2.449   5.783  18.154  0.00  0.00    +0.000 C 
ATOM      6  C   UNL     1       1.814   4.919  19.278  0.00  0.00    +0.000 C 
ATOM      7  C   UNL     1       2.057   5.493  20.695  0.00  0.00    +0.000 C 
ATOM      8  C   UNL     1       1.501   6.923  20.862  0.00  0.00    +0.000 C 
ATOM      9  C   UNL     1       1.793   7.700  19.638  0.00  0.00    +0.000 A 
ATOM     10  O   UNL     1       1.627   9.042  19.624  0.00  0.00    +0.000 OA
ATOM     11  C   UNL     1       1.935   9.444  18.358  0.00  0.00    +0.000 A 
ATOM     12  C   UNL     1       2.291   8.366  17.575  0.00  0.00    +0.000 A 
ATOM     13  C   UNL     1       2.199   7.228  18.409  0.00  0.00    +0.000 A 
ENDBRANCH   3   5
BRANCH   1  18
ATOM     14  C   UNL     1       6.708   4.269  16.355  0.00  0.00    +0.000 A 
ATOM     15  O   UNL     1       8.009   4.363  16.765  0.00  0.00    +0.000 OA
ATOM     16  C   UNL     1       7.917   4.640  18.092  0.00  0.00    +0.000 A 
ATOM     17  N   UNL     1       6.693   4.729  18.564  0.00  0.00    +0.000 NA
ATOM     18  C   UNL     1       5.896   4.490  17.452  0.00  0.00    +0.000 A 
BRANCH  14  20
ATOM     19  C   UNL     1       7.068   5.091  14.048  0.00  0.00    +0.000 C 
ATOM     20  C   UNL     1       6.468   3.998  14.919  0.00  0.00    +0.000 C 
ENDBRANCH  14  20
ENDBRANCH   1  18
TORSDOF 3
ENDMDL
MODEL 4
REMARK VINA RESULT:      -6.9      2.774      6.380
REMARK  Name = 
REMARK  4 active torsions:
REMARK  status: ('A' for Active; 'I' for Inactive)
REMARK    1  A    between atoms: C_1  and  C_2
REMARK    2  A    between atoms: C_2  and  C_3
REMARK    3  A    between atoms: C_7  and  C_8
REMARK    4  A    between atoms: N_10  and  C_11
REMARK                            x       y       z     vdW  Elec       q    Type
REMARK                         _______ _______ _______ _____ _____    ______ ____
ROOT
ATOM      1  C   UNL     1       4.324   3.474  19.254  0.00  0.00    +0.000 C 
ATOM      2  O   UNL     1       5.163   2.839  19.891  0.00  0.00    +0.000 OA
ATOM      3  N   UNL     1       4.574   4.006  18.012  0.00  0.00    +0.000 N 
ATOM      4  H   UNL     1       3.815   4.497  17.552  0.00  0.00    +0.000 HD
ENDROOT
BRANCH   3   5
ATOM      5  C   UNL     1       5.859   3.858  17.363  0.00  0.00    +0.000 C 
ATOM      6  C   UNL     1       5.714   3.531  15.851  0.00  0.00    +0.000 C 
ATOM      7  C   UNL     1       5.329   4.765  14.997  0.00  0.00    +0.000 C 
ATOM      8  C   UNL     1       6.355   5.912  15.111  0.00  0.00    +0.000 C 
ATOM      9  C   UNL     1       6.787   6.034  16.519  0.00  0.00    +0.000 A 
ATOM     10  O   UNL     1       7.495   7.112  16.927  0.00  0.00    +0.000 OA
ATOM     11  C   UNL     1       7.770   6.904  18.245  0.00  0.00    +0.000 A 
ATOM     12  C   UNL     1       7.244   5.703  18.672  0.00  0.00    +0.000 A 
ATOM     13  C   UNL     1       6.603   5.134  17.546  0.00  0.00    +0.000 A 
ENDBRANCH   3   5
BRANCH   1  18
ATOM     14  C   UNL     1       2.400   4.981  19.926  0.00  0.00    +0.000 A 
ATOM     15  O   UNL     1       1.130   4.796  20.400  0.00  0.00    +0.000 OA
ATOM     16  C   UNL     1       1.007   3.446  20.493  0.00  0.00    +0.000 A 
ATOM     17  N   UNL     1       2.067   2.759  20.129  0.00  0.00    +0.000 NA
ATOM     18  C   UNL     1       2.980   3.737  19.759  0.00  0.00    +0.000 A 
BRANCH  14  20
ATOM     19  C   UNL     1       2.533   6.803  18.254  0.00  0.00    +0.000 C 
ATOM     20  C   UNL     1       2.835   6.375  19.682  0.00  0.00    +0.000 C 
ENDBRANCH  14  20
ENDBRANCH   1  18
TORSDOF 3
ENDMDL
MODEL 5
REMARK VINA RESULT:      -6.9      2.619      3.973
REMARK  Name = 
REMARK  4 active torsions:
REMARK  status: ('A' for Active; 'I' for Inactive)
REMARK    1  A    between atoms: C_1  and  C_2
REMARK    2  A    between atoms: C_2  and  C_3
REMARK    3  A    between atoms: C_7  and  C_8
REMARK    4  A    between atoms: N_10  and  C_11
REMARK                            x       y       z     vdW  Elec       q    Type
REMARK                         _______ _______ _______ _____ _____    ______ ____
ROOT
ATOM      1  C   UNL     1       4.777   5.690  18.195  0.00  0.00    +0.000 C 
ATOM      2  O   UNL     1       4.337   6.731  17.712  0.00  0.00    +0.000 OA
ATOM      3  N   UNL     1       4.003   4.815  18.918  0.00  0.00    +0.000 N 
ATOM      4  H   UNL     1       4.447   3.970  19.262  0.00  0.00    +0.000 HD
ENDROOT
BRANCH   3   5
ATOM      5  C   UNL     1       2.599   5.064  19.166  0.00  0.00    +0.000 C 
ATOM      6  C   UNL     1       1.740   4.895  17.882  0.00  0.00    +0.000 C 
ATOM      7  C   UNL     1       1.498   3.413  17.505  0.00  0.00    +0.000 C 
ATOM      8  C   UNL     1       0.789   2.621  18.625  0.00  0.00    +0.000 C 
ATOM      9  C   UNL     1       1.360   3.017  19.930  0.00  0.00    +0.000 A 
ATOM     10  O   UNL     1       1.083   2.300  21.044  0.00  0.00    +0.000 OA
ATOM     11  C   UNL     1       1.715   2.941  22.068  0.00  0.00    +0.000 A 
ATOM     12  C   UNL     1       2.384   4.056  21.610  0.00  0.00    +0.000 A 
ATOM     13  C   UNL     1       2.153   4.107  20.215  0.00  0.00    +0.000 A 
ENDBRANCH   3   5
BRANCH   1  18
ATOM     14  C   UNL     1       6.716   4.558  17.018  0.00  0.00    +0.000 A 
ATOM     15  O   UNL     1       8.053   4.404  17.259  0.00  0.00    +0.000 OA
ATOM     16  C   UNL     1       8.251   5.049  18.439  0.00  0.00    +0.000 A 
ATOM     17  N   UNL     1       7.178   5.593  18.969  0.00  0.00    +0.000 NA
ATOM     18  C   UNL     1       6.173   5.284  18.062  0.00  0.00    +0.000 A 
BRANCH  14  20
ATOM     19  C   UNL     1       5.764   5.071  14.791  0.00  0.00    +0.000 C 
ATOM     20  C   UNL     1       6.183   3.979  15.763  0.00  0.00    +0.000 C 
ENDBRANCH  14  20
ENDBRANCH   1  18
TORSDOF 3
ENDMDL
MODEL 6
REMARK VINA RESULT:      -6.8      2.399      3.925
REMARK  Name = 
REMARK  4 active torsions:
REMARK  status: ('A' for Active; 'I' for Inactive)
REMARK    1  A    between atoms: C_1  and  C_2
REMARK    2  A    between atoms: C_2  and  C_3
REMARK    3  A    between atoms: C_7  and  C_8
REMARK    4  A    between atoms: N_10  and  C_11
REMARK                            x       y       z     vdW  Elec       q    Type
REMARK                         _______ _______ _______ _____ _____    ______ ____
ROOT
ATOM      1  C   UNL     1       4.113   6.289  17.590  0.00  0.00    +0.000 C 
ATOM      2  O   UNL     1       3.360   7.257  17.510  0.00  0.00    +0.000 OA
ATOM      3  N   UNL     1       3.687   5.039  17.968  0.00  0.00    +0.000 N 
ATOM      4  H   UNL     1       4.375   4.294  17.986  0.00  0.00    +0.000 HD
ENDROOT
BRANCH   3   5
ATOM      5  C   UNL     1       2.305   4.775  18.309  0.00  0.00    +0.000 C 
ATOM      6  C   UNL     1       1.638   3.786  17.313  0.00  0.00    +0.000 C 
ATOM      7  C   UNL     1       2.064   2.315  17.541  0.00  0.00    +0.000 C 
ATOM      8  C   UNL     1       1.732   1.812  18.962  0.00  0.00    +0.000 C 
ATOM      9  C   UNL     1       2.041   2.880  19.936  0.00  0.00    +0.000 A 
ATOM     10  O   UNL     1       2.067   2.611  21.261  0.00  0.00    +0.000 OA
ATOM     11  C   UNL     1       2.335   3.796  21.879  0.00  0.00    +0.000 A 
ATOM     12  C   UNL     1       2.475   4.810  20.955  0.00  0.00    +0.000 A 
ATOM     13  C   UNL     1       2.283   4.213  19.687  0.00  0.00    +0.000 A 
ENDBRANCH   3   5
BRANCH   1  18
ATOM     14  C   UNL     1       6.168   5.940  16.146  0.00  0.00    +0.000 A 
ATOM     15  O   UNL     1       7.503   6.214  16.260  0.00  0.00    +0.000 OA
ATOM     16  C   UNL     1       7.616   6.801  17.481  0.00  0.00    +0.000 A 
ATOM     17  N   UNL     1       6.491   6.925  18.151  0.00  0.00    +0.000 NA
ATOM     18  C   UNL     1       5.542   6.371  17.301  0.00  0.00    +0.000 A 
BRANCH  14  20
ATOM     19  C   UNL     1       6.242   3.893  14.756  0.00  0.00    +0.000 C 
ATOM     20  C   UNL     1       5.711   5.312  14.885  0.00  0.00    +0.000 C 
ENDBRANCH  14  20
ENDBRANCH   1  18
TORSDOF 3
ENDMDL
MODEL 7
REMARK VINA RESULT:      -6.6      2.350      6.085
REMARK  Name = 
REMARK  4 active torsions:
REMARK  status: ('A' for Active; 'I' for Inactive)
REMARK    1  A    between atoms: C_1  and  C_2
REMARK    2  A    between atoms: C_2  and  C_3
REMARK    3  A    between atoms: C_7  and  C_8
REMARK    4  A    between atoms: N_10  and  C_11
REMARK                            x       y       z     vdW  Elec       q    Type
REMARK                         _______ _______ _______ _____ _____    ______ ____
ROOT
ATOM      1  C   UNL     1       2.762   5.401  18.547  0.00  0.00    +0.000 C 
ATOM      2  O   UNL     1       1.980   6.275  18.178  0.00  0.00    +0.000 OA
ATOM      3  N   UNL     1       4.012   5.236  18.001  0.00  0.00    +0.000 N 
ATOM      4  H   UNL     1       4.597   4.501  18.383  0.00  0.00    +0.000 HD
ENDROOT
BRANCH   3   5
ATOM      5  C   UNL     1       4.498   6.089  16.938  0.00  0.00    +0.000 C 
ATOM      6  C   UNL     1       5.248   7.335  17.486  0.00  0.00    +0.000 C 
ATOM      7  C   UNL     1       6.675   7.010  17.993  0.00  0.00    +0.000 C 
ATOM      8  C   UNL     1       7.571   6.394  16.897  0.00  0.00    +0.000 C 
ATOM      9  C   UNL     1       6.776   5.425  16.112  0.00  0.00    +0.000 A 
ATOM     10  O   UNL     1       7.385   4.576  15.253  0.00  0.00    +0.000 OA
ATOM     11  C   UNL     1       6.387   3.858  14.666  0.00  0.00    +0.000 A 
ATOM     12  C   UNL     1       5.154   4.249  15.144  0.00  0.00    +0.000 A 
ATOM     13  C   UNL     1       5.407   5.272  16.088  0.00  0.00    +0.000 A 
ENDBRANCH   3   5
BRANCH   1  18
ATOM     14  C   UNL     1       2.191   3.089  19.419  0.00  0.00    +0.000 A 
ATOM     15  O   UNL     1       1.945   2.539  20.646  0.00  0.00    +0.000 OA
ATOM     16  C   UNL     1       2.057   3.586  21.506  0.00  0.00    +0.000 A 
ATOM     17  N   UNL     1       2.346   4.741  20.948  0.00  0.00    +0.000 NA
ATOM     18  C   UNL     1       2.436   4.439  19.596  0.00  0.00    +0.000 A 
BRANCH  14  20
ATOM     19  C   UNL     1       3.565   1.645  17.950  0.00  0.00    +0.000 C 
ATOM     20  C   UNL     1       2.173   2.178  18.252  0.00  0.00    +0.000 C 
ENDBRANCH  14  20
ENDBRANCH   1  18
TORSDOF 3
ENDMDL
MODEL 8
REMARK VINA RESULT:      -6.6      3.103      6.844
REMARK  Name = 
REMARK  4 active torsions:
REMARK  status: ('A' for Active; 'I' for Inactive)
REMARK    1  A    between atoms: C_1  and  C_2
REMARK    2  A    between atoms: C_2  and  C_3
REMARK    3  A    between atoms: C_7  and  C_8
REMARK    4  A    between atoms: N_10  and  C_11
REMARK                            x       y       z     vdW  Elec       q    Type
REMARK                         _______ _______ _______ _____ _____    ______ ____
ROOT
ATOM      1  C   UNL     1       2.825   6.442  18.982  0.00  0.00    +0.000 C 
ATOM      2  O   UNL     1       2.529   5.746  19.950  0.00  0.00    +0.000 OA
ATOM      3  N   UNL     1       3.715   6.040  18.015  0.00  0.00    +0.000 N 
ATOM      4  H   UNL     1       3.883   6.673  17.240  0.00  0.00    +0.000 HD
ENDROOT
BRANCH   3   5
ATOM      5  C   UNL     1       4.378   4.755  18.075  0.00  0.00    +0.000 C 
ATOM      6  C   UNL     1       4.144   3.917  16.788  0.00  0.00    +0.000 C 
ATOM      7  C   UNL     1       4.997   4.396  15.588  0.00  0.00    +0.000 C 
ATOM      8  C   UNL     1       6.512   4.354  15.879  0.00  0.00    +0.000 C 
ATOM      9  C   UNL     1       6.751   4.836  17.257  0.00  0.00    +0.000 A 
ATOM     10  O   UNL     1       8.006   5.125  17.672  0.00  0.00    +0.000 OA
ATOM     11  C   UNL     1       7.892   5.495  18.979  0.00  0.00    +0.000 A 
ATOM     12  C   UNL     1       6.577   5.440  19.391  0.00  0.00    +0.000 A 
ATOM     13  C   UNL     1       5.832   5.010  18.268  0.00  0.00    +0.000 A 
ENDBRANCH   3   5
BRANCH   1  18
ATOM     14  C   UNL     1       1.586   8.536  19.696  0.00  0.00    +0.000 A 
ATOM     15  O   UNL     1       1.250   9.724  19.108  0.00  0.00    +0.000 OA
ATOM     16  C   UNL     1       1.750   9.621  17.848  0.00  0.00    +0.000 A 
ATOM     17  N   UNL     1       2.366   8.490  17.579  0.00  0.00    +0.000 NA
ATOM     18  C   UNL     1       2.268   7.774  18.765  0.00  0.00    +0.000 A 
BRANCH  14  20
ATOM     19  C   UNL     1       0.613   9.626  21.695  0.00  0.00    +0.000 C 
ATOM     20  C   UNL     1       1.199   8.349  21.113  0.00  0.00    +0.000 C 
ENDBRANCH  14  20
ENDBRANCH   1  18
TORSDOF 3
ENDMDL
MODEL 9
REMARK VINA RESULT:      -6.6      2.839      6.322
REMARK  Name = 
REMARK  4 active torsions:
REMARK  status: ('A' for Active; 'I' for Inactive)
REMARK    1  A    between atoms: C_1  and  C_2
REMARK    2  A    between atoms: C_2  and  C_3
REMARK    3  A    between atoms: C_7  and  C_8
REMARK    4  A    between atoms: N_10  and  C_11
REMARK                            x       y       z     vdW  Elec       q    Type
REMARK                         _______ _______ _______ _____ _____    ______ ____
ROOT
ATOM      1  C   UNL     1       4.286   3.683  19.360  0.00  0.00    +0.000 C 
ATOM      2  O   UNL     1       4.945   2.797  19.899  0.00  0.00    +0.000 OA
ATOM      3  N   UNL     1       4.725   4.375  18.256  0.00  0.00    +0.000 N 
ATOM      4  H   UNL     1       4.105   5.077  17.865  0.00  0.00    +0.000 HD
ENDROOT
BRANCH   3   5
ATOM      5  C   UNL     1       6.011   4.107  17.649  0.00  0.00    +0.000 C 
ATOM      6  C   UNL     1       5.870   3.569  16.198  0.00  0.00    +0.000 C 
ATOM      7  C   UNL     1       5.521   4.675  15.172  0.00  0.00    +0.000 C 
ATOM      8  C   UNL     1       6.573   5.803  15.131  0.00  0.00    +0.000 C 
ATOM      9  C   UNL     1       6.997   6.117  16.512  0.00  0.00    +0.000 A 
ATOM     10  O   UNL     1       7.728   7.227  16.768  0.00  0.00    +0.000 OA
ATOM     11  C   UNL     1       7.987   7.204  18.106  0.00  0.00    +0.000 A 
ATOM     12  C   UNL     1       7.429   6.089  18.694  0.00  0.00    +0.000 A 
ATOM     13  C   UNL     1       6.783   5.379  17.655  0.00  0.00    +0.000 A 
ENDBRANCH   3   5
BRANCH   1  18
ATOM     14  C   UNL     1       1.783   3.423  19.664  0.00  0.00    +0.000 A 
ATOM     15  O   UNL     1       0.793   4.133  20.285  0.00  0.00    +0.000 OA
ATOM     16  C   UNL     1       1.439   5.205  20.814  0.00  0.00    +0.000 A 
ATOM     17  N   UNL     1       2.734   5.248  20.589  0.00  0.00    +0.000 NA
ATOM     18  C   UNL     1       2.975   4.101  19.844  0.00  0.00    +0.000 A 
BRANCH  14  20
ATOM     19  C   UNL     1       2.163   1.955  17.706  0.00  0.00    +0.000 C 
ATOM     20  C   UNL     1       1.395   2.155  19.004  0.00  0.00    +0.000 C 
ENDBRANCH  14  20
ENDBRANCH   1  18
TORSDOF 3
ENDMDL
