MODEL 1
REMARK VINA RESULT:      -7.6      0.000      0.000
REMARK  Name = 
REMARK  9 active torsions:
REMARK  status: ('A' for Active; 'I' for Inactive)
REMARK    1  A    between atoms: C_2  and  C_3
REMARK    2  A    between atoms: C_3  and  S_4
REMARK    3  A    between atoms: S_4  and  C_5
REMARK    4  A    between atoms: C_5  and  C_6
REMARK    5  A    between atoms: C_6  and  O_8
REMARK    6  A    between atoms: O_8  and  C_9
REMARK    7  A    between atoms: C_9  and  C_10
REMARK    8  A    between atoms: C_16  and  C_18
REMARK    9  A    between atoms: N_25  and  C_26
REMARK                            x       y       z     vdW  Elec       q    Type
REMARK                         _______ _______ _______ _____ _____    ______ ____
ROOT
ATOM      1  O   UNL     1       2.471   4.848  20.944  0.00  0.00    +0.000 OA
ENDROOT
BRANCH   1   2
ATOM      2  C   UNL     1       1.797   3.687  21.194  0.00  0.00    +0.000 C 
ATOM      3  O   UNL     1       2.046   2.939  22.131  0.00  0.00    +0.000 OA
BRANCH   2   4
ATOM      4  C   UNL     1       0.737   3.471  20.134  0.00  0.00    +0.000 C 
BRANCH   4   5
ATOM      5  S   UNL     1       1.464   3.011  18.527  0.00  0.00    +0.000 S 
BRANCH   5   6
ATOM      6  C   UNL     1       2.892   2.020  19.098  0.00  0.00    +0.000 C 
BRANCH   6   8
ATOM      7  O   UNL     1       5.170   2.453  19.707  0.00  0.00    +0.000 OA
ATOM      8  C   UNL     1       4.173   2.841  19.102  0.00  0.00    +0.000 C 
ATOM      9  N   UNL     1       4.079   4.036  18.398  0.00  0.00    +0.000 N 
ATOM     10  H   UNL     1       3.154   4.341  18.090  0.00  0.00    +0.000 HD
BRANCH   9  11
ATOM     11  C   UNL     1       5.134   4.955  18.196  0.00  0.00    +0.000 A 
ATOM     12  C   UNL     1       6.217   5.095  19.070  0.00  0.00    +0.000 A 
ATOM     13  C   UNL     1       7.201   6.063  18.841  0.00  0.00    +0.000 A 
ATOM     14  C   UNL     1       7.109   6.894  17.731  0.00  0.00    +0.000 A 
ATOM     15 CL   UNL     1       8.292   8.114  17.474  0.00  0.00    +0.000 Cl
ATOM     16  C   UNL     1       6.057   6.741  16.829  0.00  0.00    +0.000 A 
ATOM     17  C   UNL     1       5.080   5.766  17.056  0.00  0.00    +0.000 A 
ENDBRANCH   9  11
ENDBRANCH   6   8
ENDBRANCH   5   6
ENDBRANCH   4   5
ENDBRANCH   2   4
ENDBRANCH   1   2
BRANCH   1  18
ATOM     18  C   UNL     1       1.632   6.004  20.925  0.00  0.00    +0.000 C 
BRANCH  18  19
ATOM     19  C   UNL     1       1.883   6.923  19.717  0.00  0.00    +0.000 C 
ATOM     20  O   UNL     1       2.394   6.481  18.682  0.00  0.00    +0.000 OA
ATOM     21  N   UNL     1       1.493   8.249  19.860  0.00  0.00    +0.000 N 
ATOM     22  C   UNL     1       1.574   9.177  18.721  0.00  0.00    +0.000 C 
ATOM     23  C   UNL     1       0.274   9.992  18.562  0.00  0.00    +0.000 C 
ATOM     24  N   UNL     1      -0.137  10.597  19.837  0.00  0.00    +0.000 N 
ATOM     25  C   UNL     1      -0.690  11.884  19.837  0.00  0.00    +0.000 C 
ATOM     26  O   UNL     1      -0.916  12.465  18.774  0.00  0.00    +0.000 OA
ATOM     27  C   UNL     1      -0.246   9.637  20.941  0.00  0.00    +0.000 C 
ATOM     28  C   UNL     1       1.074   8.881  21.123  0.00  0.00    +0.000 C 
BRANCH  25  29
ATOM     29  C   UNL     1      -0.989  12.518  21.112  0.00  0.00    +0.000 A 
ATOM     30  C   UNL     1      -0.176  13.242  21.967  0.00  0.00    +0.000 A 
ATOM     31  C   UNL     1      -0.975  13.631  23.068  0.00  0.00    +0.000 A 
ATOM     32  C   UNL     1      -2.215  13.080  22.852  0.00  0.00    +0.000 A 
ATOM     33  O   UNL     1      -2.226  12.381  21.690  0.00  0.00    +0.000 OA
ENDBRANCH  25  29
ENDBRANCH  18  19
ENDBRANCH   1  18
TORSDOF 9
ENDMDL
MODEL 2
REMARK VINA RESULT:      -7.4      4.020      9.372
REMARK  Name = 
REMARK  9 active torsions:
REMARK  status: ('A' for Active; 'I' for Inactive)
REMARK    1  A    between atoms: C_2  and  C_3
REMARK    2  A    between atoms: C_3  and  S_4
REMARK    3  A    between atoms: S_4  and  C_5
REMARK    4  A    between atoms: C_5  and  C_6
REMARK    5  A    between atoms: C_6  and  O_8
REMARK    6  A    between atoms: O_8  and  C_9
REMARK    7  A    between atoms: C_9  and  C_10
REMARK    8  A    between atoms: C_16  and  C_18
REMARK    9  A    between atoms: N_25  and  C_26
REMARK                            x       y       z     vdW  Elec       q    Type
REMARK                         _______ _______ _______ _____ _____    ______ ____
ROOT
ATOM      1  O   UNL     1       3.657   3.074  18.962  0.00  0.00    +0.000 OA
ENDROOT
BRANCH   1   2
ATOM      2  C   UNL     1       2.596   3.243  19.804  0.00  0.00    +0.000 C 
ATOM      3  O   UNL     1       2.586   2.880  20.973  0.00  0.00    +0.000 OA
BRANCH   2   4
ATOM      4  C   UNL     1       1.455   3.909  19.064  0.00  0.00    +0.000 C 
BRANCH   4   5
ATOM      5  S   UNL     1       1.951   5.508  18.344  0.00  0.00    +0.000 S 
BRANCH   5   6
ATOM      6  C   UNL     1       2.515   6.374  19.854  0.00  0.00    +0.000 C 
BRANCH   6   8
ATOM      7  O   UNL     1       1.875   8.530  19.024  0.00  0.00    +0.000 OA
ATOM      8  C   UNL     1       1.880   7.752  19.976  0.00  0.00    +0.000 C 
ATOM      9  N   UNL     1       1.358   8.022  21.235  0.00  0.00    +0.000 N 
ATOM     10  H   UNL     1       1.578   7.378  21.996  0.00  0.00    +0.000 HD
BRANCH   9  11
ATOM     11  C   UNL     1       0.666   9.199  21.600  0.00  0.00    +0.000 A 
ATOM     12  C   UNL     1       0.791  10.415  20.919  0.00  0.00    +0.000 A 
ATOM     13  C   UNL     1       0.120  11.558  21.366  0.00  0.00    +0.000 A 
ATOM     14  C   UNL     1      -0.686  11.490  22.495  0.00  0.00    +0.000 A 
ATOM     15 CL   UNL     1      -1.475  12.905  23.072  0.00  0.00    +0.000 Cl
ATOM     16  C   UNL     1      -0.854  10.277  23.162  0.00  0.00    +0.000 A 
ATOM     17  C   UNL     1      -0.188   9.134  22.707  0.00  0.00    +0.000 A 
ENDBRANCH   9  11
ENDBRANCH   6   8
ENDBRANCH   5   6
ENDBRANCH   4   5
ENDBRANCH   2   4
ENDBRANCH   1   2
BRANCH   1  18
ATOM     18  C   UNL     1       4.915   3.400  19.554  0.00  0.00    +0.000 C 
BRANCH  18  19
ATOM     19  C   UNL     1       5.547   4.681  18.982  0.00  0.00    +0.000 C 
ATOM     20  O   UNL     1       5.973   5.566  19.733  0.00  0.00    +0.000 OA
ATOM     21  N   UNL     1       5.619   4.767  17.597  0.00  0.00    +0.000 N 
ATOM     22  C   UNL     1       6.318   5.892  16.955  0.00  0.00    +0.000 C 
ATOM     23  C   UNL     1       7.270   5.405  15.843  0.00  0.00    +0.000 C 
ATOM     24  N   UNL     1       6.591   4.481  14.924  0.00  0.00    +0.000 N 
ATOM     25  C   UNL     1       6.880   4.541  13.556  0.00  0.00    +0.000 C 
ATOM     26  O   UNL     1       7.761   5.295  13.138  0.00  0.00    +0.000 OA
ATOM     27  C   UNL     1       5.939   3.351  15.595  0.00  0.00    +0.000 C 
ATOM     28  C   UNL     1       4.952   3.854  16.653  0.00  0.00    +0.000 C 
BRANCH  25  29
ATOM     29  C   UNL     1       6.122   3.701  12.641  0.00  0.00    +0.000 A 
ATOM     30  C   UNL     1       6.535   2.657  11.831  0.00  0.00    +0.000 A 
ATOM     31  C   UNL     1       5.390   2.187  11.146  0.00  0.00    +0.000 A 
ATOM     32  C   UNL     1       4.353   3.001  11.533  0.00  0.00    +0.000 A 
ATOM     33  O   UNL     1       4.790   3.937  12.412  0.00  0.00    +0.000 OA
ENDBRANCH  25  29
ENDBRANCH  18  19
ENDBRANCH   1  18
TORSDOF 9
ENDMDL
MODEL 3
REMARK VINA RESULT:      -7.2      1.223      1.400
REMARK  Name = 
REMARK  9 active torsions:
REMARK  status: ('A' for Active; 'I' for Inactive)
REMARK    1  A    between atoms: C_2  and  C_3
REMARK    2  A    between atoms: C_3  and  S_4
REMARK    3  A    between atoms: S_4  and  C_5
REMARK    4  A    between atoms: C_5  and  C_6
REMARK    5  A    between atoms: C_6  and  O_8
REMARK    6  A    between atoms: O_8  and  C_9
REMARK    7  A    between atoms: C_9  and  C_10
REMARK    8  A    between atoms: C_16  and  C_18
REMARK    9  A    between atoms: N_25  and  C_26
REMARK                            x       y       z     vdW  Elec       q    Type
REMARK                         _______ _______ _______ _____ _____    ______ ____
ROOT
ATOM      1  O   UNL     1       2.538   4.990  20.461  0.00  0.00    +0.000 OA
ENDROOT
BRANCH   1   2
ATOM      2  C   UNL     1       1.674   3.962  20.216  0.00  0.00    +0.000 C 
ATOM      3  O   UNL     1       0.455   4.072  20.242  0.00  0.00    +0.000 OA
BRANCH   2   4
ATOM      4  C   UNL     1       2.452   2.693  19.943  0.00  0.00    +0.000 C 
BRANCH   4   5
ATOM      5  S   UNL     1       2.266   2.136  18.218  0.00  0.00    +0.000 S 
BRANCH   5   6
ATOM      6  C   UNL     1       4.004   2.257  17.657  0.00  0.00    +0.000 C 
BRANCH   6   8
ATOM      7  O   UNL     1       3.685   4.624  17.452  0.00  0.00    +0.000 OA
ATOM      8  C   UNL     1       4.480   3.703  17.628  0.00  0.00    +0.000 C 
ATOM      9  N   UNL     1       5.853   3.848  17.788  0.00  0.00    +0.000 N 
ATOM     10  H   UNL     1       6.434   3.009  17.744  0.00  0.00    +0.000 HD
BRANCH   9  11
ATOM     11  C   UNL     1       6.545   5.078  17.856  0.00  0.00    +0.000 A 
ATOM     12  C   UNL     1       7.519   5.367  18.818  0.00  0.00    +0.000 A 
ATOM     13  C   UNL     1       8.128   6.626  18.864  0.00  0.00    +0.000 A 
ATOM     14  C   UNL     1       7.770   7.602  17.943  0.00  0.00    +0.000 A 
ATOM     15 CL   UNL     1       8.484   9.164  18.027  0.00  0.00    +0.000 Cl
ATOM     16  C   UNL     1       6.830   7.317  16.952  0.00  0.00    +0.000 A 
ATOM     17  C   UNL     1       6.230   6.055  16.903  0.00  0.00    +0.000 A 
ENDBRANCH   9  11
ENDBRANCH   6   8
ENDBRANCH   5   6
ENDBRANCH   4   5
ENDBRANCH   2   4
ENDBRANCH   1   2
BRANCH   1  18
ATOM     18  C   UNL     1       1.887   6.232  20.733  0.00  0.00    +0.000 C 
BRANCH  18  19
ATOM     19  C   UNL     1       2.115   7.294  19.643  0.00  0.00    +0.000 C 
ATOM     20  O   UNL     1       2.757   7.025  18.622  0.00  0.00    +0.000 OA
ATOM     21  N   UNL     1       1.549   8.543  19.873  0.00  0.00    +0.000 N 
ATOM     22  C   UNL     1       1.602   9.587  18.836  0.00  0.00    +0.000 C 
ATOM     23  C   UNL     1       0.226  10.255  18.637  0.00  0.00    +0.000 C 
ATOM     24  N   UNL     1      -0.357  10.672  19.920  0.00  0.00    +0.000 N 
ATOM     25  C   UNL     1      -1.066  11.877  19.989  0.00  0.00    +0.000 C 
ATOM     26  O   UNL     1      -1.279  12.534  18.968  0.00  0.00    +0.000 OA
ATOM     27  C   UNL     1      -0.430   9.597  20.915  0.00  0.00    +0.000 C 
ATOM     28  C   UNL     1       0.956   8.987  21.145  0.00  0.00    +0.000 C 
BRANCH  25  29
ATOM     29  C   UNL     1      -1.543  12.337  21.284  0.00  0.00    +0.000 A 
ATOM     30  C   UNL     1      -2.825  12.379  21.805  0.00  0.00    +0.000 A 
ATOM     31  C   UNL     1      -2.724  12.918  23.110  0.00  0.00    +0.000 A 
ATOM     32  C   UNL     1      -1.397  13.224  23.294  0.00  0.00    +0.000 A 
ATOM     33  O   UNL     1      -0.680  12.906  22.188  0.00  0.00    +0.000 OA
ENDBRANCH  25  29
ENDBRANCH  18  19
ENDBRANCH   1  18
TORSDOF 9
ENDMDL
MODEL 4
REMARK VINA RESULT:      -7.2      1.759      1.951
REMARK  Name = 
REMARK  9 active torsions:
REMARK  status: ('A' for Active; 'I' for Inactive)
REMARK    1  A    between atoms: C_2  and  C_3
REMARK    2  A    between atoms: C_3  and  S_4
REMARK    3  A    between atoms: S_4  and  C_5
REMARK    4  A    between atoms: C_5  and  C_6
REMARK    5  A    between atoms: C_6  and  O_8
REMARK    6  A    between atoms: O_8  and  C_9
REMARK    7  A    between atoms: C_9  and  C_10
REMARK    8  A    between atoms: C_16  and  C_18
REMARK    9  A    between atoms: N_25  and  C_26
REMARK                            x       y       z     vdW  Elec       q    Type
REMARK                         _______ _______ _______ _____ _____    ______ ____
ROOT
ATOM      1  O   UNL     1       2.768   4.765  20.696  0.00  0.00    +0.000 OA
ENDROOT
BRANCH   1   2
ATOM      2  C   UNL     1       2.064   3.703  21.183  0.00  0.00    +0.000 C 
ATOM      3  O   UNL     1       2.437   3.005  22.117  0.00  0.00    +0.000 OA
BRANCH   2   4
ATOM      4  C   UNL     1       0.793   3.519  20.381  0.00  0.00    +0.000 C 
BRANCH   4   5
ATOM      5  S   UNL     1       1.062   2.482  18.907  0.00  0.00    +0.000 S 
BRANCH   5   6
ATOM      6  C   UNL     1       2.890   2.407  18.901  0.00  0.00    +0.000 C 
BRANCH   6   8
ATOM      7  O   UNL     1       2.738   3.277  16.672  0.00  0.00    +0.000 OA
ATOM      8  C   UNL     1       3.467   2.995  17.621  0.00  0.00    +0.000 C 
ATOM      9  N   UNL     1       4.848   3.144  17.642  0.00  0.00    +0.000 N 
ATOM     10  H   UNL     1       5.368   2.711  18.407  0.00  0.00    +0.000 HD
BRANCH   9  11
ATOM     11  C   UNL     1       5.628   3.716  16.610  0.00  0.00    +0.000 A 
ATOM     12  C   UNL     1       6.656   4.636  16.836  0.00  0.00    +0.000 A 
ATOM     13  C   UNL     1       7.354   5.207  15.766  0.00  0.00    +0.000 A 
ATOM     14  C   UNL     1       7.029   4.855  14.462  0.00  0.00    +0.000 A 
ATOM     15 CL   UNL     1       7.853   5.590  13.144  0.00  0.00    +0.000 Cl
ATOM     16  C   UNL     1       6.033   3.908  14.221  0.00  0.00    +0.000 A 
ATOM     17  C   UNL     1       5.344   3.333  15.294  0.00  0.00    +0.000 A 
ENDBRANCH   9  11
ENDBRANCH   6   8
ENDBRANCH   5   6
ENDBRANCH   4   5
ENDBRANCH   2   4
ENDBRANCH   1   2
BRANCH   1  18
ATOM     18  C   UNL     1       2.074   6.009  20.802  0.00  0.00    +0.000 C 
BRANCH  18  19
ATOM     19  C   UNL     1       2.257   6.919  19.574  0.00  0.00    +0.000 C 
ATOM     20  O   UNL     1       2.832   6.505  18.560  0.00  0.00    +0.000 OA
ATOM     21  N   UNL     1       1.732   8.201  19.674  0.00  0.00    +0.000 N 
ATOM     22  C   UNL     1       1.743   9.104  18.511  0.00  0.00    +0.000 C 
ATOM     23  C   UNL     1       0.371   9.779  18.307  0.00  0.00    +0.000 C 
ATOM     24  N   UNL     1      -0.126  10.371  19.557  0.00  0.00    +0.000 N 
ATOM     25  C   UNL     1      -0.806  11.594  19.511  0.00  0.00    +0.000 C 
ATOM     26  O   UNL     1      -1.066  12.122  18.429  0.00  0.00    +0.000 OA
ATOM     27  C   UNL     1      -0.161   9.432  20.684  0.00  0.00    +0.000 C 
ATOM     28  C   UNL     1       1.224   8.819  20.911  0.00  0.00    +0.000 C 
BRANCH  25  29
ATOM     29  C   UNL     1      -1.195  12.226  20.762  0.00  0.00    +0.000 A 
ATOM     30  C   UNL     1      -2.450  12.515  21.269  0.00  0.00    +0.000 A 
ATOM     31  C   UNL     1      -2.257  13.134  22.527  0.00  0.00    +0.000 A 
ATOM     32  C   UNL     1      -0.897  13.236  22.696  0.00  0.00    +0.000 A 
ATOM     33  O   UNL     1      -0.247  12.719  21.624  0.00  0.00    +0.000 OA
ENDBRANCH  25  29
ENDBRANCH  18  19
ENDBRANCH   1  18
TORSDOF 9
ENDMDL
MODEL 5
REMARK VINA RESULT:      -6.9      1.226      1.554
REMARK  Name = 
REMARK  9 active torsions:
REMARK  status: ('A' for Active; 'I' for Inactive)
REMARK    1  A    between atoms: C_2  and  C_3
REMARK    2  A    between atoms: C_3  and  S_4
REMARK    3  A    between atoms: S_4  and  C_5
REMARK    4  A    between atoms: C_5  and  C_6
REMARK    5  A    between atoms: C_6  and  O_8
REMARK    6  A    between atoms: O_8  and  C_9
REMARK    7  A    between atoms: C_9  and  C_10
REMARK    8  A    between atoms: C_16  and  C_18
REMARK    9  A    between atoms: N_25  and  C_26
REMARK                            x       y       z     vdW  Elec       q    Type
REMARK                         _______ _______ _______ _____ _____    ______ ____
ROOT
ATOM      1  O   UNL     1       1.227   5.822  20.666  0.00  0.00    +0.000 OA
ENDROOT
BRANCH   1   2
ATOM      2  C   UNL     1       1.377   4.511  20.318  0.00  0.00    +0.000 C 
ATOM      3  O   UNL     1       0.446   3.763  20.050  0.00  0.00    +0.000 OA
BRANCH   2   4
ATOM      4  C   UNL     1       2.844   4.138  20.346  0.00  0.00    +0.000 C 
BRANCH   4   5
ATOM      5  S   UNL     1       3.091   2.334  20.279  0.00  0.00    +0.000 S 
BRANCH   5   6
ATOM      6  C   UNL     1       4.020   2.201  18.707  0.00  0.00    +0.000 C 
BRANCH   6   8
ATOM      7  O   UNL     1       3.726   4.213  17.437  0.00  0.00    +0.000 OA
ATOM      8  C   UNL     1       4.448   3.569  18.196  0.00  0.00    +0.000 C 
ATOM      9  N   UNL     1       5.700   3.971  18.645  0.00  0.00    +0.000 N 
ATOM     10  H   UNL     1       6.285   3.283  19.121  0.00  0.00    +0.000 HD
BRANCH   9  11
ATOM     11  C   UNL     1       6.310   5.217  18.369  0.00  0.00    +0.000 A 
ATOM     12  C   UNL     1       5.896   6.071  17.341  0.00  0.00    +0.000 A 
ATOM     13  C   UNL     1       6.577   7.265  17.085  0.00  0.00    +0.000 A 
ATOM     14  C   UNL     1       7.675   7.615  17.861  0.00  0.00    +0.000 A 
ATOM     15 CL   UNL     1       8.542   9.060  17.518  0.00  0.00    +0.000 Cl
ATOM     16  C   UNL     1       8.076   6.795  18.915  0.00  0.00    +0.000 A 
ATOM     17  C   UNL     1       7.387   5.606  19.174  0.00  0.00    +0.000 A 
ENDBRANCH   9  11
ENDBRANCH   6   8
ENDBRANCH   5   6
ENDBRANCH   4   5
ENDBRANCH   2   4
ENDBRANCH   1   2
BRANCH   1  18
ATOM     18  C   UNL     1       2.373   6.625  20.379  0.00  0.00    +0.000 C 
BRANCH  18  19
ATOM     19  C   UNL     1       2.174   7.568  19.179  0.00  0.00    +0.000 C 
ATOM     20  O   UNL     1       2.558   7.244  18.049  0.00  0.00    +0.000 OA
ATOM     21  N   UNL     1       1.534   8.774  19.442  0.00  0.00    +0.000 N 
ATOM     22  C   UNL     1       1.184   9.687  18.342  0.00  0.00    +0.000 C 
ATOM     23  C   UNL     1      -0.269  10.188  18.466  0.00  0.00    +0.000 C 
ATOM     24  N   UNL     1      -0.547  10.696  19.817  0.00  0.00    +0.000 N 
ATOM     25  C   UNL     1      -1.361  11.825  19.970  0.00  0.00    +0.000 C 
ATOM     26  O   UNL     1      -1.913  12.332  18.991  0.00  0.00    +0.000 OA
ATOM     27  C   UNL     1      -0.223   9.744  20.886  0.00  0.00    +0.000 C 
ATOM     28  C   UNL     1       1.240   9.305  20.784  0.00  0.00    +0.000 C 
BRANCH  25  29
ATOM     29  C   UNL     1      -1.539  12.386  21.300  0.00  0.00    +0.000 A 
ATOM     30  C   UNL     1      -0.671  13.124  22.087  0.00  0.00    +0.000 A 
ATOM     31  C   UNL     1      -1.351  13.416  23.293  0.00  0.00    +0.000 A 
ATOM     32  C   UNL     1      -2.574  12.798  23.199  0.00  0.00    +0.000 A 
ATOM     33  O   UNL     1      -2.687  12.149  22.014  0.00  0.00    +0.000 OA
ENDBRANCH  25  29
ENDBRANCH  18  19
ENDBRANCH   1  18
TORSDOF 9
ENDMDL
MODEL 6
REMARK VINA RESULT:      -6.9      3.908      8.916
REMARK  Name = 
REMARK  9 active torsions:
REMARK  status: ('A' for Active; 'I' for Inactive)
REMARK    1  A    between atoms: C_2  and  C_3
REMARK    2  A    between atoms: C_3  and  S_4
REMARK    3  A    between atoms: S_4  and  C_5
REMARK    4  A    between atoms: C_5  and  C_6
REMARK    5  A    between atoms: C_6  and  O_8
REMARK    6  A    between atoms: O_8  and  C_9
REMARK    7  A    between atoms: C_9  and  C_10
REMARK    8  A    between atoms: C_16  and  C_18
REMARK    9  A    between atoms: N_25  and  C_26
REMARK                            x       y       z     vdW  Elec       q    Type
REMARK                         _______ _______ _______ _____ _____    ______ ____
ROOT
ATOM      1  O   UNL     1       5.321   3.453  20.106  0.00  0.00    +0.000 OA
ENDROOT
BRANCH   1   2
ATOM      2  C   UNL     1       4.697   2.286  20.444  0.00  0.00    +0.000 C 
ATOM      3  O   UNL     1       5.167   1.457  21.212  0.00  0.00    +0.000 OA
BRANCH   2   4
ATOM      4  C   UNL     1       3.377   2.179  19.709  0.00  0.00    +0.000 C 
BRANCH   4   5
ATOM      5  S   UNL     1       1.954   2.331  20.837  0.00  0.00    +0.000 S 
BRANCH   5   6
ATOM      6  C   UNL     1       2.307   3.969  21.574  0.00  0.00    +0.000 C 
BRANCH   6   8
ATOM      7  O   UNL     1       1.008   4.851  19.762  0.00  0.00    +0.000 OA
ATOM      8  C   UNL     1       1.724   5.094  20.731  0.00  0.00    +0.000 C 
ATOM      9  N   UNL     1       2.101   6.365  21.150  0.00  0.00    +0.000 N 
ATOM     10  H   UNL     1       2.840   6.441  21.851  0.00  0.00    +0.000 HD
BRANCH   9  11
ATOM     11  C   UNL     1       1.658   7.581  20.582  0.00  0.00    +0.000 A 
ATOM     12  C   UNL     1       0.830   8.491  21.248  0.00  0.00    +0.000 A 
ATOM     13  C   UNL     1       0.381   9.652  20.609  0.00  0.00    +0.000 A 
ATOM     14  C   UNL     1       0.765   9.912  19.299  0.00  0.00    +0.000 A 
ATOM     15 CL   UNL     1       0.178  11.314  18.497  0.00  0.00    +0.000 Cl
ATOM     16  C   UNL     1       1.622   9.035  18.635  0.00  0.00    +0.000 A 
ATOM     17  C   UNL     1       2.076   7.880  19.280  0.00  0.00    +0.000 A 
ENDBRANCH   9  11
ENDBRANCH   6   8
ENDBRANCH   5   6
ENDBRANCH   4   5
ENDBRANCH   2   4
ENDBRANCH   1   2
BRANCH   1  18
ATOM     18  C   UNL     1       4.689   4.148  19.030  0.00  0.00    +0.000 C 
BRANCH  18  19
ATOM     19  C   UNL     1       5.617   5.151  18.321  0.00  0.00    +0.000 C 
ATOM     20  O   UNL     1       6.281   5.966  18.971  0.00  0.00    +0.000 OA
ATOM     21  N   UNL     1       5.668   5.068  16.934  0.00  0.00    +0.000 N 
ATOM     22  C   UNL     1       6.618   5.896  16.173  0.00  0.00    +0.000 C 
ATOM     23  C   UNL     1       7.377   5.062  15.121  0.00  0.00    +0.000 C 
ATOM     24  N   UNL     1       6.454   4.257  14.309  0.00  0.00    +0.000 N 
ATOM     25  C   UNL     1       6.709   4.095  12.942  0.00  0.00    +0.000 C 
ATOM     26  O   UNL     1       7.743   4.543  12.444  0.00  0.00    +0.000 OA
ATOM     27  C   UNL     1       5.549   3.415  15.099  0.00  0.00    +0.000 C 
ATOM     28  C   UNL     1       4.759   4.269  16.096  0.00  0.00    +0.000 C 
BRANCH  25  29
ATOM     29  C   UNL     1       5.732   3.392  12.125  0.00  0.00    +0.000 A 
ATOM     30  C   UNL     1       5.791   2.143  11.532  0.00  0.00    +0.000 A 
ATOM     31  C   UNL     1       4.566   1.949  10.850  0.00  0.00    +0.000 A 
ATOM     32  C   UNL     1       3.849   3.110  11.019  0.00  0.00    +0.000 A 
ATOM     33  O   UNL     1       4.555   3.998  11.761  0.00  0.00    +0.000 OA
ENDBRANCH  25  29
ENDBRANCH  18  19
ENDBRANCH   1  18
TORSDOF 9
ENDMDL
MODEL 7
REMARK VINA RESULT:      -6.8      3.914      9.363
REMARK  Name = 
REMARK  9 active torsions:
REMARK  status: ('A' for Active; 'I' for Inactive)
REMARK    1  A    between atoms: C_2  and  C_3
REMARK    2  A    between atoms: C_3  and  S_4
REMARK    3  A    between atoms: S_4  and  C_5
REMARK    4  A    between atoms: C_5  and  C_6
REMARK    5  A    between atoms: C_6  and  O_8
REMARK    6  A    between atoms: O_8  and  C_9
REMARK    7  A    between atoms: C_9  and  C_10
REMARK    8  A    between atoms: C_16  and  C_18
REMARK    9  A    between atoms: N_25  and  C_26
REMARK                            x       y       z     vdW  Elec       q    Type
REMARK                         _______ _______ _______ _____ _____    ______ ____
ROOT
ATOM      1  O   UNL     1       3.849   3.168  20.699  0.00  0.00    +0.000 OA
ENDROOT
BRANCH   1   2
ATOM      2  C   UNL     1       2.506   3.114  20.459  0.00  0.00    +0.000 C 
ATOM      3  O   UNL     1       1.934   2.140  19.986  0.00  0.00    +0.000 OA
BRANCH   2   4
ATOM      4  C   UNL     1       1.864   4.432  20.836  0.00  0.00    +0.000 C 
BRANCH   4   5
ATOM      5  S   UNL     1       1.439   5.429  19.371  0.00  0.00    +0.000 S 
BRANCH   5   6
ATOM      6  C   UNL     1       2.657   6.783  19.544  0.00  0.00    +0.000 C 
BRANCH   6   8
ATOM      7  O   UNL     1       2.274   8.719  18.183  0.00  0.00    +0.000 OA
ATOM      8  C   UNL     1       2.032   8.136  19.238  0.00  0.00    +0.000 C 
ATOM      9  N   UNL     1       1.219   8.624  20.254  0.00  0.00    +0.000 N 
ATOM     10  H   UNL     1       1.235   8.144  21.156  0.00  0.00    +0.000 HD
BRANCH   9  11
ATOM     11  C   UNL     1       0.476   9.825  20.205  0.00  0.00    +0.000 A 
ATOM     12  C   UNL     1      -0.517  10.084  19.254  0.00  0.00    +0.000 A 
ATOM     13  C   UNL     1      -1.178  11.316  19.226  0.00  0.00    +0.000 A 
ATOM     14  C   UNL     1      -0.853  12.297  20.155  0.00  0.00    +0.000 A 
ATOM     15 CL   UNL     1      -1.632  13.829  20.093  0.00  0.00    +0.000 Cl
ATOM     16  C   UNL     1       0.106  12.041  21.135  0.00  0.00    +0.000 A 
ATOM     17  C   UNL     1       0.759  10.804  21.165  0.00  0.00    +0.000 A 
ENDBRANCH   9  11
ENDBRANCH   6   8
ENDBRANCH   5   6
ENDBRANCH   4   5
ENDBRANCH   2   4
ENDBRANCH   1   2
BRANCH   1  18
ATOM     18  C   UNL     1       4.647   3.037  19.522  0.00  0.00    +0.000 C 
BRANCH  18  19
ATOM     19  C   UNL     1       5.262   4.366  19.049  0.00  0.00    +0.000 C 
ATOM     20  O   UNL     1       5.630   5.219  19.865  0.00  0.00    +0.000 OA
ATOM     21  N   UNL     1       5.386   4.533  17.675  0.00  0.00    +0.000 N 
ATOM     22  C   UNL     1       6.075   5.712  17.126  0.00  0.00    +0.000 C 
ATOM     23  C   UNL     1       7.085   5.316  16.030  0.00  0.00    +0.000 C 
ATOM     24  N   UNL     1       6.472   4.427  15.033  0.00  0.00    +0.000 N 
ATOM     25  C   UNL     1       6.814   4.573  13.683  0.00  0.00    +0.000 C 
ATOM     26  O   UNL     1       7.687   5.374  13.345  0.00  0.00    +0.000 OA
ATOM     27  C   UNL     1       5.828   3.242  15.612  0.00  0.00    +0.000 C 
ATOM     28  C   UNL     1       4.785   3.657  16.654  0.00  0.00    +0.000 C 
BRANCH  25  29
ATOM     29  C   UNL     1       6.119   3.765  12.693  0.00  0.00    +0.000 A 
ATOM     30  C   UNL     1       4.795   3.785  12.287  0.00  0.00    +0.000 A 
ATOM     31  C   UNL     1       4.652   2.788  11.293  0.00  0.00    +0.000 A 
ATOM     32  C   UNL     1       5.879   2.180  11.184  0.00  0.00    +0.000 A 
ATOM     33  O   UNL     1       6.763   2.742  12.045  0.00  0.00    +0.000 OA
ENDBRANCH  25  29
ENDBRANCH  18  19
ENDBRANCH   1  18
TORSDOF 9
ENDMDL
MODEL 8
REMARK VINA RESULT:      -6.8      4.086      9.624
REMARK  Name = 
REMARK  9 active torsions:
REMARK  status: ('A' for Active; 'I' for Inactive)
REMARK    1  A    between atoms: C_2  and  C_3
REMARK    2  A    between atoms: C_3  and  S_4
REMARK    3  A    between atoms: S_4  and  C_5
REMARK    4  A    between atoms: C_5  and  C_6
REMARK    5  A    between atoms: C_6  and  O_8
REMARK    6  A    between atoms: O_8  and  C_9
REMARK    7  A    between atoms: C_9  and  C_10
REMARK    8  A    between atoms: C_16  and  C_18
REMARK    9  A    between atoms: N_25  and  C_26
REMARK                            x       y       z     vdW  Elec       q    Type
REMARK                         _______ _______ _______ _____ _____    ______ ____
ROOT
ATOM      1  O   UNL     1       3.346   3.255  19.142  0.00  0.00    +0.000 OA
ENDROOT
BRANCH   1   2
ATOM      2  C   UNL     1       2.539   4.142  19.794  0.00  0.00    +0.000 C 
ATOM      3  O   UNL     1       2.463   4.231  21.012  0.00  0.00    +0.000 OA
BRANCH   2   4
ATOM      4  C   UNL     1       1.755   4.956  18.787  0.00  0.00    +0.000 C 
BRANCH   4   5
ATOM      5  S   UNL     1       2.527   6.575  18.467  0.00  0.00    +0.000 S 
BRANCH   5   6
ATOM      6  C   UNL     1       1.941   7.500  19.934  0.00  0.00    +0.000 C 
BRANCH   6   8
ATOM      7  O   UNL     1       1.438   9.256  18.381  0.00  0.00    +0.000 OA
ATOM      8  C   UNL     1       1.425   8.880  19.552  0.00  0.00    +0.000 C 
ATOM      9  N   UNL     1       0.987   9.636  20.632  0.00  0.00    +0.000 N 
ATOM     10  H   UNL     1       1.190   9.296  21.573  0.00  0.00    +0.000 HD
BRANCH   9  11
ATOM     11  C   UNL     1       0.410  10.925  20.551  0.00  0.00    +0.000 A 
ATOM     12  C   UNL     1       1.114  12.106  20.805  0.00  0.00    +0.000 A 
ATOM     13  C   UNL     1       0.469  13.347  20.762  0.00  0.00    +0.000 A 
ATOM     14  C   UNL     1      -0.885  13.413  20.457  0.00  0.00    +0.000 A 
ATOM     15 CL   UNL     1      -1.689  14.933  20.448  0.00  0.00    +0.000 Cl
ATOM     16  C   UNL     1      -1.592  12.248  20.162  0.00  0.00    +0.000 A 
ATOM     17  C   UNL     1      -0.942  11.010  20.197  0.00  0.00    +0.000 A 
ENDBRANCH   9  11
ENDBRANCH   6   8
ENDBRANCH   5   6
ENDBRANCH   4   5
ENDBRANCH   2   4
ENDBRANCH   1   2
BRANCH   1  18
ATOM     18  C   UNL     1       4.723   3.360  19.507  0.00  0.00    +0.000 C 
BRANCH  18  19
ATOM     19  C   UNL     1       5.405   4.628  18.964  0.00  0.00    +0.000 C 
ATOM     20  O   UNL     1       5.841   5.492  19.734  0.00  0.00    +0.000 OA
ATOM     21  N   UNL     1       5.509   4.728  17.581  0.00  0.00    +0.000 N 
ATOM     22  C   UNL     1       6.255   5.839  16.968  0.00  0.00    +0.000 C 
ATOM     23  C   UNL     1       7.216   5.336  15.871  0.00  0.00    +0.000 C 
ATOM     24  N   UNL     1       6.530   4.443  14.927  0.00  0.00    +0.000 N 
ATOM     25  C   UNL     1       6.850   4.510  13.566  0.00  0.00    +0.000 C 
ATOM     26  O   UNL     1       7.762   5.243  13.176  0.00  0.00    +0.000 OA
ATOM     27  C   UNL     1       5.830   3.325  15.570  0.00  0.00    +0.000 C 
ATOM     28  C   UNL     1       4.837   3.846  16.612  0.00  0.00    +0.000 C 
BRANCH  25  29
ATOM     29  C   UNL     1       6.088   3.703  12.625  0.00  0.00    +0.000 A 
ATOM     30  C   UNL     1       4.745   3.744  12.291  0.00  0.00    +0.000 A 
ATOM     31  C   UNL     1       4.529   2.737  11.321  0.00  0.00    +0.000 A 
ATOM     32  C   UNL     1       5.738   2.104  11.154  0.00  0.00    +0.000 A 
ATOM     33  O   UNL     1       6.678   2.659  11.958  0.00  0.00    +0.000 OA
ENDBRANCH  25  29
ENDBRANCH  18  19
ENDBRANCH   1  18
TORSDOF 9
ENDMDL
MODEL 9
REMARK VINA RESULT:      -6.8      4.640     10.888
REMARK  Name = 
REMARK  9 active torsions:
REMARK  status: ('A' for Active; 'I' for Inactive)
REMARK    1  A    between atoms: C_2  and  C_3
REMARK    2  A    between atoms: C_3  and  S_4
REMARK    3  A    between atoms: S_4  and  C_5
REMARK    4  A    between atoms: C_5  and  C_6
REMARK    5  A    between atoms: C_6  and  O_8
REMARK    6  A    between atoms: O_8  and  C_9
REMARK    7  A    between atoms: C_9  and  C_10
REMARK    8  A    between atoms: C_16  and  C_18
REMARK    9  A    between atoms: N_25  and  C_26
REMARK                            x       y       z     vdW  Elec       q    Type
REMARK                         _______ _______ _______ _____ _____    ______ ____
ROOT
ATOM      1  O   UNL     1       0.259  11.184  18.797  0.00  0.00    +0.000 OA
ENDROOT
BRANCH   1   2
ATOM      2  C   UNL     1      -1.105  11.193  18.744  0.00  0.00    +0.000 C 
ATOM      3  O   UNL     1      -1.821  11.653  19.624  0.00  0.00    +0.000 OA
BRANCH   2   4
ATOM      4  C   UNL     1      -1.573  10.533  17.464  0.00  0.00    +0.000 C 
BRANCH   4   5
ATOM      5  S   UNL     1      -3.275   9.897  17.607  0.00  0.00    +0.000 S 
BRANCH   5   6
ATOM      6  C   UNL     1      -4.207  11.350  17.000  0.00  0.00    +0.000 C 
BRANCH   6   8
ATOM      7  O   UNL     1      -6.387  12.039  17.723  0.00  0.00    +0.000 OA
ATOM      8  C   UNL     1      -5.214  11.836  18.032  0.00  0.00    +0.000 C 
ATOM      9  N   UNL     1      -4.673  12.038  19.296  0.00  0.00    +0.000 N 
ATOM     10  H   UNL     1      -3.657  12.012  19.394  0.00  0.00    +0.000 HD
BRANCH   9  11
ATOM     11  C   UNL     1      -5.396  12.430  20.446  0.00  0.00    +0.000 A 
ATOM     12  C   UNL     1      -4.937  13.380  21.364  0.00  0.00    +0.000 A 
ATOM     13  C   UNL     1      -5.677  13.684  22.511  0.00  0.00    +0.000 A 
ATOM     14  C   UNL     1      -6.887  13.041  22.743  0.00  0.00    +0.000 A 
ATOM     15 CL   UNL     1      -7.776  13.379  24.176  0.00  0.00    +0.000 Cl
ATOM     16  C   UNL     1      -7.379  12.121  21.818  0.00  0.00    +0.000 A 
ATOM     17  C   UNL     1      -6.640  11.827  20.667  0.00  0.00    +0.000 A 
ENDBRANCH   9  11
ENDBRANCH   6   8
ENDBRANCH   5   6
ENDBRANCH   4   5
ENDBRANCH   2   4
ENDBRANCH   1   2
BRANCH   1  18
ATOM     18  C   UNL     1       0.837   9.928  18.439  0.00  0.00    +0.000 C 
BRANCH  18  19
ATOM     19  C   UNL     1       1.039   8.984  19.638  0.00  0.00    +0.000 C 
ATOM     20  O   UNL     1       0.381   9.128  20.675  0.00  0.00    +0.000 OA
ATOM     21  N   UNL     1       1.979   7.973  19.474  0.00  0.00    +0.000 N 
ATOM     22  C   UNL     1       2.155   6.944  20.512  0.00  0.00    +0.000 C 
ATOM     23  C   UNL     1       2.191   5.528  19.903  0.00  0.00    +0.000 C 
ATOM     24  N   UNL     1       3.134   5.454  18.778  0.00  0.00    +0.000 N 
ATOM     25  C   UNL     1       3.908   4.299  18.609  0.00  0.00    +0.000 C 
ATOM     26  O   UNL     1       3.734   3.320  19.338  0.00  0.00    +0.000 OA
ATOM     27  C   UNL     1       2.904   6.468  17.744  0.00  0.00    +0.000 C 
ATOM     28  C   UNL     1       2.933   7.871  18.357  0.00  0.00    +0.000 C 
BRANCH  25  29
ATOM     29  C   UNL     1       4.917   4.278  17.561  0.00  0.00    +0.000 A 
ATOM     30  C   UNL     1       4.835   3.859  16.244  0.00  0.00    +0.000 A 
ATOM     31  C   UNL     1       6.111   4.057  15.666  0.00  0.00    +0.000 A 
ATOM     32  C   UNL     1       6.915   4.535  16.673  0.00  0.00    +0.000 A 
ATOM     33  O   UNL     1       6.212   4.644  17.828  0.00  0.00    +0.000 OA
ENDBRANCH  25  29
ENDBRANCH  18  19
ENDBRANCH   1  18
TORSDOF 9
ENDMDL
