MODEL 1
REMARK VINA RESULT:      -7.8      0.000      0.000
REMARK  Name = 
REMARK  6 active torsions:
REMARK  status: ('A' for Active; 'I' for Inactive)
REMARK    1  A    between atoms: C_1  and  C_2
REMARK    2  A    between atoms: C_3  and  C_4
REMARK    3  A    between atoms: N_6  and  C_7
REMARK    4  A    between atoms: C_7  and  C_8
REMARK    5  A    between atoms: N_16  and  C_17
REMARK    6  A    between atoms: C_24  and  C_25
REMARK                            x       y       z     vdW  Elec       q    Type
REMARK                         _______ _______ _______ _____ _____    ______ ____
ROOT
ATOM      1  C   UNL     1       1.392   6.038  19.877  0.00  0.00    +0.000 C 
ATOM      2  C   UNL     1       2.471   6.322  18.885  0.00  0.00    +0.000 A 
ATOM      3  C   UNL     1       2.738   7.588  18.259  0.00  0.00    +0.000 A 
ATOM      4  N   UNL     1       3.880   7.513  17.541  0.00  0.00    +0.000 NA
ATOM      5  N   UNL     1       4.193   6.164  17.501  0.00  0.00    +0.000 N 
ATOM      6  C   UNL     1       3.388   5.408  18.363  0.00  0.00    +0.000 A 
ENDROOT
BRANCH   5   7
ATOM      7  C   UNL     1       5.181   5.687  16.575  0.00  0.00    +0.000 A 
ATOM      8  C   UNL     1       6.545   5.845  16.853  0.00  0.00    +0.000 A 
ATOM      9  C   UNL     1       7.506   5.338  15.963  0.00  0.00    +0.000 A 
ATOM     10  C   UNL     1       7.118   4.699  14.785  0.00  0.00    +0.000 A 
ATOM     11  C   UNL     1       5.764   4.562  14.498  0.00  0.00    +0.000 A 
ATOM     12 BR   UNL     1       5.223   3.701  12.903  0.00  0.00    +0.000 Br
ATOM     13  C   UNL     1       4.797   5.049  15.383  0.00  0.00    +0.000 A 
ENDBRANCH   5   7
BRANCH   6  14
ATOM     14  C   UNL     1       3.500   3.944  18.631  0.00  0.00    +0.000 A 
ATOM     15  C   UNL     1       4.310   3.406  19.644  0.00  0.00    +0.000 A 
ATOM     16  C   UNL     1       4.477   2.022  19.786  0.00  0.00    +0.000 A 
ATOM     17  C   UNL     1       3.776   1.140  18.966  0.00  0.00    +0.000 A 
ATOM     18  C   UNL     1       2.919   1.646  17.999  0.00  0.00    +0.000 A 
ATOM     19  C   UNL     1       2.799   3.030  17.824  0.00  0.00    +0.000 A 
ENDBRANCH   6  14
BRANCH   3  20
ATOM     20  C   UNL     1       1.868   8.812  18.374  0.00  0.00    +0.000 C 
ATOM     21  O   UNL     1       1.585   9.497  17.387  0.00  0.00    +0.000 OA
ATOM     22  N   UNL     1       1.403   9.170  19.625  0.00  0.00    +0.000 N 
ATOM     23  H   UNL     1       1.800   8.611  20.378  0.00  0.00    +0.000 HD
BRANCH  22  24
ATOM     24  C   UNL     1       0.618  10.433  19.994  0.00  0.00    +0.000 C 
ATOM     25  C   UNL     1      -0.852  10.450  19.512  0.00  0.00    +0.000 C 
ATOM     26  C   UNL     1      -1.482  11.785  19.908  0.00  0.00    +0.000 C 
ATOM     27  O   UNL     1      -0.767  12.849  19.281  0.00  0.00    +0.000 OA
ATOM     28  C   UNL     1       0.590  12.949  19.709  0.00  0.00    +0.000 C 
ATOM     29  C   UNL     1       1.351  11.654  19.460  0.00  0.00    +0.000 C 
BRANCH  24  30
ATOM     30  C   UNL     1       0.490  10.319  21.504  0.00  0.00    +0.000 C 
ATOM     31  N   UNL     1       0.384  10.224  22.757  0.00  0.00    +0.000 NA
ENDBRANCH  24  30
ENDBRANCH  22  24
ENDBRANCH   3  20
TORSDOF 5
ENDMDL
MODEL 2
REMARK VINA RESULT:      -7.6      0.888      1.468
REMARK  Name = 
REMARK  6 active torsions:
REMARK  status: ('A' for Active; 'I' for Inactive)
REMARK    1  A    between atoms: C_1  and  C_2
REMARK    2  A    between atoms: C_3  and  C_4
REMARK    3  A    between atoms: N_6  and  C_7
REMARK    4  A    between atoms: C_7  and  C_8
REMARK    5  A    between atoms: N_16  and  C_17
REMARK    6  A    between atoms: C_24  and  C_25
REMARK                            x       y       z     vdW  Elec       q    Type
REMARK                         _______ _______ _______ _____ _____    ______ ____
ROOT
ATOM      1  C   UNL     1       1.486   6.052  19.861  0.00  0.00    +0.000 C 
ATOM      2  C   UNL     1       2.559   6.322  18.859  0.00  0.00    +0.000 A 
ATOM      3  C   UNL     1       2.850   7.590  18.246  0.00  0.00    +0.000 A 
ATOM      4  N   UNL     1       3.981   7.496  17.513  0.00  0.00    +0.000 NA
ATOM      5  N   UNL     1       4.259   6.141  17.451  0.00  0.00    +0.000 N 
ATOM      6  C   UNL     1       3.447   5.393  18.314  0.00  0.00    +0.000 A 
ENDROOT
BRANCH   5   7
ATOM      7  C   UNL     1       5.224   5.652  16.507  0.00  0.00    +0.000 A 
ATOM      8  C   UNL     1       6.595   5.792  16.760  0.00  0.00    +0.000 A 
ATOM      9  C   UNL     1       7.532   5.273  15.851  0.00  0.00    +0.000 A 
ATOM     10  C   UNL     1       7.114   4.641  14.680  0.00  0.00    +0.000 A 
ATOM     11  C   UNL     1       5.753   4.522  14.418  0.00  0.00    +0.000 A 
ATOM     12 BR   UNL     1       5.171   3.670  12.833  0.00  0.00    +0.000 Br
ATOM     13  C   UNL     1       4.809   5.021  15.322  0.00  0.00    +0.000 A 
ENDBRANCH   5   7
BRANCH   6  14
ATOM     14  C   UNL     1       3.525   3.924  18.561  0.00  0.00    +0.000 A 
ATOM     15  C   UNL     1       4.350   3.351  19.542  0.00  0.00    +0.000 A 
ATOM     16  C   UNL     1       4.482   1.961  19.663  0.00  0.00    +0.000 A 
ATOM     17  C   UNL     1       3.733   1.109  18.855  0.00  0.00    +0.000 A 
ATOM     18  C   UNL     1       2.861   1.651  17.920  0.00  0.00    +0.000 A 
ATOM     19  C   UNL     1       2.775   3.039  17.765  0.00  0.00    +0.000 A 
ENDBRANCH   6  14
BRANCH   3  20
ATOM     20  C   UNL     1       2.012   8.834  18.389  0.00  0.00    +0.000 C 
ATOM     21  O   UNL     1       1.893   9.641  17.462  0.00  0.00    +0.000 OA
ATOM     22  N   UNL     1       1.387   9.067  19.599  0.00  0.00    +0.000 N 
ATOM     23  H   UNL     1       1.655   8.407  20.326  0.00  0.00    +0.000 HD
BRANCH  22  24
ATOM     24  C   UNL     1       0.598  10.316  20.007  0.00  0.00    +0.000 C 
ATOM     25  C   UNL     1       1.296  11.659  19.687  0.00  0.00    +0.000 C 
ATOM     26  C   UNL     1       0.417  12.801  20.197  0.00  0.00    +0.000 C 
ATOM     27  O   UNL     1       0.253  12.678  21.609  0.00  0.00    +0.000 OA
ATOM     28  C   UNL     1      -0.436  11.491  21.997  0.00  0.00    +0.000 C 
ATOM     29  C   UNL     1       0.272  10.242  21.491  0.00  0.00    +0.000 C 
BRANCH  24  30
ATOM     30  C   UNL     1      -0.580  10.297  19.046  0.00  0.00    +0.000 C 
ATOM     31  N   UNL     1      -1.558  10.282  18.250  0.00  0.00    +0.000 NA
ENDBRANCH  24  30
ENDBRANCH  22  24
ENDBRANCH   3  20
TORSDOF 5
ENDMDL
MODEL 3
REMARK VINA RESULT:      -7.5      0.858      1.398
REMARK  Name = 
REMARK  6 active torsions:
REMARK  status: ('A' for Active; 'I' for Inactive)
REMARK    1  A    between atoms: C_1  and  C_2
REMARK    2  A    between atoms: C_3  and  C_4
REMARK    3  A    between atoms: N_6  and  C_7
REMARK    4  A    between atoms: C_7  and  C_8
REMARK    5  A    between atoms: N_16  and  C_17
REMARK    6  A    between atoms: C_24  and  C_25
REMARK                            x       y       z     vdW  Elec       q    Type
REMARK                         _______ _______ _______ _____ _____    ______ ____
ROOT
ATOM      1  C   UNL     1       1.360   6.145  19.785  0.00  0.00    +0.000 C 
ATOM      2  C   UNL     1       2.462   6.408  18.813  0.00  0.00    +0.000 A 
ATOM      3  C   UNL     1       2.753   7.664  18.176  0.00  0.00    +0.000 A 
ATOM      4  N   UNL     1       3.910   7.571  17.485  0.00  0.00    +0.000 NA
ATOM      5  N   UNL     1       4.214   6.221  17.470  0.00  0.00    +0.000 N 
ATOM      6  C   UNL     1       3.385   5.481  18.324  0.00  0.00    +0.000 A 
ENDROOT
BRANCH   5   7
ATOM      7  C   UNL     1       5.219   5.724  16.573  0.00  0.00    +0.000 A 
ATOM      8  C   UNL     1       6.578   5.868  16.884  0.00  0.00    +0.000 A 
ATOM      9  C   UNL     1       7.554   5.342  16.021  0.00  0.00    +0.000 A 
ATOM     10  C   UNL     1       7.187   4.698  14.839  0.00  0.00    +0.000 A 
ATOM     11  C   UNL     1       5.839   4.575  14.520  0.00  0.00    +0.000 A 
ATOM     12 BR   UNL     1       5.327   3.707  12.919  0.00  0.00    +0.000 Br
ATOM     13  C   UNL     1       4.857   5.081  15.377  0.00  0.00    +0.000 A 
ENDBRANCH   5   7
BRANCH   6  14
ATOM     14  C   UNL     1       3.480   4.021  18.614  0.00  0.00    +0.000 A 
ATOM     15  C   UNL     1       4.295   3.487  19.625  0.00  0.00    +0.000 A 
ATOM     16  C   UNL     1       4.445   2.103  19.786  0.00  0.00    +0.000 A 
ATOM     17  C   UNL     1       3.721   1.218  18.990  0.00  0.00    +0.000 A 
ATOM     18  C   UNL     1       2.859   1.722  18.025  0.00  0.00    +0.000 A 
ATOM     19  C   UNL     1       2.756   3.103  17.830  0.00  0.00    +0.000 A 
ENDBRANCH   6  14
BRANCH   3  20
ATOM     20  C   UNL     1       1.890   8.896  18.256  0.00  0.00    +0.000 C 
ATOM     21  O   UNL     1       1.660   9.588  17.260  0.00  0.00    +0.000 OA
ATOM     22  N   UNL     1       1.368   9.252  19.485  0.00  0.00    +0.000 N 
ATOM     23  H   UNL     1       1.723   8.686  20.254  0.00  0.00    +0.000 HD
BRANCH  22  24
ATOM     24  C   UNL     1       0.578  10.521  19.822  0.00  0.00    +0.000 C 
ATOM     25  C   UNL     1       0.459  10.831  21.333  0.00  0.00    +0.000 C 
ATOM     26  C   UNL     1      -0.394  12.087  21.509  0.00  0.00    +0.000 C 
ATOM     27  O   UNL     1      -1.695  11.855  20.971  0.00  0.00    +0.000 OA
ATOM     28  C   UNL     1      -1.692  11.615  19.565  0.00  0.00    +0.000 C 
ATOM     29  C   UNL     1      -0.809  10.429  19.202  0.00  0.00    +0.000 C 
BRANCH  24  30
ATOM     30  C   UNL     1       1.484  11.627  19.308  0.00  0.00    +0.000 C 
ATOM     31  N   UNL     1       2.236  12.545  18.881  0.00  0.00    +0.000 NA
ENDBRANCH  24  30
ENDBRANCH  22  24
ENDBRANCH   3  20
TORSDOF 5
ENDMDL
MODEL 4
REMARK VINA RESULT:      -7.1      1.184      1.404
REMARK  Name = 
REMARK  6 active torsions:
REMARK  status: ('A' for Active; 'I' for Inactive)
REMARK    1  A    between atoms: C_1  and  C_2
REMARK    2  A    between atoms: C_3  and  C_4
REMARK    3  A    between atoms: N_6  and  C_7
REMARK    4  A    between atoms: C_7  and  C_8
REMARK    5  A    between atoms: N_16  and  C_17
REMARK    6  A    between atoms: C_24  and  C_25
REMARK                            x       y       z     vdW  Elec       q    Type
REMARK                         _______ _______ _______ _____ _____    ______ ____
ROOT
ATOM      1  C   UNL     1       1.181   6.702  20.502  0.00  0.00    +0.000 C 
ATOM      2  C   UNL     1       2.310   6.777  19.529  0.00  0.00    +0.000 A 
ATOM      3  C   UNL     1       2.585   7.861  18.626  0.00  0.00    +0.000 A 
ATOM      4  N   UNL     1       3.770   7.657  18.010  0.00  0.00    +0.000 NA
ATOM      5  N   UNL     1       4.117   6.352  18.319  0.00  0.00    +0.000 N 
ATOM      6  C   UNL     1       3.280   5.799  19.297  0.00  0.00    +0.000 A 
ENDROOT
BRANCH   5   7
ATOM      7  C   UNL     1       5.171   5.702  17.593  0.00  0.00    +0.000 A 
ATOM      8  C   UNL     1       6.430   5.524  18.182  0.00  0.00    +0.000 A 
ATOM      9  C   UNL     1       7.443   4.849  17.481  0.00  0.00    +0.000 A 
ATOM     10  C   UNL     1       7.219   4.375  16.188  0.00  0.00    +0.000 A 
ATOM     11  C   UNL     1       5.976   4.572  15.594  0.00  0.00    +0.000 A 
ATOM     12 BR   UNL     1       5.660   3.938  13.841  0.00  0.00    +0.000 Br
ATOM     13  C   UNL     1       4.955   5.229  16.287  0.00  0.00    +0.000 A 
ENDBRANCH   5   7
BRANCH   6  14
ATOM     14  C   UNL     1       3.410   4.450  19.922  0.00  0.00    +0.000 A 
ATOM     15  C   UNL     1       4.345   3.492  19.498  0.00  0.00    +0.000 A 
ATOM     16  C   UNL     1       4.356   2.197  20.033  0.00  0.00    +0.000 A 
ATOM     17  C   UNL     1       3.482   1.852  21.062  0.00  0.00    +0.000 A 
ATOM     18  C   UNL     1       2.591   2.802  21.544  0.00  0.00    +0.000 A 
ATOM     19  C   UNL     1       2.546   4.076  20.967  0.00  0.00    +0.000 A 
ENDBRANCH   6  14
BRANCH   3  20
ATOM     20  C   UNL     1       1.680   9.042  18.391  0.00  0.00    +0.000 C 
ATOM     21  O   UNL     1       1.242   9.305  17.267  0.00  0.00    +0.000 OA
ATOM     22  N   UNL     1       1.362   9.849  19.467  0.00  0.00    +0.000 N 
ATOM     23  H   UNL     1       1.878   9.614  20.313  0.00  0.00    +0.000 HD
BRANCH  22  24
ATOM     24  C   UNL     1       0.572  11.161  19.437  0.00  0.00    +0.000 C 
ATOM     25  C   UNL     1      -0.828  11.064  18.786  0.00  0.00    +0.000 C 
ATOM     26  C   UNL     1      -1.465  12.453  18.786  0.00  0.00    +0.000 C 
ATOM     27  O   UNL     1      -0.652  13.346  18.026  0.00  0.00    +0.000 OA
ATOM     28  C   UNL     1       0.646  13.545  18.585  0.00  0.00    +0.000 C 
ATOM     29  C   UNL     1       1.397  12.229  18.735  0.00  0.00    +0.000 C 
BRANCH  24  30
ATOM     30  C   UNL     1       0.259  11.396  20.906  0.00  0.00    +0.000 C 
ATOM     31  N   UNL     1      -0.002  11.592  22.125  0.00  0.00    +0.000 NA
ENDBRANCH  24  30
ENDBRANCH  22  24
ENDBRANCH   3  20
TORSDOF 5
ENDMDL
MODEL 5
REMARK VINA RESULT:      -6.9      3.254      8.977
REMARK  Name = 
REMARK  6 active torsions:
REMARK  status: ('A' for Active; 'I' for Inactive)
REMARK    1  A    between atoms: C_1  and  C_2
REMARK    2  A    between atoms: C_3  and  C_4
REMARK    3  A    between atoms: N_6  and  C_7
REMARK    4  A    between atoms: C_7  and  C_8
REMARK    5  A    between atoms: N_16  and  C_17
REMARK    6  A    between atoms: C_24  and  C_25
REMARK                            x       y       z     vdW  Elec       q    Type
REMARK                         _______ _______ _______ _____ _____    ______ ____
ROOT
ATOM      1  C   UNL     1      -0.611   8.596  21.601  0.00  0.00    +0.000 C 
ATOM      2  C   UNL     1       0.107   9.528  20.682  0.00  0.00    +0.000 A 
ATOM      3  C   UNL     1       1.156   9.176  19.764  0.00  0.00    +0.000 A 
ATOM      4  N   UNL     1       1.459  10.238  18.985  0.00  0.00    +0.000 NA
ATOM      5  N   UNL     1       0.802  11.310  19.564  0.00  0.00    +0.000 N 
ATOM      6  C   UNL     1      -0.087  10.906  20.570  0.00  0.00    +0.000 A 
ENDROOT
BRANCH   5   7
ATOM      7  C   UNL     1       1.136  12.650  19.172  0.00  0.00    +0.000 A 
ATOM      8  C   UNL     1       0.139  13.630  19.081  0.00  0.00    +0.000 A 
ATOM      9  C   UNL     1       0.480  14.948  18.738  0.00  0.00    +0.000 A 
ATOM     10  C   UNL     1       1.803  15.291  18.458  0.00  0.00    +0.000 A 
ATOM     11  C   UNL     1       2.791  14.313  18.526  0.00  0.00    +0.000 A 
ATOM     12 BR   UNL     1       4.587  14.763  18.145  0.00  0.00    +0.000 Br
ATOM     13  C   UNL     1       2.466  13.000  18.881  0.00  0.00    +0.000 A 
ENDBRANCH   5   7
BRANCH   6  14
ATOM     14  C   UNL     1      -1.012  11.783  21.346  0.00  0.00    +0.000 A 
ATOM     15  C   UNL     1      -2.326  12.066  20.940  0.00  0.00    +0.000 A 
ATOM     16  C   UNL     1      -3.121  12.986  21.636  0.00  0.00    +0.000 A 
ATOM     17  C   UNL     1      -2.648  13.589  22.800  0.00  0.00    +0.000 A 
ATOM     18  C   UNL     1      -1.375  13.276  23.258  0.00  0.00    +0.000 A 
ATOM     19  C   UNL     1      -0.564  12.399  22.528  0.00  0.00    +0.000 A 
ENDBRANCH   6  14
BRANCH   3  20
ATOM     20  C   UNL     1       1.828   7.830  19.691  0.00  0.00    +0.000 C 
ATOM     21  O   UNL     1       1.838   7.061  20.657  0.00  0.00    +0.000 OA
ATOM     22  N   UNL     1       2.458   7.475  18.514  0.00  0.00    +0.000 N 
ATOM     23  H   UNL     1       2.497   8.231  17.832  0.00  0.00    +0.000 HD
BRANCH  22  24
ATOM     24  C   UNL     1       3.305   6.223  18.259  0.00  0.00    +0.000 C 
ATOM     25  C   UNL     1       3.994   5.637  19.513  0.00  0.00    +0.000 C 
ATOM     26  C   UNL     1       4.837   4.434  19.091  0.00  0.00    +0.000 C 
ATOM     27  O   UNL     1       5.831   4.856  18.159  0.00  0.00    +0.000 OA
ATOM     28  C   UNL     1       5.287   5.360  16.940  0.00  0.00    +0.000 C 
ATOM     29  C   UNL     1       4.344   6.529  17.191  0.00  0.00    +0.000 C 
BRANCH  24  30
ATOM     30  C   UNL     1       2.259   5.176  17.913  0.00  0.00    +0.000 C 
ATOM     31  N   UNL     1       1.391   4.306  17.627  0.00  0.00    +0.000 NA
ENDBRANCH  24  30
ENDBRANCH  22  24
ENDBRANCH   3  20
TORSDOF 5
ENDMDL
MODEL 6
REMARK VINA RESULT:      -6.9      1.419      1.831
REMARK  Name = 
REMARK  6 active torsions:
REMARK  status: ('A' for Active; 'I' for Inactive)
REMARK    1  A    between atoms: C_1  and  C_2
REMARK    2  A    between atoms: C_3  and  C_4
REMARK    3  A    between atoms: N_6  and  C_7
REMARK    4  A    between atoms: C_7  and  C_8
REMARK    5  A    between atoms: N_16  and  C_17
REMARK    6  A    between atoms: C_24  and  C_25
REMARK                            x       y       z     vdW  Elec       q    Type
REMARK                         _______ _______ _______ _____ _____    ______ ____
ROOT
ATOM      1  C   UNL     1       1.066   5.475  20.551  0.00  0.00    +0.000 C 
ATOM      2  C   UNL     1       2.173   6.019  19.711  0.00  0.00    +0.000 A 
ATOM      3  C   UNL     1       2.398   7.403  19.393  0.00  0.00    +0.000 A 
ATOM      4  N   UNL     1       3.576   7.540  18.745  0.00  0.00    +0.000 NA
ATOM      5  N   UNL     1       3.967   6.249  18.431  0.00  0.00    +0.000 N 
ATOM      6  C   UNL     1       3.166   5.285  19.059  0.00  0.00    +0.000 A 
ENDROOT
BRANCH   5   7
ATOM      7  C   UNL     1       5.025   6.032  17.485  0.00  0.00    +0.000 A 
ATOM      8  C   UNL     1       6.300   6.566  17.715  0.00  0.00    +0.000 A 
ATOM      9  C   UNL     1       7.340   6.315  16.805  0.00  0.00    +0.000 A 
ATOM     10  C   UNL     1       7.112   5.558  15.655  0.00  0.00    +0.000 A 
ATOM     11  C   UNL     1       5.841   5.047  15.415  0.00  0.00    +0.000 A 
ATOM     12 BR   UNL     1       5.517   4.023  13.859  0.00  0.00    +0.000 Br
ATOM     13  C   UNL     1       4.800   5.278  16.320  0.00  0.00    +0.000 A 
ENDBRANCH   5   7
BRANCH   6  14
ATOM     14  C   UNL     1       3.348   3.805  19.007  0.00  0.00    +0.000 A 
ATOM     15  C   UNL     1       4.271   3.114  19.809  0.00  0.00    +0.000 A 
ATOM     16  C   UNL     1       4.493   1.740  19.647  0.00  0.00    +0.000 A 
ATOM     17  C   UNL     1       3.741   1.008  18.730  0.00  0.00    +0.000 A 
ATOM     18  C   UNL     1       2.776   1.657  17.970  0.00  0.00    +0.000 A 
ATOM     19  C   UNL     1       2.598   3.039  18.096  0.00  0.00    +0.000 A 
ENDBRANCH   6  14
BRANCH   3  20
ATOM     20  C   UNL     1       1.455   8.531  19.719  0.00  0.00    +0.000 C 
ATOM     21  O   UNL     1       0.975   8.663  20.849  0.00  0.00    +0.000 OA
ATOM     22  N   UNL     1       1.116   9.415  18.713  0.00  0.00    +0.000 N 
ATOM     23  H   UNL     1       1.467   9.138  17.798  0.00  0.00    +0.000 HD
BRANCH  22  24
ATOM     24  C   UNL     1       0.087  10.548  18.784  0.00  0.00    +0.000 C 
ATOM     25  C   UNL     1      -0.554  10.759  20.176  0.00  0.00    +0.000 C 
ATOM     26  C   UNL     1      -1.588  11.880  20.073  0.00  0.00    +0.000 C 
ATOM     27  O   UNL     1      -2.600  11.506  19.139  0.00  0.00    +0.000 OA
ATOM     28  C   UNL     1      -2.110  11.344  17.809  0.00  0.00    +0.000 C 
ATOM     29  C   UNL     1      -0.998  10.307  17.745  0.00  0.00    +0.000 C 
BRANCH  24  30
ATOM     30  C   UNL     1       0.943  11.790  18.601  0.00  0.00    +0.000 C 
ATOM     31  N   UNL     1       1.655  12.821  18.449  0.00  0.00    +0.000 NA
ENDBRANCH  24  30
ENDBRANCH  22  24
ENDBRANCH   3  20
TORSDOF 5
ENDMDL
MODEL 7
REMARK VINA RESULT:      -6.9      3.543      9.030
REMARK  Name = 
REMARK  6 active torsions:
REMARK  status: ('A' for Active; 'I' for Inactive)
REMARK    1  A    between atoms: C_1  and  C_2
REMARK    2  A    between atoms: C_3  and  C_4
REMARK    3  A    between atoms: N_6  and  C_7
REMARK    4  A    between atoms: C_7  and  C_8
REMARK    5  A    between atoms: N_16  and  C_17
REMARK    6  A    between atoms: C_24  and  C_25
REMARK                            x       y       z     vdW  Elec       q    Type
REMARK                         _______ _______ _______ _____ _____    ______ ____
ROOT
ATOM      1  C   UNL     1      -0.759   8.341  21.434  0.00  0.00    +0.000 C 
ATOM      2  C   UNL     1       0.085   9.339  20.714  0.00  0.00    +0.000 A 
ATOM      3  C   UNL     1       1.239   9.053  19.905  0.00  0.00    +0.000 A 
ATOM      4  N   UNL     1       1.656  10.178  19.285  0.00  0.00    +0.000 NA
ATOM      5  N   UNL     1       0.946  11.205  19.885  0.00  0.00    +0.000 N 
ATOM      6  C   UNL     1      -0.072  10.727  20.722  0.00  0.00    +0.000 A 
ENDROOT
BRANCH   5   7
ATOM      7  C   UNL     1       1.348  12.567  19.679  0.00  0.00    +0.000 A 
ATOM      8  C   UNL     1       0.773  13.327  18.652  0.00  0.00    +0.000 A 
ATOM      9  C   UNL     1       1.141  14.672  18.484  0.00  0.00    +0.000 A 
ATOM     10  C   UNL     1       2.098  15.257  19.314  0.00  0.00    +0.000 A 
ATOM     11  C   UNL     1       2.686  14.496  20.320  0.00  0.00    +0.000 A 
ATOM     12 BR   UNL     1       3.986  15.275  21.450  0.00  0.00    +0.000 Br
ATOM     13  C   UNL     1       2.317  13.160  20.507  0.00  0.00    +0.000 A 
ENDBRANCH   5   7
BRANCH   6  14
ATOM     14  C   UNL     1      -1.075  11.547  21.461  0.00  0.00    +0.000 A 
ATOM     15  C   UNL     1      -1.092  11.666  22.861  0.00  0.00    +0.000 A 
ATOM     16  C   UNL     1      -2.121  12.350  23.522  0.00  0.00    +0.000 A 
ATOM     17  C   UNL     1      -3.117  12.998  22.794  0.00  0.00    +0.000 A 
ATOM     18  C   UNL     1      -3.087  12.950  21.407  0.00  0.00    +0.000 A 
ATOM     19  C   UNL     1      -2.089  12.217  20.754  0.00  0.00    +0.000 A 
ENDBRANCH   6  14
BRANCH   3  20
ATOM     20  C   UNL     1       1.894   7.702  19.779  0.00  0.00    +0.000 C 
ATOM     21  O   UNL     1       1.907   6.901  20.719  0.00  0.00    +0.000 OA
ATOM     22  N   UNL     1       2.504   7.379  18.582  0.00  0.00    +0.000 N 
ATOM     23  H   UNL     1       2.543   8.157  17.926  0.00  0.00    +0.000 HD
BRANCH  22  24
ATOM     24  C   UNL     1       3.333   6.127  18.275  0.00  0.00    +0.000 C 
ATOM     25  C   UNL     1       4.030   5.491  19.500  0.00  0.00    +0.000 C 
ATOM     26  C   UNL     1       4.854   4.293  19.028  0.00  0.00    +0.000 C 
ATOM     27  O   UNL     1       5.842   4.735  18.098  0.00  0.00    +0.000 OA
ATOM     28  C   UNL     1       5.290   5.287  16.904  0.00  0.00    +0.000 C 
ATOM     29  C   UNL     1       4.364   6.457  17.206  0.00  0.00    +0.000 C 
BRANCH  24  30
ATOM     30  C   UNL     1       2.271   5.104  17.907  0.00  0.00    +0.000 C 
ATOM     31  N   UNL     1       1.390   4.255  17.601  0.00  0.00    +0.000 NA
ENDBRANCH  24  30
ENDBRANCH  22  24
ENDBRANCH   3  20
TORSDOF 5
ENDMDL
MODEL 8
REMARK VINA RESULT:      -6.9      3.636      9.063
REMARK  Name = 
REMARK  6 active torsions:
REMARK  status: ('A' for Active; 'I' for Inactive)
REMARK    1  A    between atoms: C_1  and  C_2
REMARK    2  A    between atoms: C_3  and  C_4
REMARK    3  A    between atoms: N_6  and  C_7
REMARK    4  A    between atoms: C_7  and  C_8
REMARK    5  A    between atoms: N_16  and  C_17
REMARK    6  A    between atoms: C_24  and  C_25
REMARK                            x       y       z     vdW  Elec       q    Type
REMARK                         _______ _______ _______ _____ _____    ______ ____
ROOT
ATOM      1  C   UNL     1      -0.626   8.591  21.470  0.00  0.00    +0.000 C 
ATOM      2  C   UNL     1       0.145   9.505  20.577  0.00  0.00    +0.000 A 
ATOM      3  C   UNL     1       1.217   9.130  19.695  0.00  0.00    +0.000 A 
ATOM      4  N   UNL     1       1.572  10.184  18.930  0.00  0.00    +0.000 NA
ATOM      5  N   UNL     1       0.921  11.271  19.488  0.00  0.00    +0.000 N 
ATOM      6  C   UNL     1      -0.011  10.888  20.462  0.00  0.00    +0.000 A 
ENDROOT
BRANCH   5   7
ATOM      7  C   UNL     1       1.301  12.603  19.111  0.00  0.00    +0.000 A 
ATOM      8  C   UNL     1       2.583  12.858  18.607  0.00  0.00    +0.000 A 
ATOM      9  C   UNL     1       2.933  14.156  18.201  0.00  0.00    +0.000 A 
ATOM     10  C   UNL     1       2.024  15.207  18.319  0.00  0.00    +0.000 A 
ATOM     11  C   UNL     1       0.758  14.960  18.840  0.00  0.00    +0.000 A 
ATOM     12 BR   UNL     1      -0.483  16.376  19.009  0.00  0.00    +0.000 Br
ATOM     13  C   UNL     1       0.393  13.669  19.234  0.00  0.00    +0.000 A 
ENDBRANCH   5   7
BRANCH   6  14
ATOM     14  C   UNL     1      -0.941  11.786  21.207  0.00  0.00    +0.000 A 
ATOM     15  C   UNL     1      -2.183  12.201  20.701  0.00  0.00    +0.000 A 
ATOM     16  C   UNL     1      -2.973  13.137  21.382  0.00  0.00    +0.000 A 
ATOM     17  C   UNL     1      -2.574  13.623  22.625  0.00  0.00    +0.000 A 
ATOM     18  C   UNL     1      -1.381  13.179  23.178  0.00  0.00    +0.000 A 
ATOM     19  C   UNL     1      -0.569  12.287  22.468  0.00  0.00    +0.000 A 
ENDBRANCH   6  14
BRANCH   3  20
ATOM     20  C   UNL     1       1.857   7.767  19.643  0.00  0.00    +0.000 C 
ATOM     21  O   UNL     1       1.836   7.007  20.615  0.00  0.00    +0.000 OA
ATOM     22  N   UNL     1       2.495   7.387  18.478  0.00  0.00    +0.000 N 
ATOM     23  H   UNL     1       2.561   8.137  17.791  0.00  0.00    +0.000 HD
BRANCH  22  24
ATOM     24  C   UNL     1       3.316   6.115  18.244  0.00  0.00    +0.000 C 
ATOM     25  C   UNL     1       3.972   5.522  19.514  0.00  0.00    +0.000 C 
ATOM     26  C   UNL     1       4.792   4.296  19.114  0.00  0.00    +0.000 C 
ATOM     27  O   UNL     1       5.810   4.687  18.193  0.00  0.00    +0.000 OA
ATOM     28  C   UNL     1       5.297   5.195  16.963  0.00  0.00    +0.000 C 
ATOM     29  C   UNL     1       4.378   6.388  17.191  0.00  0.00    +0.000 C 
BRANCH  24  30
ATOM     30  C   UNL     1       2.251   5.090  17.891  0.00  0.00    +0.000 C 
ATOM     31  N   UNL     1       1.367   4.239  17.598  0.00  0.00    +0.000 NA
ENDBRANCH  24  30
ENDBRANCH  22  24
ENDBRANCH   3  20
TORSDOF 5
ENDMDL
MODEL 9
REMARK VINA RESULT:      -6.9      1.367      1.846
REMARK  Name = 
REMARK  6 active torsions:
REMARK  status: ('A' for Active; 'I' for Inactive)
REMARK    1  A    between atoms: C_1  and  C_2
REMARK    2  A    between atoms: C_3  and  C_4
REMARK    3  A    between atoms: N_6  and  C_7
REMARK    4  A    between atoms: C_7  and  C_8
REMARK    5  A    between atoms: N_16  and  C_17
REMARK    6  A    between atoms: C_24  and  C_25
REMARK                            x       y       z     vdW  Elec       q    Type
REMARK                         _______ _______ _______ _____ _____    ______ ____
ROOT
ATOM      1  C   UNL     1       1.142   6.805  20.411  0.00  0.00    +0.000 C 
ATOM      2  C   UNL     1       2.292   6.847  19.461  0.00  0.00    +0.000 A 
ATOM      3  C   UNL     1       2.624   7.930  18.575  0.00  0.00    +0.000 A 
ATOM      4  N   UNL     1       3.813   7.688  17.980  0.00  0.00    +0.000 NA
ATOM      5  N   UNL     1       4.105   6.368  18.282  0.00  0.00    +0.000 N 
ATOM      6  C   UNL     1       3.229   5.837  19.238  0.00  0.00    +0.000 A 
ENDROOT
BRANCH   5   7
ATOM      7  C   UNL     1       5.149   5.686  17.570  0.00  0.00    +0.000 A 
ATOM      8  C   UNL     1       6.393   5.469  18.175  0.00  0.00    +0.000 A 
ATOM      9  C   UNL     1       7.395   4.764  17.487  0.00  0.00    +0.000 A 
ATOM     10  C   UNL     1       7.174   4.298  16.191  0.00  0.00    +0.000 A 
ATOM     11  C   UNL     1       5.946   4.533  15.581  0.00  0.00    +0.000 A 
ATOM     12 BR   UNL     1       5.635   3.910  13.823  0.00  0.00    +0.000 Br
ATOM     13  C   UNL     1       4.936   5.221  16.261  0.00  0.00    +0.000 A 
ENDBRANCH   5   7
BRANCH   6  14
ATOM     14  C   UNL     1       3.298   4.478  19.851  0.00  0.00    +0.000 A 
ATOM     15  C   UNL     1       2.450   4.057  20.888  0.00  0.00    +0.000 A 
ATOM     16  C   UNL     1       2.624   2.816  21.514  0.00  0.00    +0.000 A 
ATOM     17  C   UNL     1       3.603   1.932  21.066  0.00  0.00    +0.000 A 
ATOM     18  C   UNL     1       4.412   2.298  19.999  0.00  0.00    +0.000 A 
ATOM     19  C   UNL     1       4.271   3.562  19.414  0.00  0.00    +0.000 A 
ENDBRANCH   6  14
BRANCH   3  20
ATOM     20  C   UNL     1       1.769   9.146  18.335  0.00  0.00    +0.000 C 
ATOM     21  O   UNL     1       1.874   9.815  17.303  0.00  0.00    +0.000 OA
ATOM     22  N   UNL     1       0.864   9.515  19.313  0.00  0.00    +0.000 N 
ATOM     23  H   UNL     1       0.952   8.970  20.169  0.00  0.00    +0.000 HD
BRANCH  22  24
ATOM     24  C   UNL     1      -0.008  10.774  19.338  0.00  0.00    +0.000 C 
ATOM     25  C   UNL     1      -0.690  11.065  20.696  0.00  0.00    +0.000 C 
ATOM     26  C   UNL     1      -1.560  12.313  20.549  0.00  0.00    +0.000 C 
ATOM     27  O   UNL     1      -2.560  12.079  19.558  0.00  0.00    +0.000 OA
ATOM     28  C   UNL     1      -2.025  11.856  18.255  0.00  0.00    +0.000 C 
ATOM     29  C   UNL     1      -1.057  10.681  18.241  0.00  0.00    +0.000 C 
BRANCH  24  30
ATOM     30  C   UNL     1       1.014  11.892  19.214  0.00  0.00    +0.000 C 
ATOM     31  N   UNL     1       1.861  12.820  19.110  0.00  0.00    +0.000 NA
ENDBRANCH  24  30
ENDBRANCH  22  24
ENDBRANCH   3  20
TORSDOF 5
ENDMDL
