MODEL 1
REMARK VINA RESULT:      -7.1      0.000      0.000
REMARK  Name = 
REMARK  2 active torsions:
REMARK  status: ('A' for Active; 'I' for Inactive)
REMARK    1  A    between atoms: C_1  and  N_2
REMARK    2  A    between atoms: N_4  and  C_5
REMARK                            x       y       z     vdW  Elec       q    Type
REMARK                         _______ _______ _______ _____ _____    ______ ____
ROOT
ATOM      1  C   UNL     1       1.780   7.642  20.301  0.00  0.00    +0.000 C 
ATOM      2  N   UNL     1       2.237   6.270  20.065  0.00  0.00    +0.000 N 
ATOM      3  N   UNL     1       1.864   5.316  20.907  0.00  0.00    +0.000 NA
ATOM      4  N   UNL     1       2.454   4.248  20.391  0.00  0.00    +0.000 N 
ATOM      5  C   UNL     1       2.289   2.957  21.047  0.00  0.00    +0.000 C 
ATOM      6  C   UNL     1       3.202   4.503  19.243  0.00  0.00    +0.000 A 
ATOM      7  C   UNL     1       3.080   5.848  19.041  0.00  0.00    +0.000 A 
ATOM      8  C   UNL     1       3.674   6.567  17.969  0.00  0.00    +0.000 C 
ATOM      9  O   UNL     1       3.584   7.764  17.717  0.00  0.00    +0.000 OA
ATOM     10  C   UNL     1       4.458   5.683  17.042  0.00  0.00    +0.000 A 
ATOM     11  C   UNL     1       5.083   6.265  15.930  0.00  0.00    +0.000 A 
ATOM     12  C   UNL     1       5.772   5.470  15.015  0.00  0.00    +0.000 A 
ATOM     13  C   UNL     1       5.846   4.090  15.195  0.00  0.00    +0.000 A 
ATOM     14  C   UNL     1       5.246   3.499  16.305  0.00  0.00    +0.000 A 
ATOM     15  C   UNL     1       4.555   4.289  17.237  0.00  0.00    +0.000 A 
ATOM     16  C   UNL     1       3.915   3.606  18.409  0.00  0.00    +0.000 C 
ATOM     17  O   UNL     1       4.036   2.393  18.542  0.00  0.00    +0.000 OA
ENDROOT
TORSDOF 0
ENDMDL
MODEL 2
REMARK VINA RESULT:      -7.1      0.215      3.058
REMARK  Name = 
REMARK  2 active torsions:
REMARK  status: ('A' for Active; 'I' for Inactive)
REMARK    1  A    between atoms: C_1  and  N_2
REMARK    2  A    between atoms: N_4  and  C_5
REMARK                            x       y       z     vdW  Elec       q    Type
REMARK                         _______ _______ _______ _____ _____    ______ ____
ROOT
ATOM      1  C   UNL     1       1.935   2.913  20.861  0.00  0.00    +0.000 C 
ATOM      2  N   UNL     1       2.212   4.218  20.256  0.00  0.00    +0.000 N 
ATOM      3  N   UNL     1       1.699   5.305  20.813  0.00  0.00    +0.000 NA
ATOM      4  N   UNL     1       2.146   6.261  20.012  0.00  0.00    +0.000 N 
ATOM      5  C   UNL     1       1.787   7.647  20.289  0.00  0.00    +0.000 C 
ATOM      6  C   UNL     1       2.926   5.805  18.952  0.00  0.00    +0.000 A 
ATOM      7  C   UNL     1       2.949   4.448  19.097  0.00  0.00    +0.000 A 
ATOM      8  C   UNL     1       3.640   3.549  18.240  0.00  0.00    +0.000 C 
ATOM      9  O   UNL     1       3.721   2.328  18.328  0.00  0.00    +0.000 OA
ATOM     10  C   UNL     1       4.377   4.251  17.136  0.00  0.00    +0.000 A 
ATOM     11  C   UNL     1       5.114   3.480  16.226  0.00  0.00    +0.000 A 
ATOM     12  C   UNL     1       5.858   4.099  15.222  0.00  0.00    +0.000 A 
ATOM     13  C   UNL     1       5.877   5.488  15.112  0.00  0.00    +0.000 A 
ATOM     14  C   UNL     1       5.133   6.267  15.997  0.00  0.00    +0.000 A 
ATOM     15  C   UNL     1       4.376   5.657  17.008  0.00  0.00    +0.000 A 
ATOM     16  C   UNL     1       3.602   6.537  17.944  0.00  0.00    +0.000 C 
ATOM     17  O   UNL     1       3.624   7.753  17.787  0.00  0.00    +0.000 OA
ENDROOT
TORSDOF 0
ENDMDL
MODEL 3
REMARK VINA RESULT:      -6.4      2.055      4.684
REMARK  Name = 
REMARK  2 active torsions:
REMARK  status: ('A' for Active; 'I' for Inactive)
REMARK    1  A    between atoms: C_1  and  N_2
REMARK    2  A    between atoms: N_4  and  C_5
REMARK                            x       y       z     vdW  Elec       q    Type
REMARK                         _______ _______ _______ _____ _____    ______ ____
ROOT
ATOM      1  C   UNL     1       3.290   2.606  20.504  0.00  0.00    +0.000 C 
ATOM      2  N   UNL     1       3.708   3.511  19.430  0.00  0.00    +0.000 N 
ATOM      3  N   UNL     1       4.557   3.070  18.514  0.00  0.00    +0.000 NA
ATOM      4  N   UNL     1       4.701   4.134  17.737  0.00  0.00    +0.000 N 
ATOM      5  C   UNL     1       5.586   4.057  16.582  0.00  0.00    +0.000 C 
ATOM      6  C   UNL     1       3.967   5.246  18.145  0.00  0.00    +0.000 A 
ATOM      7  C   UNL     1       3.329   4.843  19.282  0.00  0.00    +0.000 A 
ATOM      8  C   UNL     1       2.451   5.652  20.053  0.00  0.00    +0.000 C 
ATOM      9  O   UNL     1       1.830   5.344  21.065  0.00  0.00    +0.000 OA
ATOM     10  C   UNL     1       2.271   7.026  19.475  0.00  0.00    +0.000 A 
ATOM     11  C   UNL     1       1.414   7.922  20.131  0.00  0.00    +0.000 A 
ATOM     12  C   UNL     1       1.177   9.187  19.595  0.00  0.00    +0.000 A 
ATOM     13  C   UNL     1       1.787   9.574  18.404  0.00  0.00    +0.000 A 
ATOM     14  C   UNL     1       2.656   8.702  17.750  0.00  0.00    +0.000 A 
ATOM     15  C   UNL     1       2.908   7.428  18.282  0.00  0.00    +0.000 A 
ATOM     16  C   UNL     1       3.841   6.520  17.537  0.00  0.00    +0.000 C 
ATOM     17  O   UNL     1       4.379   6.918  16.510  0.00  0.00    +0.000 OA
ENDROOT
TORSDOF 0
ENDMDL
MODEL 4
REMARK VINA RESULT:      -6.4      2.064      4.331
REMARK  Name = 
REMARK  2 active torsions:
REMARK  status: ('A' for Active; 'I' for Inactive)
REMARK    1  A    between atoms: C_1  and  N_2
REMARK    2  A    between atoms: N_4  and  C_5
REMARK                            x       y       z     vdW  Elec       q    Type
REMARK                         _______ _______ _______ _____ _____    ______ ____
ROOT
ATOM      1  C   UNL     1       5.717   4.239  16.485  0.00  0.00    +0.000 C 
ATOM      2  N   UNL     1       4.857   4.249  17.671  0.00  0.00    +0.000 N 
ATOM      3  N   UNL     1       4.824   3.177  18.449  0.00  0.00    +0.000 NA
ATOM      4  N   UNL     1       3.962   3.543  19.385  0.00  0.00    +0.000 N 
ATOM      5  C   UNL     1       3.638   2.611  20.458  0.00  0.00    +0.000 C 
ATOM      6  C   UNL     1       3.438   4.823  19.215  0.00  0.00    +0.000 A 
ATOM      7  C   UNL     1       4.011   5.282  18.065  0.00  0.00    +0.000 A 
ATOM      8  C   UNL     1       3.778   6.563  17.495  0.00  0.00    +0.000 C 
ATOM      9  O   UNL     1       4.276   7.044  16.483  0.00  0.00    +0.000 OA
ATOM     10  C   UNL     1       2.828   7.395  18.307  0.00  0.00    +0.000 A 
ATOM     11  C   UNL     1       2.524   8.691  17.863  0.00  0.00    +0.000 A 
ATOM     12  C   UNL     1       1.691   9.515  18.619  0.00  0.00    +0.000 A 
ATOM     13  C   UNL     1       1.154   9.061  19.822  0.00  0.00    +0.000 A 
ATOM     14  C   UNL     1       1.431   7.770  20.267  0.00  0.00    +0.000 A 
ATOM     15  C   UNL     1       2.263   6.928  19.513  0.00  0.00    +0.000 A 
ATOM     16  C   UNL     1       2.542   5.551  20.038  0.00  0.00    +0.000 C 
ATOM     17  O   UNL     1       2.020   5.187  21.085  0.00  0.00    +0.000 OA
ENDROOT
TORSDOF 0
ENDMDL
MODEL 5
REMARK VINA RESULT:      -6.3      2.228      4.802
REMARK  Name = 
REMARK  2 active torsions:
REMARK  status: ('A' for Active; 'I' for Inactive)
REMARK    1  A    between atoms: C_1  and  N_2
REMARK    2  A    between atoms: N_4  and  C_5
REMARK                            x       y       z     vdW  Elec       q    Type
REMARK                         _______ _______ _______ _____ _____    ______ ____
ROOT
ATOM      1  C   UNL     1       5.130   6.651  16.013  0.00  0.00    +0.000 C 
ATOM      2  N   UNL     1       4.150   6.858  17.083  0.00  0.00    +0.000 N 
ATOM      3  N   UNL     1       3.488   8.005  17.132  0.00  0.00    +0.000 NA
ATOM      4  N   UNL     1       2.722   7.835  18.199  0.00  0.00    +0.000 N 
ATOM      5  C   UNL     1       1.821   8.905  18.607  0.00  0.00    +0.000 C 
ATOM      6  C   UNL     1       2.890   6.607  18.836  0.00  0.00    +0.000 A 
ATOM      7  C   UNL     1       3.855   5.969  18.112  0.00  0.00    +0.000 A 
ATOM      8  C   UNL     1       4.352   4.667  18.388  0.00  0.00    +0.000 C 
ATOM      9  O   UNL     1       5.196   4.030  17.766  0.00  0.00    +0.000 OA
ATOM     10  C   UNL     1       3.687   4.031  19.575  0.00  0.00    +0.000 A 
ATOM     11  C   UNL     1       4.075   2.735  19.947  0.00  0.00    +0.000 A 
ATOM     12  C   UNL     1       3.441   2.090  21.007  0.00  0.00    +0.000 A 
ATOM     13  C   UNL     1       2.417   2.723  21.708  0.00  0.00    +0.000 A 
ATOM     14  C   UNL     1       2.034   4.018  21.363  0.00  0.00    +0.000 A 
ATOM     15  C   UNL     1       2.667   4.681  20.302  0.00  0.00    +0.000 A 
ATOM     16  C   UNL     1       2.212   6.069  19.960  0.00  0.00    +0.000 C 
ATOM     17  O   UNL     1       1.329   6.597  20.626  0.00  0.00    +0.000 OA
ENDROOT
TORSDOF 0
ENDMDL
MODEL 6
REMARK VINA RESULT:      -6.3      2.023      4.694
REMARK  Name = 
REMARK  2 active torsions:
REMARK  status: ('A' for Active; 'I' for Inactive)
REMARK    1  A    between atoms: C_1  and  N_2
REMARK    2  A    between atoms: N_4  and  C_5
REMARK                            x       y       z     vdW  Elec       q    Type
REMARK                         _______ _______ _______ _____ _____    ______ ____
ROOT
ATOM      1  C   UNL     1       5.169   5.699  16.069  0.00  0.00    +0.000 C 
ATOM      2  N   UNL     1       4.543   5.281  17.325  0.00  0.00    +0.000 N 
ATOM      3  N   UNL     1       4.813   4.076  17.806  0.00  0.00    +0.000 NA
ATOM      4  N   UNL     1       4.086   4.053  18.914  0.00  0.00    +0.000 N 
ATOM      5  C   UNL     1       4.104   2.861  19.752  0.00  0.00    +0.000 C 
ATOM      6  C   UNL     1       3.352   5.214  19.143  0.00  0.00    +0.000 A 
ATOM      7  C   UNL     1       3.633   6.019  18.078  0.00  0.00    +0.000 A 
ATOM      8  C   UNL     1       3.111   7.327  17.884  0.00  0.00    +0.000 C 
ATOM      9  O   UNL     1       3.341   8.107  16.967  0.00  0.00    +0.000 OA
ATOM     10  C   UNL     1       2.206   7.760  19.001  0.00  0.00    +0.000 A 
ATOM     11  C   UNL     1       1.634   9.040  18.943  0.00  0.00    +0.000 A 
ATOM     12  C   UNL     1       0.834   9.500  19.988  0.00  0.00    +0.000 A 
ATOM     13  C   UNL     1       0.595   8.696  21.100  0.00  0.00    +0.000 A 
ATOM     14  C   UNL     1       1.140   7.415  21.164  0.00  0.00    +0.000 A 
ATOM     15  C   UNL     1       1.942   6.937  20.117  0.00  0.00    +0.000 A 
ATOM     16  C   UNL     1       2.517   5.557  20.237  0.00  0.00    +0.000 C 
ATOM     17  O   UNL     1       2.251   4.875  21.220  0.00  0.00    +0.000 OA
ENDROOT
TORSDOF 0
ENDMDL
MODEL 7
REMARK VINA RESULT:      -6.3      2.206      4.338
REMARK  Name = 
REMARK  2 active torsions:
REMARK  status: ('A' for Active; 'I' for Inactive)
REMARK    1  A    between atoms: C_1  and  N_2
REMARK    2  A    between atoms: N_4  and  C_5
REMARK                            x       y       z     vdW  Elec       q    Type
REMARK                         _______ _______ _______ _____ _____    ______ ____
ROOT
ATOM      1  C   UNL     1       1.907   8.916  18.554  0.00  0.00    +0.000 C 
ATOM      2  N   UNL     1       2.779   7.810  18.148  0.00  0.00    +0.000 N 
ATOM      3  N   UNL     1       3.561   7.965  17.089  0.00  0.00    +0.000 NA
ATOM      4  N   UNL     1       4.177   6.795  17.028  0.00  0.00    +0.000 N 
ATOM      5  C   UNL     1       5.146   6.555  15.966  0.00  0.00    +0.000 C 
ATOM      6  C   UNL     1       3.798   5.894  18.021  0.00  0.00    +0.000 A 
ATOM      7  C   UNL     1       2.852   6.556  18.748  0.00  0.00    +0.000 A 
ATOM      8  C   UNL     1       2.179   6.027  19.883  0.00  0.00    +0.000 C 
ATOM      9  O   UNL     1       1.341   6.576  20.591  0.00  0.00    +0.000 OA
ATOM     10  C   UNL     1       2.629   4.637  20.228  0.00  0.00    +0.000 A 
ATOM     11  C   UNL     1       2.054   4.003  21.339  0.00  0.00    +0.000 A 
ATOM     12  C   UNL     1       2.486   2.735  21.725  0.00  0.00    +0.000 A 
ATOM     13  C   UNL     1       3.492   2.085  21.013  0.00  0.00    +0.000 A 
ATOM     14  C   UNL     1       4.060   2.694  19.896  0.00  0.00    +0.000 A 
ATOM     15  C   UNL     1       3.630   3.968  19.492  0.00  0.00    +0.000 A 
ATOM     16  C   UNL     1       4.279   4.587  18.290  0.00  0.00    +0.000 C 
ATOM     17  O   UNL     1       5.137   3.963  17.678  0.00  0.00    +0.000 OA
ENDROOT
TORSDOF 0
ENDMDL
MODEL 8
REMARK VINA RESULT:      -6.0      2.012      5.182
REMARK  Name = 
REMARK  2 active torsions:
REMARK  status: ('A' for Active; 'I' for Inactive)
REMARK    1  A    between atoms: C_1  and  N_2
REMARK    2  A    between atoms: N_4  and  C_5
REMARK                            x       y       z     vdW  Elec       q    Type
REMARK                         _______ _______ _______ _____ _____    ______ ____
ROOT
ATOM      1  C   UNL     1       3.657   1.810  18.915  0.00  0.00    +0.000 C 
ATOM      2  N   UNL     1       3.844   3.118  18.282  0.00  0.00    +0.000 N 
ATOM      3  N   UNL     1       4.584   3.200  17.185  0.00  0.00    +0.000 NA
ATOM      4  N   UNL     1       4.531   4.495  16.914  0.00  0.00    +0.000 N 
ATOM      5  C   UNL     1       5.243   5.008  15.750  0.00  0.00    +0.000 C 
ATOM      6  C   UNL     1       3.781   5.242  17.820  0.00  0.00    +0.000 A 
ATOM      7  C   UNL     1       3.347   4.334  18.742  0.00  0.00    +0.000 A 
ATOM      8  C   UNL     1       2.530   4.640  19.864  0.00  0.00    +0.000 C 
ATOM      9  O   UNL     1       2.087   3.872  20.711  0.00  0.00    +0.000 OA
ATOM     10  C   UNL     1       2.163   6.095  19.935  0.00  0.00    +0.000 A 
ATOM     11  C   UNL     1       1.344   6.529  20.987  0.00  0.00    +0.000 A 
ATOM     12  C   UNL     1       0.935   7.861  21.055  0.00  0.00    +0.000 A 
ATOM     13  C   UNL     1       1.335   8.772  20.080  0.00  0.00    +0.000 A 
ATOM     14  C   UNL     1       2.164   8.360  19.039  0.00  0.00    +0.000 A 
ATOM     15  C   UNL     1       2.588   7.024  18.961  0.00  0.00    +0.000 A 
ATOM     16  C   UNL     1       3.470   6.625  17.816  0.00  0.00    +0.000 C 
ATOM     17  O   UNL     1       3.821   7.470  17.001  0.00  0.00    +0.000 OA
ENDROOT
TORSDOF 0
ENDMDL
MODEL 9
REMARK VINA RESULT:      -6.0      2.048      4.464
REMARK  Name = 
REMARK  2 active torsions:
REMARK  status: ('A' for Active; 'I' for Inactive)
REMARK    1  A    between atoms: C_1  and  N_2
REMARK    2  A    between atoms: N_4  and  C_5
REMARK                            x       y       z     vdW  Elec       q    Type
REMARK                         _______ _______ _______ _____ _____    ______ ____
ROOT
ATOM      1  C   UNL     1       5.366   4.962  15.626  0.00  0.00    +0.000 C 
ATOM      2  N   UNL     1       4.602   4.402  16.743  0.00  0.00    +0.000 N 
ATOM      3  N   UNL     1       4.636   3.094  16.952  0.00  0.00    +0.000 NA
ATOM      4  N   UNL     1       3.849   2.963  18.009  0.00  0.00    +0.000 N 
ATOM      5  C   UNL     1       3.615   1.635  18.562  0.00  0.00    +0.000 C 
ATOM      6  C   UNL     1       3.307   4.160  18.473  0.00  0.00    +0.000 A 
ATOM      7  C   UNL     1       3.785   5.111  17.619  0.00  0.00    +0.000 A 
ATOM      8  C   UNL     1       3.501   6.501  17.708  0.00  0.00    +0.000 C 
ATOM      9  O   UNL     1       3.916   7.406  16.992  0.00  0.00    +0.000 OA
ATOM     10  C   UNL     1       2.615   6.839  18.872  0.00  0.00    +0.000 A 
ATOM     11  C   UNL     1       2.270   8.181  19.085  0.00  0.00    +0.000 A 
ATOM     12  C   UNL     1       1.496   8.541  20.187  0.00  0.00    +0.000 A 
ATOM     13  C   UNL     1       1.057   7.573  21.088  0.00  0.00    +0.000 A 
ATOM     14  C   UNL     1       1.375   6.233  20.880  0.00  0.00    +0.000 A 
ATOM     15  C   UNL     1       2.149   5.856  19.771  0.00  0.00    +0.000 A 
ATOM     16  C   UNL     1       2.475   4.402  19.595  0.00  0.00    +0.000 C 
ATOM     17  O   UNL     1       2.039   3.584  20.397  0.00  0.00    +0.000 OA
ENDROOT
TORSDOF 0
ENDMDL
