MODEL 1
REMARK VINA RESULT:      -6.9      0.000      0.000
REMARK  Name = 
REMARK  4 active torsions:
REMARK  status: ('A' for Active; 'I' for Inactive)
REMARK    1  A    between atoms: C_1  and  N_2
REMARK    2  A    between atoms: C_4  and  C_5
REMARK    3  A    between atoms: C_13  and  C_14
REMARK    4  A    between atoms: C_14  and  O_16
REMARK                            x       y       z     vdW  Elec       q    Type
REMARK                         _______ _______ _______ _____ _____    ______ ____
ROOT
ATOM      1  C   UNL     1       7.588   4.692  17.586  0.00  0.00    +0.000 C 
ATOM      2  N   UNL     1       6.148   4.603  17.678  0.00  0.00    +0.000 N 
ATOM      3  N   UNL     1       5.596   4.251  18.856  0.00  0.00    +0.000 NA
ATOM      4  C   UNL     1       4.285   4.152  18.604  0.00  0.00    +0.000 A 
ATOM      5  C   UNL     1       4.008   4.542  17.270  0.00  0.00    +0.000 A 
ATOM      6  C   UNL     1       5.225   4.862  16.695  0.00  0.00    +0.000 A 
ENDROOT
BRANCH   4   7
ATOM      7  C   UNL     1       3.333   3.695  19.612  0.00  0.00    +0.000 A 
ATOM      8  C   UNL     1       3.687   2.690  20.525  0.00  0.00    +0.000 A 
ATOM      9  C   UNL     1       2.771   2.258  21.487  0.00  0.00    +0.000 A 
ATOM     10  C   UNL     1       1.503   2.826  21.530  0.00  0.00    +0.000 A 
ATOM     11  F   UNL     1       0.624   2.408  22.450  0.00  0.00    +0.000 F 
ATOM     12  C   UNL     1       1.131   3.818  20.633  0.00  0.00    +0.000 A 
ATOM     13  C   UNL     1       2.047   4.255  19.674  0.00  0.00    +0.000 A 
ENDBRANCH   4   7
BRANCH   6  14
ATOM     14  C   UNL     1       5.545   5.308  15.367  0.00  0.00    +0.000 C 
ATOM     15  O   UNL     1       5.911   4.596  14.445  0.00  0.00    +0.000 OA
BRANCH  14  16
ATOM     16  O   UNL     1       5.419   6.651  15.234  0.00  0.00    +0.000 OA
ATOM     17  H   UNL     1       5.054   6.927  14.376  0.00  0.00    +0.000 HD
ENDBRANCH  14  16
ENDBRANCH   6  14
TORSDOF 3
ENDMDL
MODEL 2
REMARK VINA RESULT:      -6.7      1.400      2.086
REMARK  Name = 
REMARK  4 active torsions:
REMARK  status: ('A' for Active; 'I' for Inactive)
REMARK    1  A    between atoms: C_1  and  N_2
REMARK    2  A    between atoms: C_4  and  C_5
REMARK    3  A    between atoms: C_13  and  C_14
REMARK    4  A    between atoms: C_14  and  O_16
REMARK                            x       y       z     vdW  Elec       q    Type
REMARK                         _______ _______ _______ _____ _____    ______ ____
ROOT
ATOM      1  C   UNL     1       4.991   6.869  15.933  0.00  0.00    +0.000 C 
ATOM      2  N   UNL     1       4.776   5.605  16.602  0.00  0.00    +0.000 N 
ATOM      3  N   UNL     1       3.792   5.518  17.519  0.00  0.00    +0.000 NA
ATOM      4  C   UNL     1       3.907   4.286  18.028  0.00  0.00    +0.000 A 
ATOM      5  C   UNL     1       4.918   3.562  17.347  0.00  0.00    +0.000 A 
ATOM      6  C   UNL     1       5.448   4.424  16.403  0.00  0.00    +0.000 A 
ENDROOT
BRANCH   4   7
ATOM      7  C   UNL     1       3.075   3.821  19.133  0.00  0.00    +0.000 A 
ATOM      8  C   UNL     1       1.721   4.183  19.209  0.00  0.00    +0.000 A 
ATOM      9  C   UNL     1       0.930   3.735  20.269  0.00  0.00    +0.000 A 
ATOM     10  C   UNL     1       1.493   2.932  21.253  0.00  0.00    +0.000 A 
ATOM     11  F   UNL     1       0.735   2.506  22.272  0.00  0.00    +0.000 F 
ATOM     12  C   UNL     1       2.832   2.566  21.200  0.00  0.00    +0.000 A 
ATOM     13  C   UNL     1       3.623   3.009  20.139  0.00  0.00    +0.000 A 
ENDBRANCH   4   7
BRANCH   6  14
ATOM     14  C   UNL     1       6.499   4.230  15.444  0.00  0.00    +0.000 C 
ATOM     15  O   UNL     1       7.606   4.747  15.484  0.00  0.00    +0.000 OA
BRANCH  14  16
ATOM     16  O   UNL     1       6.128   3.403  14.437  0.00  0.00    +0.000 OA
ATOM     17  H   UNL     1       6.870   2.928  14.026  0.00  0.00    +0.000 HD
ENDBRANCH  14  16
ENDBRANCH   6  14
TORSDOF 3
ENDMDL
MODEL 3
REMARK VINA RESULT:      -6.7      1.422      1.594
REMARK  Name = 
REMARK  4 active torsions:
REMARK  status: ('A' for Active; 'I' for Inactive)
REMARK    1  A    between atoms: C_1  and  N_2
REMARK    2  A    between atoms: C_4  and  C_5
REMARK    3  A    between atoms: C_13  and  C_14
REMARK    4  A    between atoms: C_14  and  O_16
REMARK                            x       y       z     vdW  Elec       q    Type
REMARK                         _______ _______ _______ _____ _____    ______ ____
ROOT
ATOM      1  C   UNL     1       5.022   6.902  15.966  0.00  0.00    +0.000 C 
ATOM      2  N   UNL     1       4.748   5.621  16.577  0.00  0.00    +0.000 N 
ATOM      3  N   UNL     1       3.811   5.551  17.543  0.00  0.00    +0.000 NA
ATOM      4  C   UNL     1       3.860   4.287  17.978  0.00  0.00    +0.000 A 
ATOM      5  C   UNL     1       4.776   3.533  17.202  0.00  0.00    +0.000 A 
ATOM      6  C   UNL     1       5.318   4.408  16.277  0.00  0.00    +0.000 A 
ENDROOT
BRANCH   4   7
ATOM      7  C   UNL     1       3.055   3.820  19.102  0.00  0.00    +0.000 A 
ATOM      8  C   UNL     1       3.617   2.997  20.090  0.00  0.00    +0.000 A 
ATOM      9  C   UNL     1       2.842   2.554  21.164  0.00  0.00    +0.000 A 
ATOM     10  C   UNL     1       1.506   2.929  21.245  0.00  0.00    +0.000 A 
ATOM     11  F   UNL     1       0.761   2.501  22.272  0.00  0.00    +0.000 F 
ATOM     12  C   UNL     1       0.928   3.739  20.275  0.00  0.00    +0.000 A 
ATOM     13  C   UNL     1       1.703   4.186  19.204  0.00  0.00    +0.000 A 
ENDBRANCH   4   7
BRANCH   6  14
ATOM     14  C   UNL     1       6.300   4.195  15.251  0.00  0.00    +0.000 C 
ATOM     15  O   UNL     1       6.089   3.706  14.151  0.00  0.00    +0.000 OA
BRANCH  14  16
ATOM     16  O   UNL     1       7.539   4.584  15.639  0.00  0.00    +0.000 OA
ATOM     17  H   UNL     1       7.537   5.243  16.353  0.00  0.00    +0.000 HD
ENDBRANCH  14  16
ENDBRANCH   6  14
TORSDOF 3
ENDMDL
MODEL 4
REMARK VINA RESULT:      -6.6      4.359      6.265
REMARK  Name = 
REMARK  4 active torsions:
REMARK  status: ('A' for Active; 'I' for Inactive)
REMARK    1  A    between atoms: C_1  and  N_2
REMARK    2  A    between atoms: C_4  and  C_5
REMARK    3  A    between atoms: C_13  and  C_14
REMARK    4  A    between atoms: C_14  and  O_16
REMARK                            x       y       z     vdW  Elec       q    Type
REMARK                         _______ _______ _______ _____ _____    ______ ____
ROOT
ATOM      1  C   UNL     1       2.734   1.523  18.608  0.00  0.00    +0.000 C 
ATOM      2  N   UNL     1       3.165   2.849  18.989  0.00  0.00    +0.000 N 
ATOM      3  N   UNL     1       4.111   3.460  18.249  0.00  0.00    +0.000 NA
ATOM      4  C   UNL     1       4.370   4.601  18.898  0.00  0.00    +0.000 A 
ATOM      5  C   UNL     1       3.500   4.747  20.008  0.00  0.00    +0.000 A 
ATOM      6  C   UNL     1       2.704   3.616  20.032  0.00  0.00    +0.000 A 
ENDROOT
BRANCH   4   7
ATOM      7  C   UNL     1       5.420   5.519  18.467  0.00  0.00    +0.000 A 
ATOM      8  C   UNL     1       5.179   6.450  17.445  0.00  0.00    +0.000 A 
ATOM      9  C   UNL     1       6.187   7.326  17.037  0.00  0.00    +0.000 A 
ATOM     10  C   UNL     1       7.435   7.266  17.647  0.00  0.00    +0.000 A 
ATOM     11  F   UNL     1       8.403   8.104  17.252  0.00  0.00    +0.000 F 
ATOM     12  C   UNL     1       7.696   6.350  18.657  0.00  0.00    +0.000 A 
ATOM     13  C   UNL     1       6.688   5.477  19.069  0.00  0.00    +0.000 A 
ENDBRANCH   4   7
BRANCH   6  14
ATOM     14  C   UNL     1       1.659   3.225  20.937  0.00  0.00    +0.000 C 
ATOM     15  O   UNL     1       1.821   2.754  22.052  0.00  0.00    +0.000 OA
BRANCH  14  16
ATOM     16  O   UNL     1       0.426   3.415  20.408  0.00  0.00    +0.000 OA
ATOM     17  H   UNL     1       0.438   3.692  19.476  0.00  0.00    +0.000 HD
ENDBRANCH  14  16
ENDBRANCH   6  14
TORSDOF 3
ENDMDL
MODEL 5
REMARK VINA RESULT:      -6.5      1.965      2.441
REMARK  Name = 
REMARK  4 active torsions:
REMARK  status: ('A' for Active; 'I' for Inactive)
REMARK    1  A    between atoms: C_1  and  N_2
REMARK    2  A    between atoms: C_4  and  C_5
REMARK    3  A    between atoms: C_13  and  C_14
REMARK    4  A    between atoms: C_14  and  O_16
REMARK                            x       y       z     vdW  Elec       q    Type
REMARK                         _______ _______ _______ _____ _____    ______ ____
ROOT
ATOM      1  C   UNL     1       8.103   5.545  19.673  0.00  0.00    +0.000 C 
ATOM      2  N   UNL     1       6.798   5.584  19.053  0.00  0.00    +0.000 N 
ATOM      3  N   UNL     1       5.776   4.942  19.652  0.00  0.00    +0.000 NA
ATOM      4  C   UNL     1       4.748   5.067  18.805  0.00  0.00    +0.000 A 
ATOM      5  C   UNL     1       5.112   5.883  17.705  0.00  0.00    +0.000 A 
ATOM      6  C   UNL     1       6.435   6.236  17.899  0.00  0.00    +0.000 A 
ENDROOT
BRANCH   4   7
ATOM      7  C   UNL     1       3.461   4.421  19.044  0.00  0.00    +0.000 A 
ATOM      8  C   UNL     1       2.633   4.846  20.093  0.00  0.00    +0.000 A 
ATOM      9  C   UNL     1       1.402   4.224  20.316  0.00  0.00    +0.000 A 
ATOM     10  C   UNL     1       1.006   3.175  19.495  0.00  0.00    +0.000 A 
ATOM     11  F   UNL     1      -0.172   2.576  19.712  0.00  0.00    +0.000 F 
ATOM     12  C   UNL     1       1.813   2.735  18.455  0.00  0.00    +0.000 A 
ATOM     13  C   UNL     1       3.041   3.358  18.227  0.00  0.00    +0.000 A 
ENDBRANCH   4   7
BRANCH   6  14
ATOM     14  C   UNL     1       7.317   7.040  17.100  0.00  0.00    +0.000 C 
ATOM     15  O   UNL     1       7.624   8.201  17.324  0.00  0.00    +0.000 OA
BRANCH  14  16
ATOM     16  O   UNL     1       7.779   6.370  16.016  0.00  0.00    +0.000 OA
ATOM     17  H   UNL     1       7.635   5.409  16.059  0.00  0.00    +0.000 HD
ENDBRANCH  14  16
ENDBRANCH   6  14
TORSDOF 3
ENDMDL
MODEL 6
REMARK VINA RESULT:      -6.5      1.117      1.121
REMARK  Name = 
REMARK  4 active torsions:
REMARK  status: ('A' for Active; 'I' for Inactive)
REMARK    1  A    between atoms: C_1  and  N_2
REMARK    2  A    between atoms: C_4  and  C_5
REMARK    3  A    between atoms: C_13  and  C_14
REMARK    4  A    between atoms: C_14  and  O_16
REMARK                            x       y       z     vdW  Elec       q    Type
REMARK                         _______ _______ _______ _____ _____    ______ ____
ROOT
ATOM      1  C   UNL     1       7.627   6.635  18.275  0.00  0.00    +0.000 C 
ATOM      2  N   UNL     1       6.474   5.777  18.122  0.00  0.00    +0.000 N 
ATOM      3  N   UNL     1       5.655   5.599  19.177  0.00  0.00    +0.000 NA
ATOM      4  C   UNL     1       4.761   4.691  18.767  0.00  0.00    +0.000 A 
ATOM      5  C   UNL     1       4.971   4.372  17.402  0.00  0.00    +0.000 A 
ATOM      6  C   UNL     1       6.066   5.111  16.991  0.00  0.00    +0.000 A 
ENDROOT
BRANCH   4   7
ATOM      7  C   UNL     1       3.741   4.148  19.659  0.00  0.00    +0.000 A 
ATOM      8  C   UNL     1       3.876   2.858  20.195  0.00  0.00    +0.000 A 
ATOM      9  C   UNL     1       2.897   2.344  21.049  0.00  0.00    +0.000 A 
ATOM     10  C   UNL     1       1.784   3.116  21.360  0.00  0.00    +0.000 A 
ATOM     11  F   UNL     1       0.843   2.621  22.175  0.00  0.00    +0.000 F 
ATOM     12  C   UNL     1       1.629   4.393  20.836  0.00  0.00    +0.000 A 
ATOM     13  C   UNL     1       2.608   4.910  19.986  0.00  0.00    +0.000 A 
ENDBRANCH   4   7
BRANCH   6  14
ATOM     14  C   UNL     1       6.727   5.177  15.718  0.00  0.00    +0.000 C 
ATOM     15  O   UNL     1       7.813   4.686  15.452  0.00  0.00    +0.000 OA
BRANCH  14  16
ATOM     16  O   UNL     1       6.013   5.883  14.807  0.00  0.00    +0.000 OA
ATOM     17  H   UNL     1       6.518   6.116  14.009  0.00  0.00    +0.000 HD
ENDBRANCH  14  16
ENDBRANCH   6  14
TORSDOF 3
ENDMDL
MODEL 7
REMARK VINA RESULT:      -6.5      1.477      2.320
REMARK  Name = 
REMARK  4 active torsions:
REMARK  status: ('A' for Active; 'I' for Inactive)
REMARK    1  A    between atoms: C_1  and  N_2
REMARK    2  A    between atoms: C_4  and  C_5
REMARK    3  A    between atoms: C_13  and  C_14
REMARK    4  A    between atoms: C_14  and  O_16
REMARK                            x       y       z     vdW  Elec       q    Type
REMARK                         _______ _______ _______ _____ _____    ______ ____
ROOT
ATOM      1  C   UNL     1       4.766   6.630  15.868  0.00  0.00    +0.000 C 
ATOM      2  N   UNL     1       4.867   5.694  16.964  0.00  0.00    +0.000 N 
ATOM      3  N   UNL     1       3.737   5.297  17.582  0.00  0.00    +0.000 NA
ATOM      4  C   UNL     1       4.153   4.533  18.599  0.00  0.00    +0.000 A 
ATOM      5  C   UNL     1       5.561   4.375  18.555  0.00  0.00    +0.000 A 
ATOM      6  C   UNL     1       6.003   5.108  17.468  0.00  0.00    +0.000 A 
ENDROOT
BRANCH   4   7
ATOM      7  C   UNL     1       3.228   3.977  19.582  0.00  0.00    +0.000 A 
ATOM      8  C   UNL     1       1.918   4.468  19.687  0.00  0.00    +0.000 A 
ATOM      9  C   UNL     1       1.037   3.931  20.629  0.00  0.00    +0.000 A 
ATOM     10  C   UNL     1       1.469   2.910  21.467  0.00  0.00    +0.000 A 
ATOM     11  F   UNL     1       0.625   2.398  22.373  0.00  0.00    +0.000 F 
ATOM     12  C   UNL     1       2.763   2.413  21.382  0.00  0.00    +0.000 A 
ATOM     13  C   UNL     1       3.643   2.945  20.439  0.00  0.00    +0.000 A 
ENDBRANCH   4   7
BRANCH   6  14
ATOM     14  C   UNL     1       7.328   5.315  16.955  0.00  0.00    +0.000 C 
ATOM     15  O   UNL     1       7.766   6.366  16.512  0.00  0.00    +0.000 OA
BRANCH  14  16
ATOM     16  O   UNL     1       8.073   4.183  16.988  0.00  0.00    +0.000 OA
ATOM     17  H   UNL     1       8.704   4.151  17.727  0.00  0.00    +0.000 HD
ENDBRANCH  14  16
ENDBRANCH   6  14
TORSDOF 3
ENDMDL
MODEL 8
REMARK VINA RESULT:      -6.5      1.294      1.401
REMARK  Name = 
REMARK  4 active torsions:
REMARK  status: ('A' for Active; 'I' for Inactive)
REMARK    1  A    between atoms: C_1  and  N_2
REMARK    2  A    between atoms: C_4  and  C_5
REMARK    3  A    between atoms: C_13  and  C_14
REMARK    4  A    between atoms: C_14  and  O_16
REMARK                            x       y       z     vdW  Elec       q    Type
REMARK                         _______ _______ _______ _____ _____    ______ ____
ROOT
ATOM      1  C   UNL     1       5.790   3.658  15.436  0.00  0.00    +0.000 C 
ATOM      2  N   UNL     1       5.096   4.249  16.558  0.00  0.00    +0.000 N 
ATOM      3  N   UNL     1       4.522   3.434  17.466  0.00  0.00    +0.000 NA
ATOM      4  C   UNL     1       3.881   4.255  18.306  0.00  0.00    +0.000 A 
ATOM      5  C   UNL     1       4.141   5.608  17.969  0.00  0.00    +0.000 A 
ATOM      6  C   UNL     1       4.957   5.583  16.853  0.00  0.00    +0.000 A 
ENDROOT
BRANCH   4   7
ATOM      7  C   UNL     1       3.046   3.756  19.393  0.00  0.00    +0.000 A 
ATOM      8  C   UNL     1       3.585   2.919  20.382  0.00  0.00    +0.000 A 
ATOM      9  C   UNL     1       2.780   2.445  21.420  0.00  0.00    +0.000 A 
ATOM     10  C   UNL     1       1.438   2.803  21.465  0.00  0.00    +0.000 A 
ATOM     11  F   UNL     1       0.665   2.345  22.458  0.00  0.00    +0.000 F 
ATOM     12  C   UNL     1       0.883   3.626  20.494  0.00  0.00    +0.000 A 
ATOM     13  C   UNL     1       1.687   4.105  19.458  0.00  0.00    +0.000 A 
ENDBRANCH   4   7
BRANCH   6  14
ATOM     14  C   UNL     1       5.521   6.656  16.081  0.00  0.00    +0.000 C 
ATOM     15  O   UNL     1       5.105   7.054  15.003  0.00  0.00    +0.000 OA
BRANCH  14  16
ATOM     16  O   UNL     1       6.615   7.193  16.673  0.00  0.00    +0.000 OA
ATOM     17  H   UNL     1       7.444   6.734  16.455  0.00  0.00    +0.000 HD
ENDBRANCH  14  16
ENDBRANCH   6  14
TORSDOF 3
ENDMDL
MODEL 9
REMARK VINA RESULT:      -6.5      1.416      1.731
REMARK  Name = 
REMARK  4 active torsions:
REMARK  status: ('A' for Active; 'I' for Inactive)
REMARK    1  A    between atoms: C_1  and  N_2
REMARK    2  A    between atoms: C_4  and  C_5
REMARK    3  A    between atoms: C_13  and  C_14
REMARK    4  A    between atoms: C_14  and  O_16
REMARK                            x       y       z     vdW  Elec       q    Type
REMARK                         _______ _______ _______ _____ _____    ______ ____
ROOT
ATOM      1  C   UNL     1       7.209   6.651  17.158  0.00  0.00    +0.000 C 
ATOM      2  N   UNL     1       6.171   5.645  17.126  0.00  0.00    +0.000 N 
ATOM      3  N   UNL     1       5.288   5.593  18.143  0.00  0.00    +0.000 NA
ATOM      4  C   UNL     1       4.535   4.517  17.887  0.00  0.00    +0.000 A 
ATOM      5  C   UNL     1       4.894   3.947  16.640  0.00  0.00    +0.000 A 
ATOM      6  C   UNL     1       5.935   4.712  16.145  0.00  0.00    +0.000 A 
ENDROOT
BRANCH   4   7
ATOM      7  C   UNL     1       3.506   4.051  18.812  0.00  0.00    +0.000 A 
ATOM      8  C   UNL     1       3.274   4.726  20.020  0.00  0.00    +0.000 A 
ATOM      9  C   UNL     1       2.288   4.276  20.901  0.00  0.00    +0.000 A 
ATOM     10  C   UNL     1       1.541   3.150  20.576  0.00  0.00    +0.000 A 
ATOM     11  F   UNL     1       0.598   2.716  21.423  0.00  0.00    +0.000 F 
ATOM     12  C   UNL     1       1.758   2.465  19.388  0.00  0.00    +0.000 A 
ATOM     13  C   UNL     1       2.740   2.916  18.504  0.00  0.00    +0.000 A 
ENDBRANCH   4   7
BRANCH   6  14
ATOM     14  C   UNL     1       6.692   4.590  14.930  0.00  0.00    +0.000 C 
ATOM     15  O   UNL     1       7.511   5.397  14.517  0.00  0.00    +0.000 OA
BRANCH  14  16
ATOM     16  O   UNL     1       6.383   3.462  14.246  0.00  0.00    +0.000 OA
ATOM     17  H   UNL     1       6.649   2.644  14.699  0.00  0.00    +0.000 HD
ENDBRANCH  14  16
ENDBRANCH   6  14
TORSDOF 3
ENDMDL
