MODEL 1
REMARK VINA RESULT:      -7.3      0.000      0.000
REMARK  Name = 
REMARK  9 active torsions:
REMARK  status: ('A' for Active; 'I' for Inactive)
REMARK    1  A    between atoms: C_1  and  O_2
REMARK    2  A    between atoms: O_2  and  C_3
REMARK    3  A    between atoms: C_3  and  C_5
REMARK    4  A    between atoms: C_5  and  C_6
REMARK    5  A    between atoms: C_7  and  C_8
REMARK    6  A    between atoms: C_12  and  O_13
REMARK    7  A    between atoms: O_13  and  C_14
REMARK    8  A    between atoms: C_14  and  C_15
REMARK    9  A    between atoms: C_14  and  C_16
REMARK                            x       y       z     vdW  Elec       q    Type
REMARK                         _______ _______ _______ _____ _____    ______ ____
ROOT
ATOM      1  C   UNL     1       3.313   4.640  19.858  0.00  0.00    +0.000 A 
ATOM      2  C   UNL     1       3.403   5.574  18.884  0.00  0.00    +0.000 A 
ATOM      3  C   UNL     1       2.469   6.750  18.764  0.00  0.00    +0.000 C 
ATOM      4  C   UNL     1       4.466   5.439  17.868  0.00  0.00    +0.000 A 
ATOM      5  C   UNL     1       4.634   6.315  16.787  0.00  0.00    +0.000 A 
ATOM      6  C   UNL     1       5.670   6.124  15.862  0.00  0.00    +0.000 A 
ATOM      7  C   UNL     1       6.553   5.052  15.990  0.00  0.00    +0.000 A 
ATOM      8  C   UNL     1       6.434   4.207  17.086  0.00  0.00    +0.000 A 
ATOM      9  C   UNL     1       5.380   4.396  17.984  0.00  0.00    +0.000 A 
ATOM     10  O   UNL     1       5.275   3.440  19.006  0.00  0.00    +0.000 OA
ATOM     11  C   UNL     1       4.228   3.468  19.905  0.00  0.00    +0.000 A 
ATOM     12  O   UNL     1       4.090   2.576  20.741  0.00  0.00    +0.000 OA
ENDROOT
BRANCH   1  13
ATOM     13  C   UNL     1       2.310   4.649  20.985  0.00  0.00    +0.000 C 
BRANCH  13  14
ATOM     14  C   UNL     1       1.288   3.545  20.798  0.00  0.00    +0.000 C 
ATOM     15  O   UNL     1       1.019   2.671  21.611  0.00  0.00    +0.000 OA
BRANCH  14  17
ATOM     16  C   UNL     1       0.763   2.428  18.812  0.00  0.00    +0.000 C 
ATOM     17  O   UNL     1       0.735   3.648  19.554  0.00  0.00    +0.000 OA
ENDBRANCH  14  17
ENDBRANCH  13  14
ENDBRANCH   1  13
BRANCH   7  18
ATOM     18  O   UNL     1       7.465   4.918  14.981  0.00  0.00    +0.000 OA
BRANCH  18  19
ATOM     19  C   UNL     1       7.003   5.096  13.633  0.00  0.00    +0.000 C 
ATOM     20  C   UNL     1       8.132   5.514  12.687  0.00  0.00    +0.000 C 
ATOM     21  C   UNL     1       6.458   3.743  13.174  0.00  0.00    +0.000 C 
ENDBRANCH  18  19
ENDBRANCH   7  18
TORSDOF 5
ENDMDL
MODEL 2
REMARK VINA RESULT:      -7.2      2.462      7.105
REMARK  Name = 
REMARK  9 active torsions:
REMARK  status: ('A' for Active; 'I' for Inactive)
REMARK    1  A    between atoms: C_1  and  O_2
REMARK    2  A    between atoms: O_2  and  C_3
REMARK    3  A    between atoms: C_3  and  C_5
REMARK    4  A    between atoms: C_5  and  C_6
REMARK    5  A    between atoms: C_7  and  C_8
REMARK    6  A    between atoms: C_12  and  O_13
REMARK    7  A    between atoms: O_13  and  C_14
REMARK    8  A    between atoms: C_14  and  C_15
REMARK    9  A    between atoms: C_14  and  C_16
REMARK                            x       y       z     vdW  Elec       q    Type
REMARK                         _______ _______ _______ _____ _____    ______ ____
ROOT
ATOM      1  C   UNL     1       4.704   4.968  16.892  0.00  0.00    +0.000 A 
ATOM      2  C   UNL     1       4.051   4.377  17.918  0.00  0.00    +0.000 A 
ATOM      3  C   UNL     1       4.130   2.903  18.222  0.00  0.00    +0.000 C 
ATOM      4  C   UNL     1       3.201   5.209  18.793  0.00  0.00    +0.000 A 
ATOM      5  C   UNL     1       2.443   4.707  19.858  0.00  0.00    +0.000 A 
ATOM      6  C   UNL     1       1.660   5.562  20.648  0.00  0.00    +0.000 A 
ATOM      7  C   UNL     1       1.610   6.930  20.386  0.00  0.00    +0.000 A 
ATOM      8  C   UNL     1       2.399   7.451  19.368  0.00  0.00    +0.000 A 
ATOM      9  C   UNL     1       3.153   6.583  18.574  0.00  0.00    +0.000 A 
ATOM     10  O   UNL     1       3.842   7.180  17.508  0.00  0.00    +0.000 OA
ATOM     11  C   UNL     1       4.554   6.419  16.602  0.00  0.00    +0.000 A 
ATOM     12  O   UNL     1       5.081   6.937  15.618  0.00  0.00    +0.000 OA
ENDROOT
BRANCH   1  13
ATOM     13  C   UNL     1       5.633   4.269  15.930  0.00  0.00    +0.000 C 
BRANCH  13  14
ATOM     14  C   UNL     1       7.080   4.526  16.305  0.00  0.00    +0.000 C 
ATOM     15  O   UNL     1       7.568   4.382  17.417  0.00  0.00    +0.000 OA
BRANCH  14  17
ATOM     16  C   UNL     1       7.092   4.722  13.975  0.00  0.00    +0.000 C 
ATOM     17  O   UNL     1       7.753   4.990  15.212  0.00  0.00    +0.000 OA
ENDBRANCH  14  17
ENDBRANCH  13  14
ENDBRANCH   1  13
BRANCH   7  18
ATOM     18  O   UNL     1       0.746   7.647  21.165  0.00  0.00    +0.000 OA
BRANCH  18  19
ATOM     19  C   UNL     1       0.993   9.053  21.320  0.00  0.00    +0.000 C 
ATOM     20  C   UNL     1       0.092   9.900  20.417  0.00  0.00    +0.000 C 
ATOM     21  C   UNL     1       0.683   9.395  22.777  0.00  0.00    +0.000 C 
ENDBRANCH  18  19
ENDBRANCH   7  18
TORSDOF 5
ENDMDL
MODEL 3
REMARK VINA RESULT:      -7.1      1.409      1.677
REMARK  Name = 
REMARK  9 active torsions:
REMARK  status: ('A' for Active; 'I' for Inactive)
REMARK    1  A    between atoms: C_1  and  O_2
REMARK    2  A    between atoms: O_2  and  C_3
REMARK    3  A    between atoms: C_3  and  C_5
REMARK    4  A    between atoms: C_5  and  C_6
REMARK    5  A    between atoms: C_7  and  C_8
REMARK    6  A    between atoms: C_12  and  O_13
REMARK    7  A    between atoms: O_13  and  C_14
REMARK    8  A    between atoms: C_14  and  C_15
REMARK    9  A    between atoms: C_14  and  C_16
REMARK                            x       y       z     vdW  Elec       q    Type
REMARK                         _______ _______ _______ _____ _____    ______ ____
ROOT
ATOM      1  C   UNL     1       2.321   4.170  18.428  0.00  0.00    +0.000 A 
ATOM      2  C   UNL     1       2.908   5.307  17.991  0.00  0.00    +0.000 A 
ATOM      3  C   UNL     1       2.403   6.688  18.318  0.00  0.00    +0.000 C 
ATOM      4  C   UNL     1       4.107   5.203  17.136  0.00  0.00    +0.000 A 
ATOM      5  C   UNL     1       4.777   6.304  16.586  0.00  0.00    +0.000 A 
ATOM      6  C   UNL     1       5.913   6.127  15.783  0.00  0.00    +0.000 A 
ATOM      7  C   UNL     1       6.399   4.849  15.506  0.00  0.00    +0.000 A 
ATOM      8  C   UNL     1       5.779   3.751  16.088  0.00  0.00    +0.000 A 
ATOM      9  C   UNL     1       4.633   3.943  16.863  0.00  0.00    +0.000 A 
ATOM     10  O   UNL     1       4.013   2.774  17.331  0.00  0.00    +0.000 OA
ATOM     11  C   UNL     1       2.828   2.827  18.036  0.00  0.00    +0.000 A 
ATOM     12  O   UNL     1       2.242   1.796  18.365  0.00  0.00    +0.000 OA
ENDROOT
BRANCH   1  13
ATOM     13  C   UNL     1       1.115   4.102  19.332  0.00  0.00    +0.000 C 
BRANCH  13  14
ATOM     14  C   UNL     1       1.530   4.227  20.785  0.00  0.00    +0.000 C 
ATOM     15  O   UNL     1       2.049   5.208  21.300  0.00  0.00    +0.000 OA
BRANCH  14  17
ATOM     16  C   UNL     1       2.449   2.303  21.745  0.00  0.00    +0.000 C 
ATOM     17  O   UNL     1       1.274   3.051  21.430  0.00  0.00    +0.000 OA
ENDBRANCH  14  17
ENDBRANCH  13  14
ENDBRANCH   1  13
BRANCH   7  18
ATOM     18  O   UNL     1       7.457   4.798  14.642  0.00  0.00    +0.000 OA
BRANCH  18  19
ATOM     19  C   UNL     1       7.213   5.129  13.266  0.00  0.00    +0.000 C 
ATOM     20  C   UNL     1       8.430   5.785  12.607  0.00  0.00    +0.000 C 
ATOM     21  C   UNL     1       6.919   3.814  12.543  0.00  0.00    +0.000 C 
ENDBRANCH  18  19
ENDBRANCH   7  18
TORSDOF 5
ENDMDL
MODEL 4
REMARK VINA RESULT:      -7.1      2.630      6.821
REMARK  Name = 
REMARK  9 active torsions:
REMARK  status: ('A' for Active; 'I' for Inactive)
REMARK    1  A    between atoms: C_1  and  O_2
REMARK    2  A    between atoms: O_2  and  C_3
REMARK    3  A    between atoms: C_3  and  C_5
REMARK    4  A    between atoms: C_5  and  C_6
REMARK    5  A    between atoms: C_7  and  C_8
REMARK    6  A    between atoms: C_12  and  O_13
REMARK    7  A    between atoms: O_13  and  C_14
REMARK    8  A    between atoms: C_14  and  C_15
REMARK    9  A    between atoms: C_14  and  C_16
REMARK                            x       y       z     vdW  Elec       q    Type
REMARK                         _______ _______ _______ _____ _____    ______ ____
ROOT
ATOM      1  C   UNL     1       4.802   5.022  17.847  0.00  0.00    +0.000 A 
ATOM      2  C   UNL     1       4.290   6.188  17.393  0.00  0.00    +0.000 A 
ATOM      3  C   UNL     1       4.691   6.828  16.089  0.00  0.00    +0.000 C 
ATOM      4  C   UNL     1       3.288   6.892  18.218  0.00  0.00    +0.000 A 
ATOM      5  C   UNL     1       2.719   8.126  17.879  0.00  0.00    +0.000 A 
ATOM      6  C   UNL     1       1.769   8.734  18.713  0.00  0.00    +0.000 A 
ATOM      7  C   UNL     1       1.375   8.128  19.906  0.00  0.00    +0.000 A 
ATOM      8  C   UNL     1       1.889   6.878  20.229  0.00  0.00    +0.000 A 
ATOM      9  C   UNL     1       2.853   6.300  19.400  0.00  0.00    +0.000 A 
ATOM     10  O   UNL     1       3.391   5.085  19.852  0.00  0.00    +0.000 OA
ATOM     11  C   UNL     1       4.411   4.456  19.166  0.00  0.00    +0.000 A 
ATOM     12  O   UNL     1       4.940   3.440  19.613  0.00  0.00    +0.000 OA
ENDROOT
BRANCH   1  13
ATOM     13  C   UNL     1       5.805   4.166  17.114  0.00  0.00    +0.000 C 
BRANCH  13  14
ATOM     14  C   UNL     1       7.212   4.690  17.330  0.00  0.00    +0.000 C 
ATOM     15  O   UNL     1       7.792   4.761  18.405  0.00  0.00    +0.000 OA
BRANCH  14  17
ATOM     16  C   UNL     1       7.077   4.544  15.001  0.00  0.00    +0.000 C 
ATOM     17  O   UNL     1       7.724   5.115  16.138  0.00  0.00    +0.000 OA
ENDBRANCH  14  17
ENDBRANCH  13  14
ENDBRANCH   1  13
BRANCH   7  18
ATOM     18  O   UNL     1       0.511   8.854  20.677  0.00  0.00    +0.000 OA
BRANCH  18  19
ATOM     19  C   UNL     1       1.074   9.775  21.625  0.00  0.00    +0.000 C 
ATOM     20  C   UNL     1       0.770  11.231  21.264  0.00  0.00    +0.000 C 
ATOM     21  C   UNL     1       0.429   9.463  22.976  0.00  0.00    +0.000 C 
ENDBRANCH  18  19
ENDBRANCH   7  18
TORSDOF 5
ENDMDL
MODEL 5
REMARK VINA RESULT:      -7.1      2.477      7.101
REMARK  Name = 
REMARK  9 active torsions:
REMARK  status: ('A' for Active; 'I' for Inactive)
REMARK    1  A    between atoms: C_1  and  O_2
REMARK    2  A    between atoms: O_2  and  C_3
REMARK    3  A    between atoms: C_3  and  C_5
REMARK    4  A    between atoms: C_5  and  C_6
REMARK    5  A    between atoms: C_7  and  C_8
REMARK    6  A    between atoms: C_12  and  O_13
REMARK    7  A    between atoms: O_13  and  C_14
REMARK    8  A    between atoms: C_14  and  C_15
REMARK    9  A    between atoms: C_14  and  C_16
REMARK                            x       y       z     vdW  Elec       q    Type
REMARK                         _______ _______ _______ _____ _____    ______ ____
ROOT
ATOM      1  C   UNL     1       4.634   5.050  16.674  0.00  0.00    +0.000 A 
ATOM      2  C   UNL     1       3.973   4.402  17.660  0.00  0.00    +0.000 A 
ATOM      3  C   UNL     1       3.997   2.906  17.840  0.00  0.00    +0.000 C 
ATOM      4  C   UNL     1       3.170   5.192  18.615  0.00  0.00    +0.000 A 
ATOM      5  C   UNL     1       2.407   4.633  19.649  0.00  0.00    +0.000 A 
ATOM      6  C   UNL     1       1.671   5.449  20.520  0.00  0.00    +0.000 A 
ATOM      7  C   UNL     1       1.674   6.836  20.372  0.00  0.00    +0.000 A 
ATOM      8  C   UNL     1       2.468   7.408  19.387  0.00  0.00    +0.000 A 
ATOM      9  C   UNL     1       3.175   6.580  18.511  0.00  0.00    +0.000 A 
ATOM     10  O   UNL     1       3.873   7.236  17.486  0.00  0.00    +0.000 OA
ATOM     11  C   UNL     1       4.539   6.526  16.508  0.00  0.00    +0.000 A 
ATOM     12  O   UNL     1       5.073   7.102  15.561  0.00  0.00    +0.000 OA
ENDROOT
BRANCH   1  13
ATOM     13  C   UNL     1       5.520   4.398  15.642  0.00  0.00    +0.000 C 
BRANCH  13  14
ATOM     14  C   UNL     1       6.977   4.723  15.908  0.00  0.00    +0.000 C 
ATOM     15  O   UNL     1       7.733   5.304  15.140  0.00  0.00    +0.000 OA
BRANCH  14  17
ATOM     16  C   UNL     1       7.654   5.239  18.085  0.00  0.00    +0.000 C 
ATOM     17  O   UNL     1       7.336   4.228  17.128  0.00  0.00    +0.000 OA
ENDBRANCH  14  17
ENDBRANCH  13  14
ENDBRANCH   1  13
BRANCH   7  18
ATOM     18  O   UNL     1       0.850   7.519  21.223  0.00  0.00    +0.000 OA
BRANCH  18  19
ATOM     19  C   UNL     1       0.977   8.949  21.272  0.00  0.00    +0.000 C 
ATOM     20  C   UNL     1      -0.041   9.649  20.368  0.00  0.00    +0.000 C 
ATOM     21  C   UNL     1       0.709   9.363  22.720  0.00  0.00    +0.000 C 
ENDBRANCH  18  19
ENDBRANCH   7  18
TORSDOF 5
ENDMDL
MODEL 6
REMARK VINA RESULT:      -7.0      2.747      6.897
REMARK  Name = 
REMARK  9 active torsions:
REMARK  status: ('A' for Active; 'I' for Inactive)
REMARK    1  A    between atoms: C_1  and  O_2
REMARK    2  A    between atoms: O_2  and  C_3
REMARK    3  A    between atoms: C_3  and  C_5
REMARK    4  A    between atoms: C_5  and  C_6
REMARK    5  A    between atoms: C_7  and  C_8
REMARK    6  A    between atoms: C_12  and  O_13
REMARK    7  A    between atoms: O_13  and  C_14
REMARK    8  A    between atoms: C_14  and  C_15
REMARK    9  A    between atoms: C_14  and  C_16
REMARK                            x       y       z     vdW  Elec       q    Type
REMARK                         _______ _______ _______ _____ _____    ______ ____
ROOT
ATOM      1  C   UNL     1       4.781   5.127  17.858  0.00  0.00    +0.000 A 
ATOM      2  C   UNL     1       4.259   6.270  17.358  0.00  0.00    +0.000 A 
ATOM      3  C   UNL     1       4.654   6.859  16.029  0.00  0.00    +0.000 C 
ATOM      4  C   UNL     1       3.252   6.998  18.155  0.00  0.00    +0.000 A 
ATOM      5  C   UNL     1       2.672   8.213  17.767  0.00  0.00    +0.000 A 
ATOM      6  C   UNL     1       1.718   8.845  18.577  0.00  0.00    +0.000 A 
ATOM      7  C   UNL     1       1.330   8.284  19.794  0.00  0.00    +0.000 A 
ATOM      8  C   UNL     1       1.854   7.053  20.167  0.00  0.00    +0.000 A 
ATOM      9  C   UNL     1       2.823   6.450  19.360  0.00  0.00    +0.000 A 
ATOM     10  O   UNL     1       3.371   5.258  19.860  0.00  0.00    +0.000 OA
ATOM     11  C   UNL     1       4.396   4.612  19.199  0.00  0.00    +0.000 A 
ATOM     12  O   UNL     1       4.934   3.618  19.686  0.00  0.00    +0.000 OA
ENDROOT
BRANCH   1  13
ATOM     13  C   UNL     1       5.791   4.250  17.158  0.00  0.00    +0.000 C 
BRANCH  13  14
ATOM     14  C   UNL     1       7.171   4.877  17.217  0.00  0.00    +0.000 C 
ATOM     15  O   UNL     1       7.716   5.494  16.312  0.00  0.00    +0.000 OA
BRANCH  14  17
ATOM     16  C   UNL     1       7.991   5.775  19.213  0.00  0.00    +0.000 C 
ATOM     17  O   UNL     1       7.738   4.609  18.429  0.00  0.00    +0.000 OA
ENDBRANCH  14  17
ENDBRANCH  13  14
ENDBRANCH   1  13
BRANCH   7  18
ATOM     18  O   UNL     1       0.461   9.034  20.536  0.00  0.00    +0.000 OA
BRANCH  18  19
ATOM     19  C   UNL     1       1.013   9.901  21.539  0.00  0.00    +0.000 C 
ATOM     20  C   UNL     1       0.645  11.368  21.299  0.00  0.00    +0.000 C 
ATOM     21  C   UNL     1       0.416   9.462  22.876  0.00  0.00    +0.000 C 
ENDBRANCH  18  19
ENDBRANCH   7  18
TORSDOF 5
ENDMDL
MODEL 7
REMARK VINA RESULT:      -6.9      2.829      6.746
REMARK  Name = 
REMARK  9 active torsions:
REMARK  status: ('A' for Active; 'I' for Inactive)
REMARK    1  A    between atoms: C_1  and  O_2
REMARK    2  A    between atoms: O_2  and  C_3
REMARK    3  A    between atoms: C_3  and  C_5
REMARK    4  A    between atoms: C_5  and  C_6
REMARK    5  A    between atoms: C_7  and  C_8
REMARK    6  A    between atoms: C_12  and  O_13
REMARK    7  A    between atoms: O_13  and  C_14
REMARK    8  A    between atoms: C_14  and  C_15
REMARK    9  A    between atoms: C_14  and  C_16
REMARK                            x       y       z     vdW  Elec       q    Type
REMARK                         _______ _______ _______ _____ _____    ______ ____
ROOT
ATOM      1  C   UNL     1       4.651   5.043  17.896  0.00  0.00    +0.000 A 
ATOM      2  C   UNL     1       4.289   6.223  17.343  0.00  0.00    +0.000 A 
ATOM      3  C   UNL     1       4.823   6.730  16.029  0.00  0.00    +0.000 C 
ATOM      4  C   UNL     1       3.324   7.078  18.063  0.00  0.00    +0.000 A 
ATOM      5  C   UNL     1       2.907   8.339  17.617  0.00  0.00    +0.000 A 
ATOM      6  C   UNL     1       1.984   9.093  18.355  0.00  0.00    +0.000 A 
ATOM      7  C   UNL     1       1.466   8.611  19.557  0.00  0.00    +0.000 A 
ATOM      8  C   UNL     1       1.828   7.340  19.985  0.00  0.00    +0.000 A 
ATOM      9  C   UNL     1       2.768   6.613  19.251  0.00  0.00    +0.000 A 
ATOM     10  O   UNL     1       3.151   5.382  19.807  0.00  0.00    +0.000 OA
ATOM     11  C   UNL     1       4.134   4.609  19.221  0.00  0.00    +0.000 A 
ATOM     12  O   UNL     1       4.529   3.576  19.760  0.00  0.00    +0.000 OA
ENDROOT
BRANCH   1  13
ATOM     13  C   UNL     1       5.596   4.043  17.276  0.00  0.00    +0.000 C 
BRANCH  13  14
ATOM     14  C   UNL     1       7.024   4.549  17.342  0.00  0.00    +0.000 C 
ATOM     15  O   UNL     1       7.743   4.790  16.381  0.00  0.00    +0.000 OA
BRANCH  14  17
ATOM     16  C   UNL     1       7.942   5.935  18.985  0.00  0.00    +0.000 C 
ATOM     17  O   UNL     1       7.406   4.654  18.648  0.00  0.00    +0.000 OA
ENDBRANCH  14  17
ENDBRANCH  13  14
ENDBRANCH   1  13
BRANCH   7  18
ATOM     18  O   UNL     1       0.644   9.471  20.231  0.00  0.00    +0.000 OA
BRANCH  18  19
ATOM     19  C   UNL     1       0.481  10.795  19.698  0.00  0.00    +0.000 C 
ATOM     20  C   UNL     1      -0.967  11.076  19.288  0.00  0.00    +0.000 C 
ATOM     21  C   UNL     1       0.869  11.767  20.813  0.00  0.00    +0.000 C 
ENDBRANCH  18  19
ENDBRANCH   7  18
TORSDOF 5
ENDMDL
MODEL 8
REMARK VINA RESULT:      -6.9      1.375      6.661
REMARK  Name = 
REMARK  9 active torsions:
REMARK  status: ('A' for Active; 'I' for Inactive)
REMARK    1  A    between atoms: C_1  and  O_2
REMARK    2  A    between atoms: O_2  and  C_3
REMARK    3  A    between atoms: C_3  and  C_5
REMARK    4  A    between atoms: C_5  and  C_6
REMARK    5  A    between atoms: C_7  and  C_8
REMARK    6  A    between atoms: C_12  and  O_13
REMARK    7  A    between atoms: O_13  and  C_14
REMARK    8  A    between atoms: C_14  and  C_15
REMARK    9  A    between atoms: C_14  and  C_16
REMARK                            x       y       z     vdW  Elec       q    Type
REMARK                         _______ _______ _______ _____ _____    ______ ____
ROOT
ATOM      1  C   UNL     1       6.542   5.458  16.566  0.00  0.00    +0.000 A 
ATOM      2  C   UNL     1       5.312   6.018  16.624  0.00  0.00    +0.000 A 
ATOM      3  C   UNL     1       4.774   6.967  15.585  0.00  0.00    +0.000 C 
ATOM      4  C   UNL     1       4.441   5.698  17.772  0.00  0.00    +0.000 A 
ATOM      5  C   UNL     1       3.167   6.247  17.968  0.00  0.00    +0.000 A 
ATOM      6  C   UNL     1       2.395   5.893  19.084  0.00  0.00    +0.000 A 
ATOM      7  C   UNL     1       2.880   4.991  20.031  0.00  0.00    +0.000 A 
ATOM      8  C   UNL     1       4.118   4.396  19.822  0.00  0.00    +0.000 A 
ATOM      9  C   UNL     1       4.885   4.780  18.719  0.00  0.00    +0.000 A 
ATOM     10  O   UNL     1       6.162   4.204  18.639  0.00  0.00    +0.000 OA
ATOM     11  C   UNL     1       7.048   4.566  17.644  0.00  0.00    +0.000 A 
ATOM     12  O   UNL     1       8.196   4.127  17.629  0.00  0.00    +0.000 OA
ENDROOT
BRANCH   1  13
ATOM     13  C   UNL     1       7.537   5.655  15.449  0.00  0.00    +0.000 C 
BRANCH  13  14
ATOM     14  C   UNL     1       7.168   4.804  14.250  0.00  0.00    +0.000 C 
ATOM     15  O   UNL     1       6.492   3.785  14.275  0.00  0.00    +0.000 OA
BRANCH  14  17
ATOM     16  C   UNL     1       7.370   4.659  11.925  0.00  0.00    +0.000 C 
ATOM     17  O   UNL     1       7.745   5.329  13.129  0.00  0.00    +0.000 OA
ENDBRANCH  14  17
ENDBRANCH  13  14
ENDBRANCH   1  13
BRANCH   7  18
ATOM     18  O   UNL     1       2.077   4.791  21.118  0.00  0.00    +0.000 OA
BRANCH  18  19
ATOM     19  C   UNL     1       1.335   3.563  21.184  0.00  0.00    +0.000 C 
ATOM     20  C   UNL     1       0.847   3.110  19.805  0.00  0.00    +0.000 C 
ATOM     21  C   UNL     1       2.288   2.503  21.736  0.00  0.00    +0.000 C 
ENDBRANCH  18  19
ENDBRANCH   7  18
TORSDOF 5
ENDMDL
MODEL 9
REMARK VINA RESULT:      -6.9      2.849      6.966
REMARK  Name = 
REMARK  9 active torsions:
REMARK  status: ('A' for Active; 'I' for Inactive)
REMARK    1  A    between atoms: C_1  and  O_2
REMARK    2  A    between atoms: O_2  and  C_3
REMARK    3  A    between atoms: C_3  and  C_5
REMARK    4  A    between atoms: C_5  and  C_6
REMARK    5  A    between atoms: C_7  and  C_8
REMARK    6  A    between atoms: C_12  and  O_13
REMARK    7  A    between atoms: O_13  and  C_14
REMARK    8  A    between atoms: C_14  and  C_15
REMARK    9  A    between atoms: C_14  and  C_16
REMARK                            x       y       z     vdW  Elec       q    Type
REMARK                         _______ _______ _______ _____ _____    ______ ____
ROOT
ATOM      1  C   UNL     1       4.616   5.066  17.311  0.00  0.00    +0.000 A 
ATOM      2  C   UNL     1       3.905   4.829  18.436  0.00  0.00    +0.000 A 
ATOM      3  C   UNL     1       3.899   3.506  19.159  0.00  0.00    +0.000 C 
ATOM      4  C   UNL     1       3.073   5.914  18.993  0.00  0.00    +0.000 A 
ATOM      5  C   UNL     1       2.259   5.778  20.125  0.00  0.00    +0.000 A 
ATOM      6  C   UNL     1       1.499   6.857  20.597  0.00  0.00    +0.000 A 
ATOM      7  C   UNL     1       1.527   8.090  19.946  0.00  0.00    +0.000 A 
ATOM      8  C   UNL     1       2.371   8.257  18.856  0.00  0.00    +0.000 A 
ATOM      9  C   UNL     1       3.102   7.165  18.382  0.00  0.00    +0.000 A 
ATOM     10  O   UNL     1       3.852   7.395  17.219  0.00  0.00    +0.000 OA
ATOM     11  C   UNL     1       4.549   6.374  16.605  0.00  0.00    +0.000 A 
ATOM     12  O   UNL     1       5.131   6.559  15.537  0.00  0.00    +0.000 OA
ENDROOT
BRANCH   1  13
ATOM     13  C   UNL     1       5.536   4.079  16.635  0.00  0.00    +0.000 C 
BRANCH  13  14
ATOM     14  C   UNL     1       6.986   4.421  16.918  0.00  0.00    +0.000 C 
ATOM     15  O   UNL     1       7.846   4.646  16.078  0.00  0.00    +0.000 OA
BRANCH  14  17
ATOM     16  C   UNL     1       7.739   5.618  18.780  0.00  0.00    +0.000 C 
ATOM     17  O   UNL     1       7.200   4.400  18.266  0.00  0.00    +0.000 OA
ENDBRANCH  14  17
ENDBRANCH  13  14
ENDBRANCH   1  13
BRANCH   7  18
ATOM     18  O   UNL     1       0.678   9.038  20.445  0.00  0.00    +0.000 OA
BRANCH  18  19
ATOM     19  C   UNL     1       0.545  10.267  19.715  0.00  0.00    +0.000 C 
ATOM     20  C   UNL     1      -0.773  10.337  18.939  0.00  0.00    +0.000 C 
ATOM     21  C   UNL     1       0.563  11.395  20.748  0.00  0.00    +0.000 C 
ENDBRANCH  18  19
ENDBRANCH   7  18
TORSDOF 5
ENDMDL
