MODEL 1
REMARK VINA RESULT:      -6.6      0.000      0.000
REMARK  Name = 
REMARK  3 active torsions:
REMARK  status: ('A' for Active; 'I' for Inactive)
REMARK    1  A    between atoms: C_1  and  O_2
REMARK    2  A    between atoms: O_2  and  C_3
REMARK    3  A    between atoms: C_6  and  N_7
REMARK                            x       y       z     vdW  Elec       q    Type
REMARK                         _______ _______ _______ _____ _____    ______ ____
ROOT
ATOM      1  C   UNL     1       6.466   4.514  16.680  0.00  0.00    +0.000 A 
ATOM      2  C   UNL     1       5.265   4.109  16.105  0.00  0.00    +0.000 A 
ATOM      3  C   UNL     1       4.135   3.893  16.898  0.00  0.00    +0.000 A 
ATOM      4  C   UNL     1       4.181   4.077  18.287  0.00  0.00    +0.000 A 
ATOM      5  C   UNL     1       5.400   4.470  18.857  0.00  0.00    +0.000 A 
ATOM      6  C   UNL     1       6.537   4.677  18.058  0.00  0.00    +0.000 A 
ENDROOT
BRANCH   4   7
ATOM      7  N   UNL     1       3.004   3.926  19.071  0.00  0.00    +0.000 N 
ATOM      8  C   UNL     1       2.437   2.623  19.315  0.00  0.00    +0.000 C 
ATOM      9  S   UNL     1       1.596   2.747  20.917  0.00  0.00    +0.000 S 
ATOM     10  O   UNL     1       2.684   2.612  22.045  0.00  0.00    +0.000 OA
ATOM     11  C   UNL     1       1.299   4.504  20.647  0.00  0.00    +0.000 C 
ATOM     12  C   UNL     1       2.317   4.989  19.658  0.00  0.00    +0.000 C 
ATOM     13  O   UNL     1       2.439   6.182  19.400  0.00  0.00    +0.000 OA
ENDBRANCH   4   7
BRANCH   1  15
ATOM     14  C   UNL     1       7.137   4.870  14.443  0.00  0.00    +0.000 C 
ATOM     15  O   UNL     1       7.503   4.671  15.803  0.00  0.00    +0.000 OA
ENDBRANCH   1  15
TORSDOF 2
ENDMDL
MODEL 2
REMARK VINA RESULT:      -6.5      1.455      2.046
REMARK  Name = 
REMARK  3 active torsions:
REMARK  status: ('A' for Active; 'I' for Inactive)
REMARK    1  A    between atoms: C_1  and  O_2
REMARK    2  A    between atoms: O_2  and  C_3
REMARK    3  A    between atoms: C_6  and  N_7
REMARK                            x       y       z     vdW  Elec       q    Type
REMARK                         _______ _______ _______ _____ _____    ______ ____
ROOT
ATOM      1  C   UNL     1       6.750   4.745  16.395  0.00  0.00    +0.000 A 
ATOM      2  C   UNL     1       5.518   4.148  16.148  0.00  0.00    +0.000 A 
ATOM      3  C   UNL     1       4.641   3.866  17.199  0.00  0.00    +0.000 A 
ATOM      4  C   UNL     1       4.979   4.174  18.524  0.00  0.00    +0.000 A 
ATOM      5  C   UNL     1       6.230   4.761  18.763  0.00  0.00    +0.000 A 
ATOM      6  C   UNL     1       7.113   5.035  17.705  0.00  0.00    +0.000 A 
ENDROOT
BRANCH   4   7
ATOM      7  N   UNL     1       4.047   3.950  19.575  0.00  0.00    +0.000 N 
ATOM      8  C   UNL     1       3.072   4.952  19.927  0.00  0.00    +0.000 C 
ATOM      9  S   UNL     1       1.652   4.042  20.593  0.00  0.00    +0.000 S 
ATOM     10  O   UNL     1       0.818   3.491  19.378  0.00  0.00    +0.000 OA
ATOM     11  C   UNL     1       2.740   2.719  21.157  0.00  0.00    +0.000 C 
ATOM     12  C   UNL     1       3.991   2.779  20.331  0.00  0.00    +0.000 C 
ATOM     13  O   UNL     1       4.846   1.902  20.403  0.00  0.00    +0.000 OA
ENDBRANCH   4   7
BRANCH   1  15
ATOM     14  C   UNL     1       6.900   4.685  14.039  0.00  0.00    +0.000 C 
ATOM     15  O   UNL     1       7.526   4.950  15.288  0.00  0.00    +0.000 OA
ENDBRANCH   1  15
TORSDOF 2
ENDMDL
MODEL 3
REMARK VINA RESULT:      -6.5      1.463      2.351
REMARK  Name = 
REMARK  3 active torsions:
REMARK  status: ('A' for Active; 'I' for Inactive)
REMARK    1  A    between atoms: C_1  and  O_2
REMARK    2  A    between atoms: O_2  and  C_3
REMARK    3  A    between atoms: C_6  and  N_7
REMARK                            x       y       z     vdW  Elec       q    Type
REMARK                         _______ _______ _______ _____ _____    ______ ____
ROOT
ATOM      1  C   UNL     1       6.488   4.976  16.337  0.00  0.00    +0.000 A 
ATOM      2  C   UNL     1       6.882   5.216  17.649  0.00  0.00    +0.000 A 
ATOM      3  C   UNL     1       6.024   4.925  18.714  0.00  0.00    +0.000 A 
ATOM      4  C   UNL     1       4.750   4.387  18.488  0.00  0.00    +0.000 A 
ATOM      5  C   UNL     1       4.357   4.164  17.160  0.00  0.00    +0.000 A 
ATOM      6  C   UNL     1       5.218   4.466  16.092  0.00  0.00    +0.000 A 
ENDROOT
BRANCH   4   7
ATOM      7  N   UNL     1       3.918   4.026  19.583  0.00  0.00    +0.000 N 
ATOM      8  C   UNL     1       2.918   4.934  20.086  0.00  0.00    +0.000 C 
ATOM      9  S   UNL     1       1.610   3.888  20.780  0.00  0.00    +0.000 S 
ATOM     10  O   UNL     1       0.716   3.378  19.590  0.00  0.00    +0.000 OA
ATOM     11  C   UNL     1       2.813   2.599  21.155  0.00  0.00    +0.000 C 
ATOM     12  C   UNL     1       3.989   2.800  20.246  0.00  0.00    +0.000 C 
ATOM     13  O   UNL     1       4.897   1.977  20.184  0.00  0.00    +0.000 OA
ENDBRANCH   4   7
BRANCH   1  15
ATOM     14  C   UNL     1       7.147   4.838  14.073  0.00  0.00    +0.000 C 
ATOM     15  O   UNL     1       7.406   5.323  15.384  0.00  0.00    +0.000 OA
ENDBRANCH   1  15
TORSDOF 2
ENDMDL
MODEL 4
REMARK VINA RESULT:      -6.3      0.184      1.253
REMARK  Name = 
REMARK  3 active torsions:
REMARK  status: ('A' for Active; 'I' for Inactive)
REMARK    1  A    between atoms: C_1  and  O_2
REMARK    2  A    between atoms: O_2  and  C_3
REMARK    3  A    between atoms: C_6  and  N_7
REMARK                            x       y       z     vdW  Elec       q    Type
REMARK                         _______ _______ _______ _____ _____    ______ ____
ROOT
ATOM      1  C   UNL     1       6.272   4.449  16.576  0.00  0.00    +0.000 A 
ATOM      2  C   UNL     1       6.364   4.709  17.940  0.00  0.00    +0.000 A 
ATOM      3  C   UNL     1       5.242   4.582  18.765  0.00  0.00    +0.000 A 
ATOM      4  C   UNL     1       4.001   4.194  18.242  0.00  0.00    +0.000 A 
ATOM      5  C   UNL     1       3.917   3.950  16.864  0.00  0.00    +0.000 A 
ATOM      6  C   UNL     1       5.043   4.086  16.036  0.00  0.00    +0.000 A 
ENDROOT
BRANCH   4   7
ATOM      7  N   UNL     1       2.888   3.997  19.105  0.00  0.00    +0.000 N 
ATOM      8  C   UNL     1       2.340   2.681  19.319  0.00  0.00    +0.000 C 
ATOM      9  S   UNL     1       1.624   2.714  20.985  0.00  0.00    +0.000 S 
ATOM     10  O   UNL     1       2.795   2.521  22.018  0.00  0.00    +0.000 OA
ATOM     11  C   UNL     1       1.309   4.483  20.836  0.00  0.00    +0.000 C 
ATOM     12  C   UNL     1       2.249   5.024  19.800  0.00  0.00    +0.000 C 
ATOM     13  O   UNL     1       2.352   6.230  19.600  0.00  0.00    +0.000 OA
ENDBRANCH   4   7
BRANCH   1  15
ATOM     14  C   UNL     1       7.275   4.949  14.497  0.00  0.00    +0.000 C 
ATOM     15  O   UNL     1       7.431   4.628  15.874  0.00  0.00    +0.000 OA
ENDBRANCH   1  15
TORSDOF 2
ENDMDL
MODEL 5
REMARK VINA RESULT:      -6.3      1.567      2.105
REMARK  Name = 
REMARK  3 active torsions:
REMARK  status: ('A' for Active; 'I' for Inactive)
REMARK    1  A    between atoms: C_1  and  O_2
REMARK    2  A    between atoms: O_2  and  C_3
REMARK    3  A    between atoms: C_6  and  N_7
REMARK                            x       y       z     vdW  Elec       q    Type
REMARK                         _______ _______ _______ _____ _____    ______ ____
ROOT
ATOM      1  C   UNL     1       6.339   5.687  17.009  0.00  0.00    +0.000 A 
ATOM      2  C   UNL     1       5.941   5.909  18.323  0.00  0.00    +0.000 A 
ATOM      3  C   UNL     1       4.860   5.208  18.867  0.00  0.00    +0.000 A 
ATOM      4  C   UNL     1       4.151   4.270  18.105  0.00  0.00    +0.000 A 
ATOM      5  C   UNL     1       4.551   4.065  16.777  0.00  0.00    +0.000 A 
ATOM      6  C   UNL     1       5.632   4.777  16.231  0.00  0.00    +0.000 A 
ENDROOT
BRANCH   4   7
ATOM      7  N   UNL     1       3.102   3.511  18.694  0.00  0.00    +0.000 N 
ATOM      8  C   UNL     1       3.381   2.520  19.704  0.00  0.00    +0.000 C 
ATOM      9  S   UNL     1       1.893   2.443  20.738  0.00  0.00    +0.000 S 
ATOM     10  O   UNL     1       1.942   3.651  21.745  0.00  0.00    +0.000 OA
ATOM     11  C   UNL     1       0.871   2.936  19.338  0.00  0.00    +0.000 C 
ATOM     12  C   UNL     1       1.755   3.653  18.361  0.00  0.00    +0.000 C 
ATOM     13  O   UNL     1       1.291   4.226  17.380  0.00  0.00    +0.000 OA
ENDBRANCH   4   7
BRANCH   1  15
ATOM     14  C   UNL     1       7.659   7.614  17.357  0.00  0.00    +0.000 C 
ATOM     15  O   UNL     1       7.394   6.448  16.587  0.00  0.00    +0.000 OA
ENDBRANCH   1  15
TORSDOF 2
ENDMDL
MODEL 6
REMARK VINA RESULT:      -6.2      1.696      1.891
REMARK  Name = 
REMARK  3 active torsions:
REMARK  status: ('A' for Active; 'I' for Inactive)
REMARK    1  A    between atoms: C_1  and  O_2
REMARK    2  A    between atoms: O_2  and  C_3
REMARK    3  A    between atoms: C_6  and  N_7
REMARK                            x       y       z     vdW  Elec       q    Type
REMARK                         _______ _______ _______ _____ _____    ______ ____
ROOT
ATOM      1  C   UNL     1       6.555   6.484  17.655  0.00  0.00    +0.000 A 
ATOM      2  C   UNL     1       5.300   6.643  17.078  0.00  0.00    +0.000 A 
ATOM      3  C   UNL     1       4.186   5.983  17.605  0.00  0.00    +0.000 A 
ATOM      4  C   UNL     1       4.305   5.147  18.724  0.00  0.00    +0.000 A 
ATOM      5  C   UNL     1       5.578   4.982  19.288  0.00  0.00    +0.000 A 
ATOM      6  C   UNL     1       6.697   5.639  18.750  0.00  0.00    +0.000 A 
ENDROOT
BRANCH   4   7
ATOM      7  N   UNL     1       3.151   4.542  19.295  0.00  0.00    +0.000 N 
ATOM      8  C   UNL     1       2.918   3.125  19.170  0.00  0.00    +0.000 C 
ATOM      9  S   UNL     1       1.959   2.655  20.636  0.00  0.00    +0.000 S 
ATOM     10  O   UNL     1       2.961   2.502  21.839  0.00  0.00    +0.000 OA
ATOM     11  C   UNL     1       1.245   4.307  20.722  0.00  0.00    +0.000 C 
ATOM     12  C   UNL     1       2.176   5.241  20.006  0.00  0.00    +0.000 C 
ATOM     13  O   UNL     1       2.008   6.456  20.035  0.00  0.00    +0.000 OA
ENDBRANCH   4   7
BRANCH   1  15
ATOM     14  C   UNL     1       7.961   8.382  17.653  0.00  0.00    +0.000 C 
ATOM     15  O   UNL     1       7.567   7.163  17.035  0.00  0.00    +0.000 OA
ENDBRANCH   1  15
TORSDOF 2
ENDMDL
MODEL 7
REMARK VINA RESULT:      -6.2      2.120      2.529
REMARK  Name = 
REMARK  3 active torsions:
REMARK  status: ('A' for Active; 'I' for Inactive)
REMARK    1  A    between atoms: C_1  and  O_2
REMARK    2  A    between atoms: O_2  and  C_3
REMARK    3  A    between atoms: C_6  and  N_7
REMARK                            x       y       z     vdW  Elec       q    Type
REMARK                         _______ _______ _______ _____ _____    ______ ____
ROOT
ATOM      1  C   UNL     1       6.274   6.340  17.190  0.00  0.00    +0.000 A 
ATOM      2  C   UNL     1       6.613   5.080  17.672  0.00  0.00    +0.000 A 
ATOM      3  C   UNL     1       5.635   4.234  18.201  0.00  0.00    +0.000 A 
ATOM      4  C   UNL     1       4.293   4.631  18.262  0.00  0.00    +0.000 A 
ATOM      5  C   UNL     1       3.964   5.909  17.788  0.00  0.00    +0.000 A 
ATOM      6  C   UNL     1       4.951   6.761  17.264  0.00  0.00    +0.000 A 
ENDROOT
BRANCH   4   7
ATOM      7  N   UNL     1       3.297   3.731  18.734  0.00  0.00    +0.000 N 
ATOM      8  C   UNL     1       3.224   3.372  20.128  0.00  0.00    +0.000 C 
ATOM      9  S   UNL     1       1.479   2.992  20.444  0.00  0.00    +0.000 S 
ATOM     10  O   UNL     1       0.715   4.354  20.635  0.00  0.00    +0.000 OA
ATOM     11  C   UNL     1       1.261   2.475  18.731  0.00  0.00    +0.000 C 
ATOM     12  C   UNL     1       2.334   3.137  17.918  0.00  0.00    +0.000 C 
ATOM     13  O   UNL     1       2.336   3.076  16.693  0.00  0.00    +0.000 OA
ENDBRANCH   4   7
BRANCH   1  15
ATOM     14  C   UNL     1       7.766   8.132  17.566  0.00  0.00    +0.000 C 
ATOM     15  O   UNL     1       7.322   7.081  16.718  0.00  0.00    +0.000 OA
ENDBRANCH   1  15
TORSDOF 2
ENDMDL
MODEL 8
REMARK VINA RESULT:      -6.2      1.314      1.314
REMARK  Name = 
REMARK  3 active torsions:
REMARK  status: ('A' for Active; 'I' for Inactive)
REMARK    1  A    between atoms: C_1  and  O_2
REMARK    2  A    between atoms: O_2  and  C_3
REMARK    3  A    between atoms: C_6  and  N_7
REMARK                            x       y       z     vdW  Elec       q    Type
REMARK                         _______ _______ _______ _____ _____    ______ ____
ROOT
ATOM      1  C   UNL     1       6.197   5.160  16.390  0.00  0.00    +0.000 A 
ATOM      2  C   UNL     1       5.644   3.932  16.041  0.00  0.00    +0.000 A 
ATOM      3  C   UNL     1       4.637   3.357  16.822  0.00  0.00    +0.000 A 
ATOM      4  C   UNL     1       4.163   3.998  17.974  0.00  0.00    +0.000 A 
ATOM      5  C   UNL     1       4.739   5.228  18.326  0.00  0.00    +0.000 A 
ATOM      6  C   UNL     1       5.756   5.798  17.544  0.00  0.00    +0.000 A 
ENDROOT
BRANCH   4   7
ATOM      7  N   UNL     1       3.087   3.438  18.718  0.00  0.00    +0.000 N 
ATOM      8  C   UNL     1       3.336   2.558  19.832  0.00  0.00    +0.000 C 
ATOM      9  S   UNL     1       1.925   2.774  20.951  0.00  0.00    +0.000 S 
ATOM     10  O   UNL     1       2.165   4.087  21.784  0.00  0.00    +0.000 OA
ATOM     11  C   UNL     1       0.860   3.195  19.558  0.00  0.00    +0.000 C 
ATOM     12  C   UNL     1       1.741   3.683  18.446  0.00  0.00    +0.000 C 
ATOM     13  O   UNL     1       1.268   4.174  17.426  0.00  0.00    +0.000 OA
ENDBRANCH   4   7
BRANCH   1  15
ATOM     14  C   UNL     1       7.191   5.050  14.251  0.00  0.00    +0.000 C 
ATOM     15  O   UNL     1       7.187   5.606  15.559  0.00  0.00    +0.000 OA
ENDBRANCH   1  15
TORSDOF 2
ENDMDL
MODEL 9
REMARK VINA RESULT:      -6.2      1.819      2.142
REMARK  Name = 
REMARK  3 active torsions:
REMARK  status: ('A' for Active; 'I' for Inactive)
REMARK    1  A    between atoms: C_1  and  O_2
REMARK    2  A    between atoms: O_2  and  C_3
REMARK    3  A    between atoms: C_6  and  N_7
REMARK                            x       y       z     vdW  Elec       q    Type
REMARK                         _______ _______ _______ _____ _____    ______ ____
ROOT
ATOM      1  C   UNL     1       5.701   5.398  15.636  0.00  0.00    +0.000 A 
ATOM      2  C   UNL     1       5.417   4.048  15.817  0.00  0.00    +0.000 A 
ATOM      3  C   UNL     1       4.657   3.621  16.909  0.00  0.00    +0.000 A 
ATOM      4  C   UNL     1       4.164   4.537  17.848  0.00  0.00    +0.000 A 
ATOM      5  C   UNL     1       4.469   5.894  17.665  0.00  0.00    +0.000 A 
ATOM      6  C   UNL     1       5.241   6.318  16.571  0.00  0.00    +0.000 A 
ENDROOT
BRANCH   4   7
ATOM      7  N   UNL     1       3.329   4.097  18.912  0.00  0.00    +0.000 N 
ATOM      8  C   UNL     1       2.013   4.654  19.101  0.00  0.00    +0.000 C 
ATOM      9  S   UNL     1       1.034   3.344  19.885  0.00  0.00    +0.000 S 
ATOM     10  O   UNL     1       0.577   2.344  18.760  0.00  0.00    +0.000 OA
ATOM     11  C   UNL     1       2.519   2.667  20.651  0.00  0.00    +0.000 C 
ATOM     12  C   UNL     1       3.695   3.118  19.836  0.00  0.00    +0.000 C 
ATOM     13  O   UNL     1       4.822   2.683  20.047  0.00  0.00    +0.000 OA
ENDBRANCH   4   7
BRANCH   1  15
ATOM     14  C   UNL     1       6.813   4.579  13.720  0.00  0.00    +0.000 C 
ATOM     15  O   UNL     1       6.471   5.686  14.544  0.00  0.00    +0.000 OA
ENDBRANCH   1  15
TORSDOF 2
ENDMDL
