MODEL 1
REMARK VINA RESULT:      -8.0      0.000      0.000
REMARK  Name = 
REMARK  12 active torsions:
REMARK  status: ('A' for Active; 'I' for Inactive)
REMARK    1  A    between atoms: C_1  and  C_2
REMARK    2  A    between atoms: C_2  and  C_3
REMARK    3  A    between atoms: C_3  and  C_4
REMARK    4  A    between atoms: C_4  and  N_5
REMARK    5  A    between atoms: N_5  and  C_6
REMARK    6  A    between atoms: C_6  and  C_7
REMARK    7  A    between atoms: C_11  and  O_12
REMARK    8  A    between atoms: O_12  and  C_13
REMARK    9  A    between atoms: C_18  and  O_19
REMARK   10  A    between atoms: C_20  and  C_22
REMARK   11  A    between atoms: C_22  and  O_23
REMARK   12  A    between atoms: O_23  and  C_24
REMARK                            x       y       z     vdW  Elec       q    Type
REMARK                         _______ _______ _______ _____ _____    ______ ____
ROOT
ATOM      1  N   UNL     1       3.796   4.650  18.424  0.00  0.00    +0.000 N 
ATOM      2  C   UNL     1       2.650   5.441  18.320  0.00  0.00    +0.000 C 
ATOM      3  O   UNL     1       1.522   4.925  18.295  0.00  0.00    +0.000 OA
ENDROOT
BRANCH   1   4
ATOM      4  C   UNL     1       3.547   3.197  18.501  0.00  0.00    +0.000 C 
BRANCH   4   5
ATOM      5  C   UNL     1       3.412   2.595  19.916  0.00  0.00    +0.000 C 
BRANCH   5   7
ATOM      6  C   UNL     1       1.495   3.216  21.430  0.00  0.00    +0.000 C 
ATOM      7  C   UNL     1       1.985   2.253  20.350  0.00  0.00    +0.000 C 
ENDBRANCH   5   7
ENDBRANCH   4   5
ENDBRANCH   1   4
BRANCH   1   8
ATOM      8  C   UNL     1       5.195   5.039  18.157  0.00  0.00    +0.000 C 
BRANCH   8   9
ATOM      9  C   UNL     1       5.758   5.056  16.762  0.00  0.00    +0.000 A 
ATOM     10  C   UNL     1       5.167   4.305  15.739  0.00  0.00    +0.000 A 
ATOM     11  C   UNL     1       5.730   4.254  14.455  0.00  0.00    +0.000 A 
ATOM     12  C   UNL     1       5.109   3.553  13.406  0.00  0.00    +0.000 A 
ATOM     13  C   UNL     1       5.747   3.393  12.176  0.00  0.00    +0.000 A 
ATOM     14  C   UNL     1       7.006   3.953  11.998  0.00  0.00    +0.000 A 
ATOM     15  C   UNL     1       7.583   4.722  13.020  0.00  0.00    +0.000 A 
ATOM     16  C   UNL     1       6.960   4.901  14.252  0.00  0.00    +0.000 A 
ATOM     17  N   UNL     1       7.545   5.639  15.213  0.00  0.00    +0.000 NA
ATOM     18  C   UNL     1       6.930   5.708  16.413  0.00  0.00    +0.000 A 
BRANCH  13  19
ATOM     19  O   UNL     1       5.038   2.676  11.254  0.00  0.00    +0.000 OA
ATOM     20  C   UNL     1       3.741   3.153  10.918  0.00  0.00    +0.000 C 
ENDBRANCH  13  19
BRANCH  18  21
ATOM     21  O   UNL     1       7.630   6.442  17.310  0.00  0.00    +0.000 OA
ATOM     22  H   UNL     1       7.236   7.317  17.145  0.00  0.00    +0.000 HD
ENDBRANCH  18  21
ENDBRANCH   8   9
ENDBRANCH   1   8
BRANCH   2  23
ATOM     23  C   UNL     1       2.737   6.963  18.232  0.00  0.00    +0.000 C 
BRANCH  23  24
ATOM     24  O   UNL     1       2.448   7.652  19.437  0.00  0.00    +0.000 OA
BRANCH  24  25
ATOM     25  C   UNL     1       1.495   8.630  19.386  0.00  0.00    +0.000 A 
ATOM     26  C   UNL     1       1.085   9.298  18.233  0.00  0.00    +0.000 A 
ATOM     27  C   UNL     1       0.130  10.318  18.308  0.00  0.00    +0.000 A 
ATOM     28  C   UNL     1      -0.441  10.655  19.532  0.00  0.00    +0.000 A 
ATOM     29  C   UNL     1      -0.066   9.959  20.681  0.00  0.00    +0.000 A 
ATOM     30  C   UNL     1       0.896   8.949  20.608  0.00  0.00    +0.000 A 
ENDBRANCH  24  25
ENDBRANCH  23  24
ENDBRANCH   2  23
TORSDOF 10
ENDMDL
MODEL 2
REMARK VINA RESULT:      -8.0      3.066      8.256
REMARK  Name = 
REMARK  12 active torsions:
REMARK  status: ('A' for Active; 'I' for Inactive)
REMARK    1  A    between atoms: C_1  and  C_2
REMARK    2  A    between atoms: C_2  and  C_3
REMARK    3  A    between atoms: C_3  and  C_4
REMARK    4  A    between atoms: C_4  and  N_5
REMARK    5  A    between atoms: N_5  and  C_6
REMARK    6  A    between atoms: C_6  and  C_7
REMARK    7  A    between atoms: C_11  and  O_12
REMARK    8  A    between atoms: O_12  and  C_13
REMARK    9  A    between atoms: C_18  and  O_19
REMARK   10  A    between atoms: C_20  and  C_22
REMARK   11  A    between atoms: C_22  and  O_23
REMARK   12  A    between atoms: O_23  and  C_24
REMARK                            x       y       z     vdW  Elec       q    Type
REMARK                         _______ _______ _______ _____ _____    ______ ____
ROOT
ATOM      1  N   UNL     1       2.254   4.879  19.041  0.00  0.00    +0.000 N 
ATOM      2  C   UNL     1       2.665   4.099  17.958  0.00  0.00    +0.000 C 
ATOM      3  O   UNL     1       2.175   2.977  17.762  0.00  0.00    +0.000 OA
ENDROOT
BRANCH   1   4
ATOM      4  C   UNL     1       1.219   4.265  19.895  0.00  0.00    +0.000 C 
BRANCH   4   5
ATOM      5  C   UNL     1       1.666   3.810  21.300  0.00  0.00    +0.000 C 
BRANCH   5   7
ATOM      6  C   UNL     1       3.692   2.371  20.879  0.00  0.00    +0.000 C 
ATOM      7  C   UNL     1       2.248   2.396  21.377  0.00  0.00    +0.000 C 
ENDBRANCH   5   7
ENDBRANCH   4   5
ENDBRANCH   1   4
BRANCH   1   8
ATOM      8  C   UNL     1       2.923   6.066  19.610  0.00  0.00    +0.000 C 
BRANCH   8   9
ATOM      9  C   UNL     1       2.237   7.403  19.678  0.00  0.00    +0.000 A 
ATOM     10  C   UNL     1       1.535   7.793  20.826  0.00  0.00    +0.000 A 
ATOM     11  C   UNL     1       0.829   9.004  20.871  0.00  0.00    +0.000 A 
ATOM     12  C   UNL     1       0.173   9.433  22.038  0.00  0.00    +0.000 A 
ATOM     13  C   UNL     1      -0.640  10.565  22.030  0.00  0.00    +0.000 A 
ATOM     14  C   UNL     1      -0.781  11.278  20.845  0.00  0.00    +0.000 A 
ATOM     15  C   UNL     1      -0.058  10.893  19.704  0.00  0.00    +0.000 A 
ATOM     16  C   UNL     1       0.764   9.771  19.695  0.00  0.00    +0.000 A 
ATOM     17  N   UNL     1       1.438   9.426  18.582  0.00  0.00    +0.000 NA
ATOM     18  C   UNL     1       2.155   8.283  18.611  0.00  0.00    +0.000 A 
BRANCH  13  19
ATOM     19  O   UNL     1      -1.228  10.856  23.228  0.00  0.00    +0.000 OA
ATOM     20  C   UNL     1      -2.245  11.851  23.229  0.00  0.00    +0.000 C 
ENDBRANCH  13  19
BRANCH  18  21
ATOM     21  O   UNL     1       2.755   8.019  17.426  0.00  0.00    +0.000 OA
ATOM     22  H   UNL     1       2.711   7.047  17.435  0.00  0.00    +0.000 HD
ENDBRANCH  18  21
ENDBRANCH   8   9
ENDBRANCH   1   8
BRANCH   2  23
ATOM     23  C   UNL     1       3.728   4.591  16.979  0.00  0.00    +0.000 C 
BRANCH  23  24
ATOM     24  O   UNL     1       5.043   4.125  17.236  0.00  0.00    +0.000 OA
BRANCH  24  25
ATOM     25  C   UNL     1       5.979   5.055  17.591  0.00  0.00    +0.000 A 
ATOM     26  C   UNL     1       6.438   6.090  16.778  0.00  0.00    +0.000 A 
ATOM     27  C   UNL     1       7.435   6.959  17.232  0.00  0.00    +0.000 A 
ATOM     28  C   UNL     1       7.958   6.816  18.515  0.00  0.00    +0.000 A 
ATOM     29  C   UNL     1       7.470   5.810  19.348  0.00  0.00    +0.000 A 
ATOM     30  C   UNL     1       6.482   4.935  18.889  0.00  0.00    +0.000 A 
ENDBRANCH  24  25
ENDBRANCH  23  24
ENDBRANCH   2  23
TORSDOF 10
ENDMDL
MODEL 3
REMARK VINA RESULT:      -7.9      2.977      8.130
REMARK  Name = 
REMARK  12 active torsions:
REMARK  status: ('A' for Active; 'I' for Inactive)
REMARK    1  A    between atoms: C_1  and  C_2
REMARK    2  A    between atoms: C_2  and  C_3
REMARK    3  A    between atoms: C_3  and  C_4
REMARK    4  A    between atoms: C_4  and  N_5
REMARK    5  A    between atoms: N_5  and  C_6
REMARK    6  A    between atoms: C_6  and  C_7
REMARK    7  A    between atoms: C_11  and  O_12
REMARK    8  A    between atoms: O_12  and  C_13
REMARK    9  A    between atoms: C_18  and  O_19
REMARK   10  A    between atoms: C_20  and  C_22
REMARK   11  A    between atoms: C_22  and  O_23
REMARK   12  A    between atoms: O_23  and  C_24
REMARK                            x       y       z     vdW  Elec       q    Type
REMARK                         _______ _______ _______ _____ _____    ______ ____
ROOT
ATOM      1  N   UNL     1       2.409   4.764  18.562  0.00  0.00    +0.000 N 
ATOM      2  C   UNL     1       2.926   4.146  17.422  0.00  0.00    +0.000 C 
ATOM      3  O   UNL     1       2.441   3.086  16.999  0.00  0.00    +0.000 OA
ENDROOT
BRANCH   1   4
ATOM      4  C   UNL     1       1.272   4.063  19.191  0.00  0.00    +0.000 C 
BRANCH   4   5
ATOM      5  C   UNL     1       1.137   4.203  20.721  0.00  0.00    +0.000 C 
BRANCH   5   7
ATOM      6  C   UNL     1       2.808   2.317  20.672  0.00  0.00    +0.000 C 
ATOM      7  C   UNL     1       1.853   3.129  21.544  0.00  0.00    +0.000 C 
ENDBRANCH   5   7
ENDBRANCH   4   5
ENDBRANCH   1   4
BRANCH   1   8
ATOM      8  C   UNL     1       3.031   5.824  19.381  0.00  0.00    +0.000 C 
BRANCH   8   9
ATOM      9  C   UNL     1       2.437   7.203  19.471  0.00  0.00    +0.000 A 
ATOM     10  C   UNL     1       1.844   7.655  20.656  0.00  0.00    +0.000 A 
ATOM     11  C   UNL     1       1.221   8.910  20.726  0.00  0.00    +0.000 A 
ATOM     12  C   UNL     1       0.678   9.397  21.928  0.00  0.00    +0.000 A 
ATOM     13  C   UNL     1      -0.061  10.580  21.953  0.00  0.00    +0.000 A 
ATOM     14  C   UNL     1      -0.239  11.282  20.767  0.00  0.00    +0.000 A 
ATOM     15  C   UNL     1       0.377  10.834  19.587  0.00  0.00    +0.000 A 
ATOM     16  C   UNL     1       1.123   9.661  19.543  0.00  0.00    +0.000 A 
ATOM     17  N   UNL     1       1.694   9.257  18.393  0.00  0.00    +0.000 NA
ATOM     18  C   UNL     1       2.337   8.071  18.394  0.00  0.00    +0.000 A 
BRANCH  13  19
ATOM     19  O   UNL     1      -0.544  10.926  23.183  0.00  0.00    +0.000 OA
ATOM     20  C   UNL     1      -1.883  11.400  23.246  0.00  0.00    +0.000 C 
ENDBRANCH  13  19
BRANCH  18  21
ATOM     21  O   UNL     1       2.834   7.751  17.176  0.00  0.00    +0.000 OA
ATOM     22  H   UNL     1       2.055   7.948  16.626  0.00  0.00    +0.000 HD
ENDBRANCH  18  21
ENDBRANCH   8   9
ENDBRANCH   1   8
BRANCH   2  23
ATOM     23  C   UNL     1       4.103   4.745  16.655  0.00  0.00    +0.000 C 
BRANCH  23  24
ATOM     24  O   UNL     1       5.379   4.254  17.033  0.00  0.00    +0.000 OA
BRANCH  24  25
ATOM     25  C   UNL     1       6.274   5.157  17.532  0.00  0.00    +0.000 A 
ATOM     26  C   UNL     1       7.113   4.943  18.626  0.00  0.00    +0.000 A 
ATOM     27  C   UNL     1       7.960   5.959  19.079  0.00  0.00    +0.000 A 
ATOM     28  C   UNL     1       7.995   7.187  18.422  0.00  0.00    +0.000 A 
ATOM     29  C   UNL     1       7.191   7.390  17.301  0.00  0.00    +0.000 A 
ATOM     30  C   UNL     1       6.336   6.378  16.856  0.00  0.00    +0.000 A 
ENDBRANCH  24  25
ENDBRANCH  23  24
ENDBRANCH   2  23
TORSDOF 10
ENDMDL
MODEL 4
REMARK VINA RESULT:      -7.9      2.883      7.635
REMARK  Name = 
REMARK  12 active torsions:
REMARK  status: ('A' for Active; 'I' for Inactive)
REMARK    1  A    between atoms: C_1  and  C_2
REMARK    2  A    between atoms: C_2  and  C_3
REMARK    3  A    between atoms: C_3  and  C_4
REMARK    4  A    between atoms: C_4  and  N_5
REMARK    5  A    between atoms: N_5  and  C_6
REMARK    6  A    between atoms: C_6  and  C_7
REMARK    7  A    between atoms: C_11  and  O_12
REMARK    8  A    between atoms: O_12  and  C_13
REMARK    9  A    between atoms: C_18  and  O_19
REMARK   10  A    between atoms: C_20  and  C_22
REMARK   11  A    between atoms: C_22  and  O_23
REMARK   12  A    between atoms: O_23  and  C_24
REMARK                            x       y       z     vdW  Elec       q    Type
REMARK                         _______ _______ _______ _____ _____    ______ ____
ROOT
ATOM      1  N   UNL     1       4.876   5.390  17.334  0.00  0.00    +0.000 N 
ATOM      2  C   UNL     1       4.367   4.125  17.032  0.00  0.00    +0.000 C 
ATOM      3  O   UNL     1       5.112   3.134  16.989  0.00  0.00    +0.000 OA
ENDROOT
BRANCH   1   4
ATOM      4  C   UNL     1       6.329   5.433  17.591  0.00  0.00    +0.000 C 
BRANCH   4   5
ATOM      5  C   UNL     1       7.071   6.708  17.141  0.00  0.00    +0.000 C 
BRANCH   5   7
ATOM      6  C   UNL     1       8.155   8.841  17.932  0.00  0.00    +0.000 C 
ATOM      7  C   UNL     1       7.976   7.348  18.197  0.00  0.00    +0.000 C 
ENDBRANCH   5   7
ENDBRANCH   4   5
ENDBRANCH   1   4
BRANCH   1   8
ATOM      8  C   UNL     1       4.230   6.701  17.126  0.00  0.00    +0.000 C 
BRANCH   8   9
ATOM      9  C   UNL     1       3.185   7.227  18.071  0.00  0.00    +0.000 A 
ATOM     10  C   UNL     1       2.355   8.293  17.705  0.00  0.00    +0.000 A 
ATOM     11  C   UNL     1       1.429   8.839  18.607  0.00  0.00    +0.000 A 
ATOM     12  C   UNL     1       0.549   9.867  18.228  0.00  0.00    +0.000 A 
ATOM     13  C   UNL     1      -0.266  10.496  19.169  0.00  0.00    +0.000 A 
ATOM     14  C   UNL     1      -0.205  10.076  20.493  0.00  0.00    +0.000 A 
ATOM     15  C   UNL     1       0.614   8.993  20.849  0.00  0.00    +0.000 A 
ATOM     16  C   UNL     1       1.429   8.348  19.923  0.00  0.00    +0.000 A 
ATOM     17  N   UNL     1       2.207   7.316  20.301  0.00  0.00    +0.000 NA
ATOM     18  C   UNL     1       3.035   6.784  19.377  0.00  0.00    +0.000 A 
BRANCH  13  19
ATOM     19  O   UNL     1      -1.058  11.489  18.667  0.00  0.00    +0.000 OA
ATOM     20  C   UNL     1      -0.452  12.758  18.453  0.00  0.00    +0.000 C 
ENDBRANCH  13  19
BRANCH  18  21
ATOM     21  O   UNL     1       3.795   5.784  19.879  0.00  0.00    +0.000 OA
ATOM     22  H   UNL     1       4.319   5.565  19.088  0.00  0.00    +0.000 HD
ENDBRANCH  18  21
ENDBRANCH   8   9
ENDBRANCH   1   8
BRANCH   2  23
ATOM     23  C   UNL     1       2.884   3.911  16.740  0.00  0.00    +0.000 C 
BRANCH  23  24
ATOM     24  O   UNL     1       2.284   2.832  17.438  0.00  0.00    +0.000 OA
BRANCH  24  25
ATOM     25  C   UNL     1       2.074   2.991  18.778  0.00  0.00    +0.000 A 
ATOM     26  C   UNL     1       1.033   3.720  19.352  0.00  0.00    +0.000 A 
ATOM     27  C   UNL     1       0.943   3.854  20.741  0.00  0.00    +0.000 A 
ATOM     28  C   UNL     1       1.878   3.235  21.567  0.00  0.00    +0.000 A 
ATOM     29  C   UNL     1       2.895   2.468  20.999  0.00  0.00    +0.000 A 
ATOM     30  C   UNL     1       2.991   2.344  19.611  0.00  0.00    +0.000 A 
ENDBRANCH  24  25
ENDBRANCH  23  24
ENDBRANCH   2  23
TORSDOF 10
ENDMDL
MODEL 5
REMARK VINA RESULT:      -7.9      2.842      7.530
REMARK  Name = 
REMARK  12 active torsions:
REMARK  status: ('A' for Active; 'I' for Inactive)
REMARK    1  A    between atoms: C_1  and  C_2
REMARK    2  A    between atoms: C_2  and  C_3
REMARK    3  A    between atoms: C_3  and  C_4
REMARK    4  A    between atoms: C_4  and  N_5
REMARK    5  A    between atoms: N_5  and  C_6
REMARK    6  A    between atoms: C_6  and  C_7
REMARK    7  A    between atoms: C_11  and  O_12
REMARK    8  A    between atoms: O_12  and  C_13
REMARK    9  A    between atoms: C_18  and  O_19
REMARK   10  A    between atoms: C_20  and  C_22
REMARK   11  A    between atoms: C_22  and  O_23
REMARK   12  A    between atoms: O_23  and  C_24
REMARK                            x       y       z     vdW  Elec       q    Type
REMARK                         _______ _______ _______ _____ _____    ______ ____
ROOT
ATOM      1  N   UNL     1       4.869   5.299  17.173  0.00  0.00    +0.000 N 
ATOM      2  C   UNL     1       4.275   4.059  16.930  0.00  0.00    +0.000 C 
ATOM      3  O   UNL     1       4.965   3.032  16.835  0.00  0.00    +0.000 OA
ENDROOT
BRANCH   1   4
ATOM      4  C   UNL     1       6.339   5.272  17.303  0.00  0.00    +0.000 C 
BRANCH   4   5
ATOM      5  C   UNL     1       7.059   6.636  17.270  0.00  0.00    +0.000 C 
BRANCH   5   7
ATOM      6  C   UNL     1       7.951   5.770  19.462  0.00  0.00    +0.000 C 
ATOM      7  C   UNL     1       7.964   6.930  18.469  0.00  0.00    +0.000 C 
ENDBRANCH   5   7
ENDBRANCH   4   5
ENDBRANCH   1   4
BRANCH   1   8
ATOM      8  C   UNL     1       4.272   6.639  17.008  0.00  0.00    +0.000 C 
BRANCH   8   9
ATOM      9  C   UNL     1       3.252   7.175  17.975  0.00  0.00    +0.000 A 
ATOM     10  C   UNL     1       2.412   8.238  17.618  0.00  0.00    +0.000 A 
ATOM     11  C   UNL     1       1.511   8.793  18.538  0.00  0.00    +0.000 A 
ATOM     12  C   UNL     1       0.621   9.818  18.171  0.00  0.00    +0.000 A 
ATOM     13  C   UNL     1      -0.170  10.457  19.126  0.00  0.00    +0.000 A 
ATOM     14  C   UNL     1      -0.074  10.052  20.452  0.00  0.00    +0.000 A 
ATOM     15  C   UNL     1       0.754   8.972  20.798  0.00  0.00    +0.000 A 
ATOM     16  C   UNL     1       1.544   8.317  19.859  0.00  0.00    +0.000 A 
ATOM     17  N   UNL     1       2.333   7.290  20.227  0.00  0.00    +0.000 NA
ATOM     18  C   UNL     1       3.136   6.748  19.288  0.00  0.00    +0.000 A 
BRANCH  13  19
ATOM     19  O   UNL     1      -0.975  11.445  18.634  0.00  0.00    +0.000 OA
ATOM     20  C   UNL     1      -2.047  11.882  19.460  0.00  0.00    +0.000 C 
ENDBRANCH  13  19
BRANCH  18  21
ATOM     21  O   UNL     1       3.910   5.753  19.782  0.00  0.00    +0.000 OA
ATOM     22  H   UNL     1       3.925   6.010  20.721  0.00  0.00    +0.000 HD
ENDBRANCH  18  21
ENDBRANCH   8   9
ENDBRANCH   1   8
BRANCH   2  23
ATOM     23  C   UNL     1       2.763   3.916  16.772  0.00  0.00    +0.000 C 
BRANCH  23  24
ATOM     24  O   UNL     1       2.182   2.842  17.492  0.00  0.00    +0.000 OA
BRANCH  24  25
ATOM     25  C   UNL     1       2.151   2.945  18.854  0.00  0.00    +0.000 A 
ATOM     26  C   UNL     1       3.051   2.338  19.730  0.00  0.00    +0.000 A 
ATOM     27  C   UNL     1       2.895   2.476  21.113  0.00  0.00    +0.000 A 
ATOM     28  C   UNL     1       1.856   3.248  21.628  0.00  0.00    +0.000 A 
ATOM     29  C   UNL     1       0.981   3.893  20.754  0.00  0.00    +0.000 A 
ATOM     30  C   UNL     1       1.130   3.745  19.373  0.00  0.00    +0.000 A 
ENDBRANCH  24  25
ENDBRANCH  23  24
ENDBRANCH   2  23
TORSDOF 10
ENDMDL
MODEL 6
REMARK VINA RESULT:      -7.7      2.168      7.976
REMARK  Name = 
REMARK  12 active torsions:
REMARK  status: ('A' for Active; 'I' for Inactive)
REMARK    1  A    between atoms: C_1  and  C_2
REMARK    2  A    between atoms: C_2  and  C_3
REMARK    3  A    between atoms: C_3  and  C_4
REMARK    4  A    between atoms: C_4  and  N_5
REMARK    5  A    between atoms: N_5  and  C_6
REMARK    6  A    between atoms: C_6  and  C_7
REMARK    7  A    between atoms: C_11  and  O_12
REMARK    8  A    between atoms: O_12  and  C_13
REMARK    9  A    between atoms: C_18  and  O_19
REMARK   10  A    between atoms: C_20  and  C_22
REMARK   11  A    between atoms: C_22  and  O_23
REMARK   12  A    between atoms: O_23  and  C_24
REMARK                            x       y       z     vdW  Elec       q    Type
REMARK                         _______ _______ _______ _____ _____    ______ ____
ROOT
ATOM      1  N   UNL     1       4.853   6.053  17.714  0.00  0.00    +0.000 N 
ATOM      2  C   UNL     1       5.805   5.360  18.465  0.00  0.00    +0.000 C 
ATOM      3  O   UNL     1       6.986   5.298  18.091  0.00  0.00    +0.000 OA
ENDROOT
BRANCH   1   4
ATOM      4  C   UNL     1       5.368   6.684  16.483  0.00  0.00    +0.000 C 
BRANCH   4   5
ATOM      5  C   UNL     1       5.205   5.879  15.177  0.00  0.00    +0.000 C 
BRANCH   5   7
ATOM      6  C   UNL     1       6.010   3.948  13.772  0.00  0.00    +0.000 C 
ATOM      7  C   UNL     1       6.411   5.026  14.777  0.00  0.00    +0.000 C 
ENDBRANCH   5   7
ENDBRANCH   4   5
ENDBRANCH   1   4
BRANCH   1   8
ATOM      8  C   UNL     1       3.382   5.975  17.819  0.00  0.00    +0.000 C 
BRANCH   8   9
ATOM      9  C   UNL     1       2.589   7.000  18.583  0.00  0.00    +0.000 A 
ATOM     10  C   UNL     1       2.291   8.246  18.018  0.00  0.00    +0.000 A 
ATOM     11  C   UNL     1       1.618   9.235  18.751  0.00  0.00    +0.000 A 
ATOM     12  C   UNL     1       1.261  10.465  18.172  0.00  0.00    +0.000 A 
ATOM     13  C   UNL     1       0.720  11.492  18.946  0.00  0.00    +0.000 A 
ATOM     14  C   UNL     1       0.524  11.272  20.304  0.00  0.00    +0.000 A 
ATOM     15  C   UNL     1       0.805  10.013  20.859  0.00  0.00    +0.000 A 
ATOM     16  C   UNL     1       1.338   8.974  20.102  0.00  0.00    +0.000 A 
ATOM     17  N   UNL     1       1.602   7.782  20.668  0.00  0.00    +0.000 NA
ATOM     18  C   UNL     1       2.193   6.841  19.902  0.00  0.00    +0.000 A 
BRANCH  13  19
ATOM     19  O   UNL     1       0.436  12.637  18.259  0.00  0.00    +0.000 OA
ATOM     20  C   UNL     1      -0.503  13.531  18.845  0.00  0.00    +0.000 C 
ENDBRANCH  13  19
BRANCH  18  21
ATOM     21  O   UNL     1       2.446   5.701  20.587  0.00  0.00    +0.000 OA
ATOM     22  H   UNL     1       1.551   5.510  20.920  0.00  0.00    +0.000 HD
ENDBRANCH  18  21
ENDBRANCH   8   9
ENDBRANCH   1   8
BRANCH   2  23
ATOM     23  C   UNL     1       5.433   4.651  19.765  0.00  0.00    +0.000 C 
BRANCH  23  24
ATOM     24  O   UNL     1       5.231   3.252  19.651  0.00  0.00    +0.000 OA
BRANCH  24  25
ATOM     25  C   UNL     1       3.987   2.827  19.283  0.00  0.00    +0.000 A 
ATOM     26  C   UNL     1       3.599   2.489  17.986  0.00  0.00    +0.000 A 
ATOM     27  C   UNL     1       2.280   2.109  17.717  0.00  0.00    +0.000 A 
ATOM     28  C   UNL     1       1.348   2.035  18.749  0.00  0.00    +0.000 A 
ATOM     29  C   UNL     1       1.742   2.329  20.054  0.00  0.00    +0.000 A 
ATOM     30  C   UNL     1       3.057   2.720  20.320  0.00  0.00    +0.000 A 
ENDBRANCH  24  25
ENDBRANCH  23  24
ENDBRANCH   2  23
TORSDOF 10
ENDMDL
MODEL 7
REMARK VINA RESULT:      -7.7      0.658      1.133
REMARK  Name = 
REMARK  12 active torsions:
REMARK  status: ('A' for Active; 'I' for Inactive)
REMARK    1  A    between atoms: C_1  and  C_2
REMARK    2  A    between atoms: C_2  and  C_3
REMARK    3  A    between atoms: C_3  and  C_4
REMARK    4  A    between atoms: C_4  and  N_5
REMARK    5  A    between atoms: N_5  and  C_6
REMARK    6  A    between atoms: C_6  and  C_7
REMARK    7  A    between atoms: C_11  and  O_12
REMARK    8  A    between atoms: O_12  and  C_13
REMARK    9  A    between atoms: C_18  and  O_19
REMARK   10  A    between atoms: C_20  and  C_22
REMARK   11  A    between atoms: C_22  and  O_23
REMARK   12  A    between atoms: O_23  and  C_24
REMARK                            x       y       z     vdW  Elec       q    Type
REMARK                         _______ _______ _______ _____ _____    ______ ____
ROOT
ATOM      1  N   UNL     1       3.530   4.370  18.251  0.00  0.00    +0.000 N 
ATOM      2  C   UNL     1       2.481   5.278  18.096  0.00  0.00    +0.000 C 
ATOM      3  O   UNL     1       1.312   4.883  17.966  0.00  0.00    +0.000 OA
ENDROOT
BRANCH   1   4
ATOM      4  C   UNL     1       3.131   2.949  18.248  0.00  0.00    +0.000 C 
BRANCH   4   5
ATOM      5  C   UNL     1       2.966   2.277  19.628  0.00  0.00    +0.000 C 
BRANCH   5   7
ATOM      6  C   UNL     1       2.048   2.880  21.896  0.00  0.00    +0.000 C 
ATOM      7  C   UNL     1       1.721   2.694  20.416  0.00  0.00    +0.000 C 
ENDBRANCH   5   7
ENDBRANCH   4   5
ENDBRANCH   1   4
BRANCH   1   8
ATOM      8  C   UNL     1       4.977   4.622  18.105  0.00  0.00    +0.000 C 
BRANCH   8   9
ATOM      9  C   UNL     1       5.616   4.799  16.754  0.00  0.00    +0.000 A 
ATOM     10  C   UNL     1       5.242   3.996  15.670  0.00  0.00    +0.000 A 
ATOM     11  C   UNL     1       5.885   4.103  14.429  0.00  0.00    +0.000 A 
ATOM     12  C   UNL     1       5.474   3.345  13.318  0.00  0.00    +0.000 A 
ATOM     13  C   UNL     1       6.208   3.355  12.132  0.00  0.00    +0.000 A 
ATOM     14  C   UNL     1       7.350   4.144  12.060  0.00  0.00    +0.000 A 
ATOM     15  C   UNL     1       7.707   4.962  13.143  0.00  0.00    +0.000 A 
ATOM     16  C   UNL     1       6.984   4.972  14.332  0.00  0.00    +0.000 A 
ATOM     17  N   UNL     1       7.359   5.764  15.353  0.00  0.00    +0.000 NA
ATOM     18  C   UNL     1       6.667   5.669  16.507  0.00  0.00    +0.000 A 
BRANCH  13  19
ATOM     19  O   UNL     1       5.705   2.560  11.142  0.00  0.00    +0.000 OA
ATOM     20  C   UNL     1       6.026   1.175  11.194  0.00  0.00    +0.000 C 
ENDBRANCH  13  19
BRANCH  18  21
ATOM     21  O   UNL     1       7.158   6.481  17.473  0.00  0.00    +0.000 OA
ATOM     22  H   UNL     1       8.034   6.074  17.597  0.00  0.00    +0.000 HD
ENDBRANCH  18  21
ENDBRANCH   8   9
ENDBRANCH   1   8
BRANCH   2  23
ATOM     23  C   UNL     1       2.726   6.785  18.078  0.00  0.00    +0.000 C 
BRANCH  23  24
ATOM     24  O   UNL     1       2.580   7.433  19.332  0.00  0.00    +0.000 OA
BRANCH  24  25
ATOM     25  C   UNL     1       1.711   8.484  19.396  0.00  0.00    +0.000 A 
ATOM     26  C   UNL     1       1.083   8.945  20.553  0.00  0.00    +0.000 A 
ATOM     27  C   UNL     1       0.173  10.005  20.492  0.00  0.00    +0.000 A 
ATOM     28  C   UNL     1      -0.092  10.631  19.277  0.00  0.00    +0.000 A 
ATOM     29  C   UNL     1       0.567  10.203  18.124  0.00  0.00    +0.000 A 
ATOM     30  C   UNL     1       1.467   9.136  18.184  0.00  0.00    +0.000 A 
ENDBRANCH  24  25
ENDBRANCH  23  24
ENDBRANCH   2  23
TORSDOF 10
ENDMDL
MODEL 8
REMARK VINA RESULT:      -7.6      0.914      1.275
REMARK  Name = 
REMARK  12 active torsions:
REMARK  status: ('A' for Active; 'I' for Inactive)
REMARK    1  A    between atoms: C_1  and  C_2
REMARK    2  A    between atoms: C_2  and  C_3
REMARK    3  A    between atoms: C_3  and  C_4
REMARK    4  A    between atoms: C_4  and  N_5
REMARK    5  A    between atoms: N_5  and  C_6
REMARK    6  A    between atoms: C_6  and  C_7
REMARK    7  A    between atoms: C_11  and  O_12
REMARK    8  A    between atoms: O_12  and  C_13
REMARK    9  A    between atoms: C_18  and  O_19
REMARK   10  A    between atoms: C_20  and  C_22
REMARK   11  A    between atoms: C_22  and  O_23
REMARK   12  A    between atoms: O_23  and  C_24
REMARK                            x       y       z     vdW  Elec       q    Type
REMARK                         _______ _______ _______ _____ _____    ______ ____
ROOT
ATOM      1  N   UNL     1       3.684   5.191  18.482  0.00  0.00    +0.000 N 
ATOM      2  C   UNL     1       2.688   6.112  18.155  0.00  0.00    +0.000 C 
ATOM      3  O   UNL     1       1.495   5.773  18.122  0.00  0.00    +0.000 OA
ENDROOT
BRANCH   1   4
ATOM      4  C   UNL     1       3.201   3.828  18.777  0.00  0.00    +0.000 C 
BRANCH   4   5
ATOM      5  C   UNL     1       3.062   3.454  20.268  0.00  0.00    +0.000 C 
BRANCH   5   7
ATOM      6  C   UNL     1       0.665   2.851  19.773  0.00  0.00    +0.000 C 
ATOM      7  C   UNL     1       1.630   3.429  20.807  0.00  0.00    +0.000 C 
ENDBRANCH   5   7
ENDBRANCH   4   5
ENDBRANCH   1   4
BRANCH   1   8
ATOM      8  C   UNL     1       5.140   5.315  18.271  0.00  0.00    +0.000 C 
BRANCH   8   9
ATOM      9  C   UNL     1       5.747   5.269  16.895  0.00  0.00    +0.000 A 
ATOM     10  C   UNL     1       5.163   4.505  15.878  0.00  0.00    +0.000 A 
ATOM     11  C   UNL     1       5.762   4.395  14.614  0.00  0.00    +0.000 A 
ATOM     12  C   UNL     1       5.152   3.682  13.568  0.00  0.00    +0.000 A 
ATOM     13  C   UNL     1       5.821   3.462  12.365  0.00  0.00    +0.000 A 
ATOM     14  C   UNL     1       7.103   3.975  12.209  0.00  0.00    +0.000 A 
ATOM     15  C   UNL     1       7.673   4.758  13.225  0.00  0.00    +0.000 A 
ATOM     16  C   UNL     1       7.019   4.995  14.430  0.00  0.00    +0.000 A 
ATOM     17  N   UNL     1       7.599   5.745  15.387  0.00  0.00    +0.000 NA
ATOM     18  C   UNL     1       6.950   5.872  16.563  0.00  0.00    +0.000 A 
BRANCH  13  19
ATOM     19  O   UNL     1       5.117   2.739  11.443  0.00  0.00    +0.000 OA
ATOM     20  C   UNL     1       3.823   3.214  11.095  0.00  0.00    +0.000 C 
ENDBRANCH  13  19
BRANCH  18  21
ATOM     21  O   UNL     1       7.645   6.612  17.459  0.00  0.00    +0.000 OA
ATOM     22  H   UNL     1       8.483   6.116  17.463  0.00  0.00    +0.000 HD
ENDBRANCH  18  21
ENDBRANCH   8   9
ENDBRANCH   1   8
BRANCH   2  23
ATOM     23  C   UNL     1       3.022   7.565  17.823  0.00  0.00    +0.000 C 
BRANCH  23  24
ATOM     24  O   UNL     1       1.905   8.385  17.522  0.00  0.00    +0.000 OA
BRANCH  24  25
ATOM     25  C   UNL     1       1.609   9.389  18.400  0.00  0.00    +0.000 A 
ATOM     26  C   UNL     1       1.049   9.216  19.665  0.00  0.00    +0.000 A 
ATOM     27  C   UNL     1       0.746  10.324  20.463  0.00  0.00    +0.000 A 
ATOM     28  C   UNL     1       1.029  11.610  20.013  0.00  0.00    +0.000 A 
ATOM     29  C   UNL     1       1.631  11.785  18.767  0.00  0.00    +0.000 A 
ATOM     30  C   UNL     1       1.923  10.679  17.965  0.00  0.00    +0.000 A 
ENDBRANCH  24  25
ENDBRANCH  23  24
ENDBRANCH   2  23
TORSDOF 10
ENDMDL
MODEL 9
REMARK VINA RESULT:      -7.6      2.472      7.919
REMARK  Name = 
REMARK  12 active torsions:
REMARK  status: ('A' for Active; 'I' for Inactive)
REMARK    1  A    between atoms: C_1  and  C_2
REMARK    2  A    between atoms: C_2  and  C_3
REMARK    3  A    between atoms: C_3  and  C_4
REMARK    4  A    between atoms: C_4  and  N_5
REMARK    5  A    between atoms: N_5  and  C_6
REMARK    6  A    between atoms: C_6  and  C_7
REMARK    7  A    between atoms: C_11  and  O_12
REMARK    8  A    between atoms: O_12  and  C_13
REMARK    9  A    between atoms: C_18  and  O_19
REMARK   10  A    between atoms: C_20  and  C_22
REMARK   11  A    between atoms: C_22  and  O_23
REMARK   12  A    between atoms: O_23  and  C_24
REMARK                            x       y       z     vdW  Elec       q    Type
REMARK                         _______ _______ _______ _____ _____    ______ ____
ROOT
ATOM      1  N   UNL     1       5.100   5.547  18.030  0.00  0.00    +0.000 N 
ATOM      2  C   UNL     1       5.850   4.609  18.742  0.00  0.00    +0.000 C 
ATOM      3  O   UNL     1       7.044   4.412  18.471  0.00  0.00    +0.000 OA
ENDROOT
BRANCH   1   4
ATOM      4  C   UNL     1       5.838   6.257  16.966  0.00  0.00    +0.000 C 
BRANCH   4   5
ATOM      5  C   UNL     1       5.407   5.962  15.514  0.00  0.00    +0.000 C 
BRANCH   5   7
ATOM      6  C   UNL     1       6.176   3.583  15.194  0.00  0.00    +0.000 C 
ATOM      7  C   UNL     1       6.335   5.030  14.731  0.00  0.00    +0.000 C 
ENDBRANCH   5   7
ENDBRANCH   4   5
ENDBRANCH   1   4
BRANCH   1   8
ATOM      8  C   UNL     1       3.632   5.694  17.989  0.00  0.00    +0.000 C 
BRANCH   8   9
ATOM      9  C   UNL     1       2.951   6.960  18.433  0.00  0.00    +0.000 A 
ATOM     10  C   UNL     1       2.333   7.042  19.687  0.00  0.00    +0.000 A 
ATOM     11  C   UNL     1       1.630   8.191  20.078  0.00  0.00    +0.000 A 
ATOM     12  C   UNL     1       1.060   8.307  21.358  0.00  0.00    +0.000 A 
ATOM     13  C   UNL     1       0.247   9.391  21.685  0.00  0.00    +0.000 A 
ATOM     14  C   UNL     1       0.020  10.370  20.725  0.00  0.00    +0.000 A 
ATOM     15  C   UNL     1       0.660  10.292  19.478  0.00  0.00    +0.000 A 
ATOM     16  C   UNL     1       1.481   9.222  19.135  0.00  0.00    +0.000 A 
ATOM     17  N   UNL     1       2.073   9.175  17.927  0.00  0.00    +0.000 NA
ATOM     18  C   UNL     1       2.792   8.073  17.624  0.00  0.00    +0.000 A 
BRANCH  13  19
ATOM     19  O   UNL     1      -0.254   9.367  22.956  0.00  0.00    +0.000 OA
ATOM     20  C   UNL     1      -1.144  10.414  23.324  0.00  0.00    +0.000 C 
ENDBRANCH  13  19
BRANCH  18  21
ATOM     21  O   UNL     1       3.305   8.120  16.372  0.00  0.00    +0.000 OA
ATOM     22  H   UNL     1       4.239   8.289  16.586  0.00  0.00    +0.000 HD
ENDBRANCH  18  21
ENDBRANCH   8   9
ENDBRANCH   1   8
BRANCH   2  23
ATOM     23  C   UNL     1       5.235   3.791  19.875  0.00  0.00    +0.000 C 
BRANCH  23  24
ATOM     24  O   UNL     1       4.495   2.653  19.462  0.00  0.00    +0.000 OA
BRANCH  24  25
ATOM     25  C   UNL     1       3.133   2.731  19.538  0.00  0.00    +0.000 A 
ATOM     26  C   UNL     1       2.242   2.235  18.587  0.00  0.00    +0.000 A 
ATOM     27  C   UNL     1       0.864   2.412  18.747  0.00  0.00    +0.000 A 
ATOM     28  C   UNL     1       0.367   3.060  19.875  0.00  0.00    +0.000 A 
ATOM     29  C   UNL     1       1.253   3.518  20.850  0.00  0.00    +0.000 A 
ATOM     30  C   UNL     1       2.630   3.351  20.684  0.00  0.00    +0.000 A 
ENDBRANCH  24  25
ENDBRANCH  23  24
ENDBRANCH   2  23
TORSDOF 10
ENDMDL
