MODEL 1
REMARK VINA RESULT:      -8.2      0.000      0.000
REMARK  Name = 
REMARK  15 active torsions:
REMARK  status: ('A' for Active; 'I' for Inactive)
REMARK    1  A    between atoms: C_1  and  C_2
REMARK    2  A    between atoms: C_2  and  O_4
REMARK    3  A    between atoms: O_4  and  C_5
REMARK    4  A    between atoms: C_5  and  C_6
REMARK    5  A    between atoms: C_12  and  C_13
REMARK    6  A    between atoms: C_12  and  C_14
REMARK    7  A    between atoms: C_14  and  C_15
REMARK    8  A    between atoms: C_15  and  C_16
REMARK    9  A    between atoms: C_17  and  C_18
REMARK   10  A    between atoms: C_17  and  C_19
REMARK   11  A    between atoms: C_19  and  C_20
REMARK   12  A    between atoms: C_20  and  C_21
REMARK   13  A    between atoms: C_22  and  C_23
REMARK   14  A    between atoms: C_22  and  C_24
REMARK   15  A    between atoms: C_25  and  C_26
REMARK                            x       y       z     vdW  Elec       q    Type
REMARK                         _______ _______ _______ _____ _____    ______ ____
ROOT
ATOM      1  C   UNL     1       5.460   4.550  15.767  0.00  0.00    +0.000 C 
ATOM      2  C   UNL     1       4.567   3.923  16.557  0.00  0.00    +0.000 C 
ATOM      3  C   UNL     1       4.317   4.497  17.899  0.00  0.00    +0.000 C 
ATOM      4  C   UNL     1       4.380   6.021  18.022  0.00  0.00    +0.000 C 
ATOM      5  C   UNL     1       4.816   6.764  16.764  0.00  0.00    +0.000 C 
ATOM      6  C   UNL     1       5.916   5.965  16.059  0.00  0.00    +0.000 C 
ATOM      7  C   UNL     1       2.896   6.052  18.534  0.00  0.00    +0.000 C 
ATOM      8  C   UNL     1       1.844   6.608  17.554  0.00  0.00    +0.000 C 
ATOM      9  C   UNL     1       2.882   4.466  18.485  0.00  0.00    +0.000 C 
ENDROOT
BRANCH   9  10
ATOM     10  C   UNL     1       2.773   3.672  19.739  0.00  0.00    +0.000 C 
ATOM     11  C   UNL     1       1.661   3.496  20.447  0.00  0.00    +0.000 C 
ATOM     12  C   UNL     1       2.001   2.579  21.539  0.00  0.00    +0.000 C 
ATOM     13  O   UNL     1       1.239   2.230  22.421  0.00  0.00    +0.000 OA
ATOM     14  O   UNL     1       3.295   2.178  21.404  0.00  0.00    +0.000 OA
ATOM     15  C   UNL     1       3.874   2.846  20.287  0.00  0.00    +0.000 C 
ENDBRANCH   9  10
BRANCH   1  16
ATOM     16  C   UNL     1       6.097   3.855  14.596  0.00  0.00    +0.000 C 
BRANCH  16  17
ATOM     17  O   UNL     1       5.285   3.996  13.433  0.00  0.00    +0.000 OA
BRANCH  17  19
ATOM     18  C   UNL     1       4.661   2.828  11.516  0.00  0.00    +0.000 C 
ATOM     19  C   UNL     1       5.789   3.422  12.308  0.00  0.00    +0.000 C 
ATOM     20  O   UNL     1       6.963   3.380  11.979  0.00  0.00    +0.000 OA
ENDBRANCH  17  19
ENDBRANCH  16  17
ENDBRANCH   1  16
BRANCH   7  21
ATOM     21  C   UNL     1       2.800   6.775  19.893  0.00  0.00    +0.000 C 
BRANCH  21  22
ATOM     22  C   UNL     1       1.936   8.036  19.784  0.00  0.00    +0.000 C 
BRANCH  22  23
ATOM     23  C   UNL     1       1.111   8.263  21.007  0.00  0.00    +0.000 C 
ATOM     24  C   UNL     1       0.075   9.114  21.149  0.00  0.00    +0.000 C 
ATOM     25  C   UNL     1      -0.508   9.900  20.002  0.00  0.00    +0.000 C 
BRANCH  24  26
ATOM     26  C   UNL     1      -0.610   9.366  22.491  0.00  0.00    +0.000 C 
BRANCH  26  27
ATOM     27  C   UNL     1      -0.631  10.841  22.915  0.00  0.00    +0.000 C 
BRANCH  27  28
ATOM     28  C   UNL     1      -1.967  11.408  23.295  0.00  0.00    +0.000 C 
ATOM     29  C   UNL     1      -2.606  12.330  22.546  0.00  0.00    +0.000 C 
ATOM     30  C   UNL     1      -2.068  12.888  21.250  0.00  0.00    +0.000 C 
ATOM     31  C   UNL     1      -3.940  12.884  22.954  0.00  0.00    +0.000 C 
ENDBRANCH  27  28
ENDBRANCH  26  27
ENDBRANCH  24  26
ENDBRANCH  22  23
ENDBRANCH  21  22
ENDBRANCH   7  21
TORSDOF 10
ENDMDL
MODEL 2
REMARK VINA RESULT:      -7.9      3.045      9.393
REMARK  Name = 
REMARK  15 active torsions:
REMARK  status: ('A' for Active; 'I' for Inactive)
REMARK    1  A    between atoms: C_1  and  C_2
REMARK    2  A    between atoms: C_2  and  O_4
REMARK    3  A    between atoms: O_4  and  C_5
REMARK    4  A    between atoms: C_5  and  C_6
REMARK    5  A    between atoms: C_12  and  C_13
REMARK    6  A    between atoms: C_12  and  C_14
REMARK    7  A    between atoms: C_14  and  C_15
REMARK    8  A    between atoms: C_15  and  C_16
REMARK    9  A    between atoms: C_17  and  C_18
REMARK   10  A    between atoms: C_17  and  C_19
REMARK   11  A    between atoms: C_19  and  C_20
REMARK   12  A    between atoms: C_20  and  C_21
REMARK   13  A    between atoms: C_22  and  C_23
REMARK   14  A    between atoms: C_22  and  C_24
REMARK   15  A    between atoms: C_25  and  C_26
REMARK                            x       y       z     vdW  Elec       q    Type
REMARK                         _______ _______ _______ _____ _____    ______ ____
ROOT
ATOM      1  C   UNL     1       1.341   9.316  19.523  0.00  0.00    +0.000 C 
ATOM      2  C   UNL     1       1.588   8.202  20.240  0.00  0.00    +0.000 C 
ATOM      3  C   UNL     1       1.705   6.923  19.502  0.00  0.00    +0.000 C 
ATOM      4  C   UNL     1       2.329   6.985  18.106  0.00  0.00    +0.000 C 
ATOM      5  C   UNL     1       2.648   8.384  17.590  0.00  0.00    +0.000 C 
ATOM      6  C   UNL     1       1.537   9.348  18.021  0.00  0.00    +0.000 C 
ATOM      7  C   UNL     1       3.456   5.988  18.555  0.00  0.00    +0.000 C 
ATOM      8  C   UNL     1       4.866   6.584  18.738  0.00  0.00    +0.000 C 
ATOM      9  C   UNL     1       2.741   5.869  19.966  0.00  0.00    +0.000 C 
ENDROOT
BRANCH   9  10
ATOM     10  C   UNL     1       2.125   4.584  20.395  0.00  0.00    +0.000 C 
ATOM     11  C   UNL     1       2.376   3.950  21.537  0.00  0.00    +0.000 C 
ATOM     12  C   UNL     1       1.485   2.786  21.575  0.00  0.00    +0.000 C 
ATOM     13  O   UNL     1       1.472   1.945  22.452  0.00  0.00    +0.000 OA
ATOM     14  O   UNL     1       0.675   2.804  20.481  0.00  0.00    +0.000 OA
ATOM     15  C   UNL     1       1.030   3.911  19.658  0.00  0.00    +0.000 C 
ENDBRANCH   9  10
BRANCH   1  16
ATOM     16  C   UNL     1       0.796  10.559  20.168  0.00  0.00    +0.000 C 
BRANCH  16  17
ATOM     17  O   UNL     1       0.025  11.308  19.230  0.00  0.00    +0.000 OA
BRANCH  17  19
ATOM     18  C   UNL     1      -0.718  12.863  20.798  0.00  0.00    +0.000 C 
ATOM     19  C   UNL     1      -0.041  12.643  19.477  0.00  0.00    +0.000 C 
ATOM     20  O   UNL     1       0.371  13.534  18.753  0.00  0.00    +0.000 OA
ENDBRANCH  17  19
ENDBRANCH  16  17
ENDBRANCH   1  16
BRANCH   7  21
ATOM     21  C   UNL     1       3.508   4.763  17.619  0.00  0.00    +0.000 C 
BRANCH  21  22
ATOM     22  C   UNL     1       4.902   4.127  17.625  0.00  0.00    +0.000 C 
BRANCH  22  23
ATOM     23  C   UNL     1       5.511   4.090  16.262  0.00  0.00    +0.000 C 
ATOM     24  C   UNL     1       6.514   4.860  15.793  0.00  0.00    +0.000 C 
ATOM     25  C   UNL     1       7.286   5.824  16.657  0.00  0.00    +0.000 C 
BRANCH  24  26
ATOM     26  C   UNL     1       6.964   4.830  14.334  0.00  0.00    +0.000 C 
BRANCH  26  27
ATOM     27  C   UNL     1       5.915   4.265  13.365  0.00  0.00    +0.000 C 
BRANCH  27  28
ATOM     28  C   UNL     1       6.290   3.013  12.629  0.00  0.00    +0.000 C 
ATOM     29  C   UNL     1       5.510   2.469  11.674  0.00  0.00    +0.000 C 
ATOM     30  C   UNL     1       4.188   3.049  11.229  0.00  0.00    +0.000 C 
ATOM     31  C   UNL     1       5.908   1.212  10.958  0.00  0.00    +0.000 C 
ENDBRANCH  27  28
ENDBRANCH  26  27
ENDBRANCH  24  26
ENDBRANCH  22  23
ENDBRANCH  21  22
ENDBRANCH   7  21
TORSDOF 10
ENDMDL
MODEL 3
REMARK VINA RESULT:      -7.7      4.322      8.543
REMARK  Name = 
REMARK  15 active torsions:
REMARK  status: ('A' for Active; 'I' for Inactive)
REMARK    1  A    between atoms: C_1  and  C_2
REMARK    2  A    between atoms: C_2  and  O_4
REMARK    3  A    between atoms: O_4  and  C_5
REMARK    4  A    between atoms: C_5  and  C_6
REMARK    5  A    between atoms: C_12  and  C_13
REMARK    6  A    between atoms: C_12  and  C_14
REMARK    7  A    between atoms: C_14  and  C_15
REMARK    8  A    between atoms: C_15  and  C_16
REMARK    9  A    between atoms: C_17  and  C_18
REMARK   10  A    between atoms: C_17  and  C_19
REMARK   11  A    between atoms: C_19  and  C_20
REMARK   12  A    between atoms: C_20  and  C_21
REMARK   13  A    between atoms: C_22  and  C_23
REMARK   14  A    between atoms: C_22  and  C_24
REMARK   15  A    between atoms: C_25  and  C_26
REMARK                            x       y       z     vdW  Elec       q    Type
REMARK                         _______ _______ _______ _____ _____    ______ ____
ROOT
ATOM      1  C   UNL     1       2.343   3.905  18.256  0.00  0.00    +0.000 C 
ATOM      2  C   UNL     1       3.438   3.557  17.552  0.00  0.00    +0.000 C 
ATOM      3  C   UNL     1       4.209   4.642  16.903  0.00  0.00    +0.000 C 
ATOM      4  C   UNL     1       4.272   5.982  17.639  0.00  0.00    +0.000 C 
ATOM      5  C   UNL     1       3.426   6.077  18.905  0.00  0.00    +0.000 C 
ATOM      6  C   UNL     1       2.102   5.338  18.685  0.00  0.00    +0.000 C 
ATOM      7  C   UNL     1       5.839   5.891  17.693  0.00  0.00    +0.000 C 
ATOM      8  C   UNL     1       6.463   5.597  19.071  0.00  0.00    +0.000 C 
ATOM      9  C   UNL     1       5.755   4.549  16.850  0.00  0.00    +0.000 C 
ENDROOT
BRANCH   9  10
ATOM     10  C   UNL     1       6.296   4.492  15.464  0.00  0.00    +0.000 C 
ATOM     11  C   UNL     1       5.780   3.787  14.461  0.00  0.00    +0.000 C 
ATOM     12  C   UNL     1       6.579   4.103  13.274  0.00  0.00    +0.000 C 
ATOM     13  O   UNL     1       6.427   3.601  12.176  0.00  0.00    +0.000 OA
ATOM     14  O   UNL     1       7.507   5.047  13.592  0.00  0.00    +0.000 OA
ATOM     15  C   UNL     1       7.411   5.341  14.982  0.00  0.00    +0.000 C 
ENDBRANCH   9  10
BRANCH   1  16
ATOM     16  C   UNL     1       1.274   2.903  18.592  0.00  0.00    +0.000 C 
BRANCH  16  17
ATOM     17  O   UNL     1       1.776   1.926  19.500  0.00  0.00    +0.000 OA
BRANCH  17  19
ATOM     18  C   UNL     1       3.454   2.350  21.059  0.00  0.00    +0.000 C 
ATOM     19  C   UNL     1       1.983   2.372  20.768  0.00  0.00    +0.000 C 
ATOM     20  O   UNL     1       1.125   2.730  21.557  0.00  0.00    +0.000 OA
ENDBRANCH  17  19
ENDBRANCH  16  17
ENDBRANCH   1  16
BRANCH   7  21
ATOM     21  C   UNL     1       6.483   7.146  17.068  0.00  0.00    +0.000 C 
BRANCH  21  22
ATOM     22  C   UNL     1       7.605   7.688  17.959  0.00  0.00    +0.000 C 
BRANCH  22  23
ATOM     23  C   UNL     1       8.032   9.061  17.558  0.00  0.00    +0.000 C 
ATOM     24  C   UNL     1       8.684   9.969  18.312  0.00  0.00    +0.000 C 
ATOM     25  C   UNL     1       9.214   9.666  19.690  0.00  0.00    +0.000 C 
BRANCH  24  26
ATOM     26  C   UNL     1       8.947  11.398  17.841  0.00  0.00    +0.000 C 
BRANCH  26  27
ATOM     27  C   UNL     1      10.434  11.736  17.669  0.00  0.00    +0.000 C 
BRANCH  27  28
ATOM     28  C   UNL     1      10.766  13.173  17.392  0.00  0.00    +0.000 C 
ATOM     29  C   UNL     1      10.176  14.195  18.043  0.00  0.00    +0.000 C 
ATOM     30  C   UNL     1       9.133  14.022  19.122  0.00  0.00    +0.000 C 
ATOM     31  C   UNL     1      10.524  15.623  17.740  0.00  0.00    +0.000 C 
ENDBRANCH  27  28
ENDBRANCH  26  27
ENDBRANCH  24  26
ENDBRANCH  22  23
ENDBRANCH  21  22
ENDBRANCH   7  21
TORSDOF 10
ENDMDL
MODEL 4
REMARK VINA RESULT:      -7.7      0.967      1.265
REMARK  Name = 
REMARK  15 active torsions:
REMARK  status: ('A' for Active; 'I' for Inactive)
REMARK    1  A    between atoms: C_1  and  C_2
REMARK    2  A    between atoms: C_2  and  O_4
REMARK    3  A    between atoms: O_4  and  C_5
REMARK    4  A    between atoms: C_5  and  C_6
REMARK    5  A    between atoms: C_12  and  C_13
REMARK    6  A    between atoms: C_12  and  C_14
REMARK    7  A    between atoms: C_14  and  C_15
REMARK    8  A    between atoms: C_15  and  C_16
REMARK    9  A    between atoms: C_17  and  C_18
REMARK   10  A    between atoms: C_17  and  C_19
REMARK   11  A    between atoms: C_19  and  C_20
REMARK   12  A    between atoms: C_20  and  C_21
REMARK   13  A    between atoms: C_22  and  C_23
REMARK   14  A    between atoms: C_22  and  C_24
REMARK   15  A    between atoms: C_25  and  C_26
REMARK                            x       y       z     vdW  Elec       q    Type
REMARK                         _______ _______ _______ _____ _____    ______ ____
ROOT
ATOM      1  C   UNL     1       5.394   4.933  15.881  0.00  0.00    +0.000 C 
ATOM      2  C   UNL     1       4.275   4.378  16.384  0.00  0.00    +0.000 C 
ATOM      3  C   UNL     1       3.888   4.744  17.766  0.00  0.00    +0.000 C 
ATOM      4  C   UNL     1       4.198   6.174  18.214  0.00  0.00    +0.000 C 
ATOM      5  C   UNL     1       4.982   7.021  17.218  0.00  0.00    +0.000 C 
ATOM      6  C   UNL     1       6.034   6.145  16.527  0.00  0.00    +0.000 C 
ATOM      7  C   UNL     1       2.674   6.426  18.499  0.00  0.00    +0.000 C 
ATOM      8  C   UNL     1       1.937   7.356  17.517  0.00  0.00    +0.000 C 
ATOM      9  C   UNL     1       2.388   4.913  18.117  0.00  0.00    +0.000 C 
ENDROOT
BRANCH   9  10
ATOM     10  C   UNL     1       1.910   3.950  19.146  0.00  0.00    +0.000 C 
ATOM     11  C   UNL     1       2.232   3.977  20.437  0.00  0.00    +0.000 C 
ATOM     12  C   UNL     1       1.465   2.906  21.081  0.00  0.00    +0.000 C 
ATOM     13  O   UNL     1       1.544   2.600  22.255  0.00  0.00    +0.000 OA
ATOM     14  O   UNL     1       0.651   2.319  20.161  0.00  0.00    +0.000 OA
ATOM     15  C   UNL     1       0.885   2.912  18.888  0.00  0.00    +0.000 C 
ENDBRANCH   9  10
BRANCH   1  16
ATOM     16  C   UNL     1       6.102   4.339  14.696  0.00  0.00    +0.000 C 
BRANCH  16  17
ATOM     17  O   UNL     1       5.160   3.944  13.701  0.00  0.00    +0.000 OA
BRANCH  17  19
ATOM     18  C   UNL     1       4.599   3.189  11.570  0.00  0.00    +0.000 C 
ATOM     19  C   UNL     1       5.698   3.622  12.495  0.00  0.00    +0.000 C 
ATOM     20  O   UNL     1       6.880   3.665  12.195  0.00  0.00    +0.000 OA
ENDBRANCH  17  19
ENDBRANCH  16  17
ENDBRANCH   1  16
BRANCH   7  21
ATOM     21  C   UNL     1       2.459   6.900  19.951  0.00  0.00    +0.000 C 
BRANCH  21  22
ATOM     22  C   UNL     1       1.974   8.352  19.988  0.00  0.00    +0.000 C 
BRANCH  22  23
ATOM     23  C   UNL     1       1.249   8.674  21.254  0.00  0.00    +0.000 C 
ATOM     24  C   UNL     1       0.114   9.389  21.388  0.00  0.00    +0.000 C 
ATOM     25  C   UNL     1      -0.693   9.880  20.213  0.00  0.00    +0.000 C 
BRANCH  24  26
ATOM     26  C   UNL     1      -0.464   9.774  22.748  0.00  0.00    +0.000 C 
BRANCH  26  27
ATOM     27  C   UNL     1      -1.442  10.957  22.700  0.00  0.00    +0.000 C 
BRANCH  27  28
ATOM     28  C   UNL     1      -0.848  12.323  22.866  0.00  0.00    +0.000 C 
ATOM     29  C   UNL     1      -1.050  13.318  21.980  0.00  0.00    +0.000 C 
ATOM     30  C   UNL     1      -1.894  13.183  20.735  0.00  0.00    +0.000 C 
ATOM     31  C   UNL     1      -0.438  14.675  22.170  0.00  0.00    +0.000 C 
ENDBRANCH  27  28
ENDBRANCH  26  27
ENDBRANCH  24  26
ENDBRANCH  22  23
ENDBRANCH  21  22
ENDBRANCH   7  21
TORSDOF 10
ENDMDL
MODEL 5
REMARK VINA RESULT:      -7.7      1.523      2.351
REMARK  Name = 
REMARK  15 active torsions:
REMARK  status: ('A' for Active; 'I' for Inactive)
REMARK    1  A    between atoms: C_1  and  C_2
REMARK    2  A    between atoms: C_2  and  O_4
REMARK    3  A    between atoms: O_4  and  C_5
REMARK    4  A    between atoms: C_5  and  C_6
REMARK    5  A    between atoms: C_12  and  C_13
REMARK    6  A    between atoms: C_12  and  C_14
REMARK    7  A    between atoms: C_14  and  C_15
REMARK    8  A    between atoms: C_15  and  C_16
REMARK    9  A    between atoms: C_17  and  C_18
REMARK   10  A    between atoms: C_17  and  C_19
REMARK   11  A    between atoms: C_19  and  C_20
REMARK   12  A    between atoms: C_20  and  C_21
REMARK   13  A    between atoms: C_22  and  C_23
REMARK   14  A    between atoms: C_22  and  C_24
REMARK   15  A    between atoms: C_25  and  C_26
REMARK                            x       y       z     vdW  Elec       q    Type
REMARK                         _______ _______ _______ _____ _____    ______ ____
ROOT
ATOM      1  C   UNL     1       5.100   4.655  15.739  0.00  0.00    +0.000 C 
ATOM      2  C   UNL     1       4.221   4.059  16.568  0.00  0.00    +0.000 C 
ATOM      3  C   UNL     1       4.099   4.600  17.942  0.00  0.00    +0.000 C 
ATOM      4  C   UNL     1       4.274   6.111  18.108  0.00  0.00    +0.000 C 
ATOM      5  C   UNL     1       4.675   6.870  16.847  0.00  0.00    +0.000 C 
ATOM      6  C   UNL     1       5.670   6.025  16.043  0.00  0.00    +0.000 C 
ATOM      7  C   UNL     1       2.832   6.221  18.720  0.00  0.00    +0.000 C 
ATOM      8  C   UNL     1       1.759   6.881  17.833  0.00  0.00    +0.000 C 
ATOM      9  C   UNL     1       2.708   4.642  18.622  0.00  0.00    +0.000 C 
ENDROOT
BRANCH   9  10
ATOM     10  C   UNL     1       2.628   3.813  19.855  0.00  0.00    +0.000 C 
ATOM     11  C   UNL     1       1.522   3.575  20.556  0.00  0.00    +0.000 C 
ATOM     12  C   UNL     1       1.897   2.644  21.624  0.00  0.00    +0.000 C 
ATOM     13  O   UNL     1       1.148   2.242  22.495  0.00  0.00    +0.000 OA
ATOM     14  O   UNL     1       3.205   2.298  21.482  0.00  0.00    +0.000 OA
ATOM     15  C   UNL     1       3.759   3.017  20.385  0.00  0.00    +0.000 C 
ENDBRANCH   9  10
BRANCH   1  16
ATOM     16  C   UNL     1       5.610   3.962  14.506  0.00  0.00    +0.000 C 
BRANCH  16  17
ATOM     17  O   UNL     1       6.939   4.385  14.212  0.00  0.00    +0.000 OA
BRANCH  17  19
ATOM     18  C   UNL     1       8.151   5.630  12.660  0.00  0.00    +0.000 C 
ATOM     19  C   UNL     1       7.238   4.462  12.887  0.00  0.00    +0.000 C 
ATOM     20  O   UNL     1       6.836   3.715  12.010  0.00  0.00    +0.000 OA
ENDBRANCH  17  19
ENDBRANCH  16  17
ENDBRANCH   1  16
BRANCH   7  21
ATOM     21  C   UNL     1       2.875   6.899  20.105  0.00  0.00    +0.000 C 
BRANCH  21  22
ATOM     22  C   UNL     1       1.468   7.293  20.567  0.00  0.00    +0.000 C 
BRANCH  22  23
ATOM     23  C   UNL     1       1.215   8.757  20.421  0.00  0.00    +0.000 C 
ATOM     24  C   UNL     1       0.309   9.501  21.087  0.00  0.00    +0.000 C 
ATOM     25  C   UNL     1      -0.528   8.961  22.219  0.00  0.00    +0.000 C 
BRANCH  24  26
ATOM     26  C   UNL     1       0.041  10.968  20.757  0.00  0.00    +0.000 C 
BRANCH  26  27
ATOM     27  C   UNL     1      -1.230  11.201  19.928  0.00  0.00    +0.000 C 
BRANCH  27  28
ATOM     28  C   UNL     1      -1.249  10.607  18.551  0.00  0.00    +0.000 C 
ATOM     29  C   UNL     1      -2.348  10.615  17.770  0.00  0.00    +0.000 C 
ATOM     30  C   UNL     1      -3.670  11.221  18.176  0.00  0.00    +0.000 C 
ATOM     31  C   UNL     1      -2.338  10.008  16.397  0.00  0.00    +0.000 C 
ENDBRANCH  27  28
ENDBRANCH  26  27
ENDBRANCH  24  26
ENDBRANCH  22  23
ENDBRANCH  21  22
ENDBRANCH   7  21
TORSDOF 10
ENDMDL
MODEL 6
REMARK VINA RESULT:      -7.6      1.697      2.362
REMARK  Name = 
REMARK  15 active torsions:
REMARK  status: ('A' for Active; 'I' for Inactive)
REMARK    1  A    between atoms: C_1  and  C_2
REMARK    2  A    between atoms: C_2  and  O_4
REMARK    3  A    between atoms: O_4  and  C_5
REMARK    4  A    between atoms: C_5  and  C_6
REMARK    5  A    between atoms: C_12  and  C_13
REMARK    6  A    between atoms: C_12  and  C_14
REMARK    7  A    between atoms: C_14  and  C_15
REMARK    8  A    between atoms: C_15  and  C_16
REMARK    9  A    between atoms: C_17  and  C_18
REMARK   10  A    between atoms: C_17  and  C_19
REMARK   11  A    between atoms: C_19  and  C_20
REMARK   12  A    between atoms: C_20  and  C_21
REMARK   13  A    between atoms: C_22  and  C_23
REMARK   14  A    between atoms: C_22  and  C_24
REMARK   15  A    between atoms: C_25  and  C_26
REMARK                            x       y       z     vdW  Elec       q    Type
REMARK                         _______ _______ _______ _____ _____    ______ ____
ROOT
ATOM      1  C   UNL     1       5.427   4.565  15.623  0.00  0.00    +0.000 C 
ATOM      2  C   UNL     1       4.542   3.966  16.443  0.00  0.00    +0.000 C 
ATOM      3  C   UNL     1       4.361   4.542  17.795  0.00  0.00    +0.000 C 
ATOM      4  C   UNL     1       4.485   6.062  17.922  0.00  0.00    +0.000 C 
ATOM      5  C   UNL     1       4.902   6.796  16.652  0.00  0.00    +0.000 C 
ATOM      6  C   UNL     1       5.946   5.960  15.904  0.00  0.00    +0.000 C 
ATOM      7  C   UNL     1       3.022   6.145  18.487  0.00  0.00    +0.000 C 
ATOM      8  C   UNL     1       1.957   6.745  17.548  0.00  0.00    +0.000 C 
ATOM      9  C   UNL     1       2.948   4.561  18.432  0.00  0.00    +0.000 C 
ENDROOT
BRANCH   9  10
ATOM     10  C   UNL     1       2.855   3.765  19.686  0.00  0.00    +0.000 C 
ATOM     11  C   UNL     1       1.748   3.573  20.399  0.00  0.00    +0.000 C 
ATOM     12  C   UNL     1       2.106   2.660  21.489  0.00  0.00    +0.000 C 
ATOM     13  O   UNL     1       1.353   2.300  22.373  0.00  0.00    +0.000 OA
ATOM     14  O   UNL     1       3.404   2.277  21.348  0.00  0.00    +0.000 OA
ATOM     15  C   UNL     1       3.969   2.953  20.229  0.00  0.00    +0.000 C 
ENDBRANCH   9  10
BRANCH   1  16
ATOM     16  C   UNL     1       5.996   3.853  14.427  0.00  0.00    +0.000 C 
BRANCH  16  17
ATOM     17  O   UNL     1       5.033   3.798  13.377  0.00  0.00    +0.000 OA
BRANCH  17  19
ATOM     18  C   UNL     1       6.926   3.645  12.028  0.00  0.00    +0.000 C 
ATOM     19  C   UNL     1       5.485   3.268  12.210  0.00  0.00    +0.000 C 
ATOM     20  O   UNL     1       4.840   2.598  11.421  0.00  0.00    +0.000 OA
ENDBRANCH  17  19
ENDBRANCH  16  17
ENDBRANCH   1  16
BRANCH   7  21
ATOM     21  C   UNL     1       3.001   6.863  19.851  0.00  0.00    +0.000 C 
BRANCH  21  22
ATOM     22  C   UNL     1       1.577   7.283  20.229  0.00  0.00    +0.000 C 
BRANCH  22  23
ATOM     23  C   UNL     1       1.458   8.757  20.435  0.00  0.00    +0.000 C 
ATOM     24  C   UNL     1       0.535   9.409  21.170  0.00  0.00    +0.000 C 
ATOM     25  C   UNL     1      -0.477   8.702  22.035  0.00  0.00    +0.000 C 
BRANCH  24  26
ATOM     26  C   UNL     1       0.425  10.932  21.197  0.00  0.00    +0.000 C 
BRANCH  26  27
ATOM     27  C   UNL     1       0.226  11.570  19.815  0.00  0.00    +0.000 C 
BRANCH  27  28
ATOM     28  C   UNL     1       0.515  13.037  19.707  0.00  0.00    +0.000 C 
ATOM     29  C   UNL     1       1.535  13.527  18.974  0.00  0.00    +0.000 C 
ATOM     30  C   UNL     1       2.489  12.672  18.175  0.00  0.00    +0.000 C 
ATOM     31  C   UNL     1       1.803  15.001  18.889  0.00  0.00    +0.000 C 
ENDBRANCH  27  28
ENDBRANCH  26  27
ENDBRANCH  24  26
ENDBRANCH  22  23
ENDBRANCH  21  22
ENDBRANCH   7  21
TORSDOF 10
ENDMDL
MODEL 7
REMARK VINA RESULT:      -7.5      4.490      8.498
REMARK  Name = 
REMARK  15 active torsions:
REMARK  status: ('A' for Active; 'I' for Inactive)
REMARK    1  A    between atoms: C_1  and  C_2
REMARK    2  A    between atoms: C_2  and  O_4
REMARK    3  A    between atoms: O_4  and  C_5
REMARK    4  A    between atoms: C_5  and  C_6
REMARK    5  A    between atoms: C_12  and  C_13
REMARK    6  A    between atoms: C_12  and  C_14
REMARK    7  A    between atoms: C_14  and  C_15
REMARK    8  A    between atoms: C_15  and  C_16
REMARK    9  A    between atoms: C_17  and  C_18
REMARK   10  A    between atoms: C_17  and  C_19
REMARK   11  A    between atoms: C_19  and  C_20
REMARK   12  A    between atoms: C_20  and  C_21
REMARK   13  A    between atoms: C_22  and  C_23
REMARK   14  A    between atoms: C_22  and  C_24
REMARK   15  A    between atoms: C_25  and  C_26
REMARK                            x       y       z     vdW  Elec       q    Type
REMARK                         _______ _______ _______ _____ _____    ______ ____
ROOT
ATOM      1  C   UNL     1       2.534   3.939  18.050  0.00  0.00    +0.000 C 
ATOM      2  C   UNL     1       3.598   3.645  17.278  0.00  0.00    +0.000 C 
ATOM      3  C   UNL     1       4.372   4.776  16.717  0.00  0.00    +0.000 C 
ATOM      4  C   UNL     1       4.486   6.033  17.582  0.00  0.00    +0.000 C 
ATOM      5  C   UNL     1       3.683   6.014  18.878  0.00  0.00    +0.000 C 
ATOM      6  C   UNL     1       2.337   5.325  18.630  0.00  0.00    +0.000 C 
ATOM      7  C   UNL     1       6.052   5.909  17.574  0.00  0.00    +0.000 C 
ATOM      8  C   UNL     1       6.712   5.465  18.893  0.00  0.00    +0.000 C 
ATOM      9  C   UNL     1       5.913   4.662  16.602  0.00  0.00    +0.000 C 
ENDROOT
BRANCH   9  10
ATOM     10  C   UNL     1       6.409   4.737  15.201  0.00  0.00    +0.000 C 
ATOM     11  C   UNL     1       7.443   5.462  14.785  0.00  0.00    +0.000 C 
ATOM     12  C   UNL     1       7.621   5.160  13.362  0.00  0.00    +0.000 C 
ATOM     13  O   UNL     1       8.445   5.681  12.635  0.00  0.00    +0.000 OA
ATOM     14  O   UNL     1       6.728   4.203  12.990  0.00  0.00    +0.000 OA
ATOM     15  C   UNL     1       5.896   3.887  14.102  0.00  0.00    +0.000 C 
ENDBRANCH   9  10
BRANCH   1  16
ATOM     16  C   UNL     1       1.455   2.927  18.318  0.00  0.00    +0.000 C 
BRANCH  16  17
ATOM     17  O   UNL     1       1.158   2.874  19.711  0.00  0.00    +0.000 OA
BRANCH  17  19
ATOM     18  C   UNL     1       2.053   3.408  21.795  0.00  0.00    +0.000 C 
ATOM     19  C   UNL     1       2.227   2.640  20.518  0.00  0.00    +0.000 C 
ATOM     20  O   UNL     1       3.184   1.928  20.263  0.00  0.00    +0.000 OA
ENDBRANCH  17  19
ENDBRANCH  16  17
ENDBRANCH   1  16
BRANCH   7  21
ATOM     21  C   UNL     1       6.702   7.209  17.058  0.00  0.00    +0.000 C 
BRANCH  21  22
ATOM     22  C   UNL     1       7.623   7.820  18.119  0.00  0.00    +0.000 C 
BRANCH  22  23
ATOM     23  C   UNL     1       8.269   9.081  17.648  0.00  0.00    +0.000 C 
ATOM     24  C   UNL     1       8.905  10.004  18.397  0.00  0.00    +0.000 C 
ATOM     25  C   UNL     1       9.178   9.825  19.868  0.00  0.00    +0.000 C 
BRANCH  24  26
ATOM     26  C   UNL     1       9.409  11.328  17.824  0.00  0.00    +0.000 C 
BRANCH  26  27
ATOM     27  C   UNL     1       8.812  12.570  18.501  0.00  0.00    +0.000 C 
BRANCH  27  28
ATOM     28  C   UNL     1       9.745  13.724  18.722  0.00  0.00    +0.000 C 
ATOM     29  C   UNL     1      10.333  13.967  19.911  0.00  0.00    +0.000 C 
ATOM     30  C   UNL     1      10.136  13.115  21.142  0.00  0.00    +0.000 C 
ATOM     31  C   UNL     1      11.258  15.133  20.104  0.00  0.00    +0.000 C 
ENDBRANCH  27  28
ENDBRANCH  26  27
ENDBRANCH  24  26
ENDBRANCH  22  23
ENDBRANCH  21  22
ENDBRANCH   7  21
TORSDOF 10
ENDMDL
MODEL 8
REMARK VINA RESULT:      -7.4      1.091      1.364
REMARK  Name = 
REMARK  15 active torsions:
REMARK  status: ('A' for Active; 'I' for Inactive)
REMARK    1  A    between atoms: C_1  and  C_2
REMARK    2  A    between atoms: C_2  and  O_4
REMARK    3  A    between atoms: O_4  and  C_5
REMARK    4  A    between atoms: C_5  and  C_6
REMARK    5  A    between atoms: C_12  and  C_13
REMARK    6  A    between atoms: C_12  and  C_14
REMARK    7  A    between atoms: C_14  and  C_15
REMARK    8  A    between atoms: C_15  and  C_16
REMARK    9  A    between atoms: C_17  and  C_18
REMARK   10  A    between atoms: C_17  and  C_19
REMARK   11  A    between atoms: C_19  and  C_20
REMARK   12  A    between atoms: C_20  and  C_21
REMARK   13  A    between atoms: C_22  and  C_23
REMARK   14  A    between atoms: C_22  and  C_24
REMARK   15  A    between atoms: C_25  and  C_26
REMARK                            x       y       z     vdW  Elec       q    Type
REMARK                         _______ _______ _______ _____ _____    ______ ____
ROOT
ATOM      1  C   UNL     1       5.407   4.475  16.069  0.00  0.00    +0.000 C 
ATOM      2  C   UNL     1       4.500   3.847  16.841  0.00  0.00    +0.000 C 
ATOM      3  C   UNL     1       4.145   4.478  18.133  0.00  0.00    +0.000 C 
ATOM      4  C   UNL     1       4.131   6.008  18.175  0.00  0.00    +0.000 C 
ATOM      5  C   UNL     1       4.605   6.705  16.904  0.00  0.00    +0.000 C 
ATOM      6  C   UNL     1       5.781   5.924  16.307  0.00  0.00    +0.000 C 
ATOM      7  C   UNL     1       2.619   5.993  18.600  0.00  0.00    +0.000 C 
ATOM      8  C   UNL     1       1.603   6.445  17.533  0.00  0.00    +0.000 C 
ATOM      9  C   UNL     1       2.681   4.408  18.638  0.00  0.00    +0.000 C 
ENDROOT
BRANCH   9  10
ATOM     10  C   UNL     1       2.535   3.677  19.926  0.00  0.00    +0.000 C 
ATOM     11  C   UNL     1       1.394   3.498  20.587  0.00  0.00    +0.000 C 
ATOM     12  C   UNL     1       1.709   2.651  21.742  0.00  0.00    +0.000 C 
ATOM     13  O   UNL     1       0.916   2.322  22.602  0.00  0.00    +0.000 OA
ATOM     14  O   UNL     1       3.020   2.290  21.691  0.00  0.00    +0.000 OA
ATOM     15  C   UNL     1       3.633   2.919  20.570  0.00  0.00    +0.000 C 
ENDBRANCH   9  10
BRANCH   1  16
ATOM     16  C   UNL     1       6.143   3.751  14.976  0.00  0.00    +0.000 C 
BRANCH  16  17
ATOM     17  O   UNL     1       6.455   4.645  13.910  0.00  0.00    +0.000 OA
BRANCH  17  19
ATOM     18  C   UNL     1       5.145   3.346  12.487  0.00  0.00    +0.000 C 
ATOM     19  C   UNL     1       6.436   4.089  12.669  0.00  0.00    +0.000 C 
ATOM     20  O   UNL     1       7.316   4.165  11.828  0.00  0.00    +0.000 OA
ENDBRANCH  17  19
ENDBRANCH  16  17
ENDBRANCH   1  16
BRANCH   7  21
ATOM     21  C   UNL     1       2.410   6.781  19.909  0.00  0.00    +0.000 C 
BRANCH  21  22
ATOM     22  C   UNL     1       1.880   8.189  19.624  0.00  0.00    +0.000 C 
BRANCH  22  23
ATOM     23  C   UNL     1       1.272   8.820  20.833  0.00  0.00    +0.000 C 
ATOM     24  C   UNL     1       0.187   9.618  20.881  0.00  0.00    +0.000 C 
ATOM     25  C   UNL     1      -0.686   9.895  19.684  0.00  0.00    +0.000 C 
BRANCH  24  26
ATOM     26  C   UNL     1      -0.265  10.322  22.159  0.00  0.00    +0.000 C 
BRANCH  26  27
ATOM     27  C   UNL     1      -1.050  11.619  21.916  0.00  0.00    +0.000 C 
BRANCH  27  28
ATOM     28  C   UNL     1      -0.241  12.872  21.761  0.00  0.00    +0.000 C 
ATOM     29  C   UNL     1      -0.428  13.960  22.534  0.00  0.00    +0.000 C 
ATOM     30  C   UNL     1      -1.453  14.046  23.640  0.00  0.00    +0.000 C 
ATOM     31  C   UNL     1       0.394  15.203  22.352  0.00  0.00    +0.000 C 
ENDBRANCH  27  28
ENDBRANCH  26  27
ENDBRANCH  24  26
ENDBRANCH  22  23
ENDBRANCH  21  22
ENDBRANCH   7  21
TORSDOF 10
ENDMDL
MODEL 9
REMARK VINA RESULT:      -7.4      4.429      8.224
REMARK  Name = 
REMARK  15 active torsions:
REMARK  status: ('A' for Active; 'I' for Inactive)
REMARK    1  A    between atoms: C_1  and  C_2
REMARK    2  A    between atoms: C_2  and  O_4
REMARK    3  A    between atoms: O_4  and  C_5
REMARK    4  A    between atoms: C_5  and  C_6
REMARK    5  A    between atoms: C_12  and  C_13
REMARK    6  A    between atoms: C_12  and  C_14
REMARK    7  A    between atoms: C_14  and  C_15
REMARK    8  A    between atoms: C_15  and  C_16
REMARK    9  A    between atoms: C_17  and  C_18
REMARK   10  A    between atoms: C_17  and  C_19
REMARK   11  A    between atoms: C_19  and  C_20
REMARK   12  A    between atoms: C_20  and  C_21
REMARK   13  A    between atoms: C_22  and  C_23
REMARK   14  A    between atoms: C_22  and  C_24
REMARK   15  A    between atoms: C_25  and  C_26
REMARK                            x       y       z     vdW  Elec       q    Type
REMARK                         _______ _______ _______ _____ _____    ______ ____
ROOT
ATOM      1  C   UNL     1       2.439   4.632  18.186  0.00  0.00    +0.000 C 
ATOM      2  C   UNL     1       3.440   4.105  17.455  0.00  0.00    +0.000 C 
ATOM      3  C   UNL     1       4.377   5.046  16.797  0.00  0.00    +0.000 C 
ATOM      4  C   UNL     1       4.690   6.344  17.543  0.00  0.00    +0.000 C 
ATOM      5  C   UNL     1       3.901   6.571  18.828  0.00  0.00    +0.000 C 
ATOM      6  C   UNL     1       2.463   6.079  18.632  0.00  0.00    +0.000 C 
ATOM      7  C   UNL     1       6.218   5.978  17.560  0.00  0.00    +0.000 C 
ATOM      8  C   UNL     1       6.809   5.563  18.921  0.00  0.00    +0.000 C 
ATOM      9  C   UNL     1       5.881   4.683  16.708  0.00  0.00    +0.000 C 
ENDROOT
BRANCH   9  10
ATOM     10  C   UNL     1       6.375   4.549  15.310  0.00  0.00    +0.000 C 
ATOM     11  C   UNL     1       5.865   3.740  14.385  0.00  0.00    +0.000 C 
ATOM     12  C   UNL     1       6.601   4.006  13.146  0.00  0.00    +0.000 C 
ATOM     13  O   UNL     1       6.440   3.412  12.097  0.00  0.00    +0.000 OA
ATOM     14  O   UNL     1       7.482   5.022  13.354  0.00  0.00    +0.000 OA
ATOM     15  C   UNL     1       7.420   5.418  14.721  0.00  0.00    +0.000 C 
ENDBRANCH   9  10
BRANCH   1  16
ATOM     16  C   UNL     1       1.217   3.829  18.537  0.00  0.00    +0.000 C 
BRANCH  16  17
ATOM     17  O   UNL     1       0.916   3.964  19.924  0.00  0.00    +0.000 OA
BRANCH  17  19
ATOM     18  C   UNL     1       1.831   1.822  19.941  0.00  0.00    +0.000 C 
ATOM     19  C   UNL     1       1.523   3.057  20.735  0.00  0.00    +0.000 C 
ATOM     20  O   UNL     1       1.779   3.202  21.919  0.00  0.00    +0.000 OA
ENDBRANCH  17  19
ENDBRANCH  16  17
ENDBRANCH   1  16
BRANCH   7  21
ATOM     21  C   UNL     1       7.059   7.108  16.931  0.00  0.00    +0.000 C 
BRANCH  21  22
ATOM     22  C   UNL     1       7.848   7.866  18.004  0.00  0.00    +0.000 C 
BRANCH  22  23
ATOM     23  C   UNL     1       8.143   9.273  17.600  0.00  0.00    +0.000 C 
ATOM     24  C   UNL     1       8.734  10.230  18.342  0.00  0.00    +0.000 C 
ATOM     25  C   UNL     1       9.326   9.969  19.704  0.00  0.00    +0.000 C 
BRANCH  24  26
ATOM     26  C   UNL     1       8.859  11.679  17.875  0.00  0.00    +0.000 C 
BRANCH  26  27
ATOM     27  C   UNL     1       9.650  12.580  18.834  0.00  0.00    +0.000 C 
BRANCH  27  28
ATOM     28  C   UNL     1       8.867  13.634  19.559  0.00  0.00    +0.000 C 
ATOM     29  C   UNL     1       8.826  14.919  19.154  0.00  0.00    +0.000 C 
ATOM     30  C   UNL     1       9.543  15.445  17.935  0.00  0.00    +0.000 C 
ATOM     31  C   UNL     1       8.038  15.953  19.905  0.00  0.00    +0.000 C 
ENDBRANCH  27  28
ENDBRANCH  26  27
ENDBRANCH  24  26
ENDBRANCH  22  23
ENDBRANCH  21  22
ENDBRANCH   7  21
TORSDOF 10
ENDMDL
