MODEL 1
REMARK VINA RESULT:      -9.0      0.000      0.000
REMARK  Name = 
REMARK  4 active torsions:
REMARK  status: ('A' for Active; 'I' for Inactive)
REMARK    1  A    between atoms: C_5  and  C_6
REMARK    2  A    between atoms: C_6  and  O_8
REMARK    3  A    between atoms: O_8  and  C_9
REMARK    4  A    between atoms: C_9  and  C_10
REMARK                            x       y       z     vdW  Elec       q    Type
REMARK                         _______ _______ _______ _____ _____    ______ ____
ROOT
ATOM      1  C   UNL     1       3.800   6.701  17.725  0.00  0.00    +0.000 A 
ATOM      2  C   UNL     1       3.462   7.943  17.329  0.00  0.00    +0.000 A 
ATOM      3  C   UNL     1       2.457   8.780  17.985  0.00  0.00    +0.000 A 
ATOM      4  O   UNL     1       2.199   9.901  17.576  0.00  0.00    +0.000 OA
ATOM      5  O   UNL     1       1.839   8.222  19.079  0.00  0.00    +0.000 OA
ATOM      6  C   UNL     1       2.146   6.921  19.529  0.00  0.00    +0.000 A 
ATOM      7  C   UNL     1       1.395   6.526  20.630  0.00  0.00    +0.000 A 
ATOM      8  C   UNL     1       1.586   5.263  21.161  0.00  0.00    +0.000 A 
ATOM      9  C   UNL     1       2.530   4.393  20.612  0.00  0.00    +0.000 A 
ATOM     10  C   UNL     1       2.659   3.121  21.201  0.00  0.00    +0.000 A 
ATOM     11  C   UNL     1       3.571   2.188  20.730  0.00  0.00    +0.000 A 
ATOM     12  C   UNL     1       4.384   2.527  19.669  0.00  0.00    +0.000 A 
ATOM     13  C   UNL     1       4.265   3.789  19.076  0.00  0.00    +0.000 A 
ATOM     14  C   UNL     1       3.330   4.784  19.493  0.00  0.00    +0.000 A 
ATOM     15  C   UNL     1       3.116   6.102  18.918  0.00  0.00    +0.000 A 
ENDROOT
BRANCH   1  16
ATOM     16  C   UNL     1       4.856   5.934  16.973  0.00  0.00    +0.000 C 
BRANCH  16  17
ATOM     17  O   UNL     1       6.170   6.069  17.532  0.00  0.00    +0.000 OA
BRANCH  17  18
ATOM     18  C   UNL     1       7.031   5.085  17.207  0.00  0.00    +0.000 C 
ATOM     19  O   UNL     1       7.707   4.397  17.954  0.00  0.00    +0.000 OA
BRANCH  18  24
ATOM     20  O   UNL     1       7.150   4.329  11.730  0.00  0.00    +0.000 OA
ATOM     21  C   UNL     1       7.041   4.474  12.946  0.00  0.00    +0.000 C 
ATOM     22  C   UNL     1       5.983   3.759  13.738  0.00  0.00    +0.000 C 
ATOM     23  C   UNL     1       6.291   3.665  15.215  0.00  0.00    +0.000 C 
ATOM     24  C   UNL     1       7.057   4.857  15.708  0.00  0.00    +0.000 C 
ATOM     25  N   UNL     1       7.792   5.625  14.963  0.00  0.00    +0.000 NA
ATOM     26  N   UNL     1       7.829   5.360  13.630  0.00  0.00    +0.000 N 
ATOM     27  H   UNL     1       8.491   5.901  13.082  0.00  0.00    +0.000 HD
ENDBRANCH  18  24
ENDBRANCH  17  18
ENDBRANCH  16  17
ENDBRANCH   1  16
TORSDOF 4
ENDMDL
MODEL 2
REMARK VINA RESULT:      -8.9      1.622      3.741
REMARK  Name = 
REMARK  4 active torsions:
REMARK  status: ('A' for Active; 'I' for Inactive)
REMARK    1  A    between atoms: C_5  and  C_6
REMARK    2  A    between atoms: C_6  and  O_8
REMARK    3  A    between atoms: O_8  and  C_9
REMARK    4  A    between atoms: C_9  and  C_10
REMARK                            x       y       z     vdW  Elec       q    Type
REMARK                         _______ _______ _______ _____ _____    ______ ____
ROOT
ATOM      1  C   UNL     1       4.159   5.066  18.108  0.00  0.00    +0.000 A 
ATOM      2  C   UNL     1       4.556   3.814  18.404  0.00  0.00    +0.000 A 
ATOM      3  C   UNL     1       4.077   3.039  19.550  0.00  0.00    +0.000 A 
ATOM      4  O   UNL     1       4.477   1.905  19.762  0.00  0.00    +0.000 OA
ATOM      5  O   UNL     1       3.156   3.670  20.353  0.00  0.00    +0.000 OA
ATOM      6  C   UNL     1       2.715   4.984  20.093  0.00  0.00    +0.000 A 
ATOM      7  C   UNL     1       1.807   5.457  21.034  0.00  0.00    +0.000 A 
ATOM      8  C   UNL     1       1.307   6.740  20.906  0.00  0.00    +0.000 A 
ATOM      9  C   UNL     1       1.696   7.555  19.841  0.00  0.00    +0.000 A 
ATOM     10  C   UNL     1       1.153   8.853  19.786  0.00  0.00    +0.000 A 
ATOM     11  C   UNL     1       1.474   9.735  18.765  0.00  0.00    +0.000 A 
ATOM     12  C   UNL     1       2.333   9.320  17.770  0.00  0.00    +0.000 A 
ATOM     13  C   UNL     1       2.879   8.032  17.814  0.00  0.00    +0.000 A 
ATOM     14  C   UNL     1       2.612   7.085  18.849  0.00  0.00    +0.000 A 
ATOM     15  C   UNL     1       3.156   5.744  18.993  0.00  0.00    +0.000 A 
ENDROOT
BRANCH   1  16
ATOM     16  C   UNL     1       4.718   5.763  16.896  0.00  0.00    +0.000 C 
BRANCH  16  17
ATOM     17  O   UNL     1       6.065   6.226  17.070  0.00  0.00    +0.000 OA
BRANCH  17  18
ATOM     18  C   UNL     1       7.020   5.313  16.809  0.00  0.00    +0.000 C 
ATOM     19  O   UNL     1       7.783   4.775  17.594  0.00  0.00    +0.000 OA
BRANCH  18  24
ATOM     20  O   UNL     1       7.106   4.046  11.427  0.00  0.00    +0.000 OA
ATOM     21  C   UNL     1       7.003   4.308  12.624  0.00  0.00    +0.000 C 
ATOM     22  C   UNL     1       5.918   3.713  13.475  0.00  0.00    +0.000 C 
ATOM     23  C   UNL     1       6.222   3.744  14.955  0.00  0.00    +0.000 C 
ATOM     24  C   UNL     1       7.036   4.945  15.338  0.00  0.00    +0.000 C 
ATOM     25  N   UNL     1       7.801   5.610  14.527  0.00  0.00    +0.000 NA
ATOM     26  N   UNL     1       7.827   5.222  13.225  0.00  0.00    +0.000 N 
ATOM     27  H   UNL     1       8.509   5.683  12.631  0.00  0.00    +0.000 HD
ENDBRANCH  18  24
ENDBRANCH  17  18
ENDBRANCH  16  17
ENDBRANCH   1  16
TORSDOF 4
ENDMDL
MODEL 3
REMARK VINA RESULT:      -8.8      4.292      8.060
REMARK  Name = 
REMARK  4 active torsions:
REMARK  status: ('A' for Active; 'I' for Inactive)
REMARK    1  A    between atoms: C_5  and  C_6
REMARK    2  A    between atoms: C_6  and  O_8
REMARK    3  A    between atoms: O_8  and  C_9
REMARK    4  A    between atoms: C_9  and  C_10
REMARK                            x       y       z     vdW  Elec       q    Type
REMARK                         _______ _______ _______ _____ _____    ______ ____
ROOT
ATOM      1  C   UNL     1       2.610   5.373  19.890  0.00  0.00    +0.000 A 
ATOM      2  C   UNL     1       1.946   4.801  20.912  0.00  0.00    +0.000 A 
ATOM      3  C   UNL     1       1.802   3.358  21.106  0.00  0.00    +0.000 A 
ATOM      4  O   UNL     1       1.188   2.902  22.058  0.00  0.00    +0.000 OA
ATOM      5  O   UNL     1       2.403   2.566  20.156  0.00  0.00    +0.000 OA
ATOM      6  C   UNL     1       3.101   3.114  19.059  0.00  0.00    +0.000 A 
ATOM      7  C   UNL     1       3.612   2.153  18.194  0.00  0.00    +0.000 A 
ATOM      8  C   UNL     1       4.304   2.556  17.067  0.00  0.00    +0.000 A 
ATOM      9  C   UNL     1       4.503   3.912  16.799  0.00  0.00    +0.000 A 
ATOM     10  C   UNL     1       5.208   4.244  15.626  0.00  0.00    +0.000 A 
ATOM     11  C   UNL     1       5.460   5.562  15.276  0.00  0.00    +0.000 A 
ATOM     12  C   UNL     1       5.024   6.570  16.110  0.00  0.00    +0.000 A 
ATOM     13  C   UNL     1       4.323   6.251  17.279  0.00  0.00    +0.000 A 
ATOM     14  C   UNL     1       4.007   4.919  17.684  0.00  0.00    +0.000 A 
ATOM     15  C   UNL     1       3.259   4.499  18.858  0.00  0.00    +0.000 A 
ENDROOT
BRANCH   1  16
ATOM     16  C   UNL     1       2.696   6.874  19.797  0.00  0.00    +0.000 C 
BRANCH  16  17
ATOM     17  O   UNL     1       1.607   7.553  20.436  0.00  0.00    +0.000 OA
BRANCH  17  18
ATOM     18  C   UNL     1       1.279   8.742  19.895  0.00  0.00    +0.000 C 
ATOM     19  O   UNL     1       1.481   9.133  18.757  0.00  0.00    +0.000 OA
BRANCH  18  24
ATOM     20  O   UNL     1      -1.389  11.965  23.509  0.00  0.00    +0.000 OA
ATOM     21  C   UNL     1      -0.775  11.198  22.771  0.00  0.00    +0.000 C 
ATOM     22  C   UNL     1      -0.538   9.761  23.142  0.00  0.00    +0.000 C 
ATOM     23  C   UNL     1      -0.220   8.874  21.960  0.00  0.00    +0.000 C 
ATOM     24  C   UNL     1       0.536   9.609  20.892  0.00  0.00    +0.000 C 
ATOM     25  N   UNL     1       0.515  10.895  20.722  0.00  0.00    +0.000 NA
ATOM     26  N   UNL     1      -0.202  11.636  21.607  0.00  0.00    +0.000 N 
ATOM     27  H   UNL     1      -0.295  12.625  21.396  0.00  0.00    +0.000 HD
ENDBRANCH  18  24
ENDBRANCH  17  18
ENDBRANCH  16  17
ENDBRANCH   1  16
TORSDOF 4
ENDMDL
MODEL 4
REMARK VINA RESULT:      -8.8      3.550      6.922
REMARK  Name = 
REMARK  4 active torsions:
REMARK  status: ('A' for Active; 'I' for Inactive)
REMARK    1  A    between atoms: C_5  and  C_6
REMARK    2  A    between atoms: C_6  and  O_8
REMARK    3  A    between atoms: O_8  and  C_9
REMARK    4  A    between atoms: C_9  and  C_10
REMARK                            x       y       z     vdW  Elec       q    Type
REMARK                         _______ _______ _______ _____ _____    ______ ____
ROOT
ATOM      1  C   UNL     1       3.987   6.211  17.606  0.00  0.00    +0.000 A 
ATOM      2  C   UNL     1       4.813   6.520  16.589  0.00  0.00    +0.000 A 
ATOM      3  C   UNL     1       5.384   5.548  15.656  0.00  0.00    +0.000 A 
ATOM      4  O   UNL     1       6.127   5.895  14.751  0.00  0.00    +0.000 OA
ATOM      5  O   UNL     1       5.024   4.238  15.866  0.00  0.00    +0.000 OA
ATOM      6  C   UNL     1       4.171   3.858  16.923  0.00  0.00    +0.000 A 
ATOM      7  C   UNL     1       3.950   2.487  16.988  0.00  0.00    +0.000 A 
ATOM      8  C   UNL     1       3.144   1.978  17.991  0.00  0.00    +0.000 A 
ATOM      9  C   UNL     1       2.545   2.826  18.924  0.00  0.00    +0.000 A 
ATOM     10  C   UNL     1       1.747   2.232  19.921  0.00  0.00    +0.000 A 
ATOM     11  C   UNL     1       1.107   2.991  20.890  0.00  0.00    +0.000 A 
ATOM     12  C   UNL     1       1.242   4.363  20.862  0.00  0.00    +0.000 A 
ATOM     13  C   UNL     1       2.032   4.964  19.875  0.00  0.00    +0.000 A 
ATOM     14  C   UNL     1       2.739   4.241  18.866  0.00  0.00    +0.000 A 
ATOM     15  C   UNL     1       3.604   4.777  17.827  0.00  0.00    +0.000 A 
ENDROOT
BRANCH   1  16
ATOM     16  C   UNL     1       3.456   7.300  18.500  0.00  0.00    +0.000 C 
BRANCH  16  17
ATOM     17  O   UNL     1       2.095   7.657  18.224  0.00  0.00    +0.000 OA
BRANCH  17  18
ATOM     18  C   UNL     1       1.836   8.979  18.246  0.00  0.00    +0.000 C 
ATOM     19  O   UNL     1       1.975   9.789  17.345  0.00  0.00    +0.000 OA
BRANCH  18  24
ATOM     20  O   UNL     1      -0.231  10.592  23.115  0.00  0.00    +0.000 OA
ATOM     21  C   UNL     1       0.287  10.188  22.076  0.00  0.00    +0.000 C 
ATOM     22  C   UNL     1       1.081   8.913  22.030  0.00  0.00    +0.000 C 
ATOM     23  C   UNL     1       1.217   8.333  20.641  0.00  0.00    +0.000 C 
ATOM     24  C   UNL     1       1.267   9.400  19.587  0.00  0.00    +0.000 C 
ATOM     25  N   UNL     1       0.781  10.597  19.721  0.00  0.00    +0.000 NA
ATOM     26  N   UNL     1       0.234  10.923  20.922  0.00  0.00    +0.000 N 
ATOM     27  H   UNL     1      -0.235  11.822  20.973  0.00  0.00    +0.000 HD
ENDBRANCH  18  24
ENDBRANCH  17  18
ENDBRANCH  16  17
ENDBRANCH   1  16
TORSDOF 4
ENDMDL
MODEL 5
REMARK VINA RESULT:      -8.5      4.038      7.489
REMARK  Name = 
REMARK  4 active torsions:
REMARK  status: ('A' for Active; 'I' for Inactive)
REMARK    1  A    between atoms: C_5  and  C_6
REMARK    2  A    between atoms: C_6  and  O_8
REMARK    3  A    between atoms: O_8  and  C_9
REMARK    4  A    between atoms: C_9  and  C_10
REMARK                            x       y       z     vdW  Elec       q    Type
REMARK                         _______ _______ _______ _____ _____    ______ ____
ROOT
ATOM      1  C   UNL     1       2.372   5.314  20.142  0.00  0.00    +0.000 A 
ATOM      2  C   UNL     1       1.752   4.623  21.118  0.00  0.00    +0.000 A 
ATOM      3  C   UNL     1       1.748   3.165  21.230  0.00  0.00    +0.000 A 
ATOM      4  O   UNL     1       1.167   2.599  22.143  0.00  0.00    +0.000 OA
ATOM      5  O   UNL     1       2.439   2.489  20.252  0.00  0.00    +0.000 OA
ATOM      6  C   UNL     1       3.097   3.163  19.201  0.00  0.00    +0.000 A 
ATOM      7  C   UNL     1       3.713   2.306  18.297  0.00  0.00    +0.000 A 
ATOM      8  C   UNL     1       4.380   2.837  17.208  0.00  0.00    +0.000 A 
ATOM      9  C   UNL     1       4.449   4.219  17.018  0.00  0.00    +0.000 A 
ATOM     10  C   UNL     1       5.136   4.683  15.880  0.00  0.00    +0.000 A 
ATOM     11  C   UNL     1       5.263   6.037  15.607  0.00  0.00    +0.000 A 
ATOM     12  C   UNL     1       4.716   6.949  16.484  0.00  0.00    +0.000 A 
ATOM     13  C   UNL     1       4.031   6.499  17.619  0.00  0.00    +0.000 A 
ATOM     14  C   UNL     1       3.842   5.122  17.945  0.00  0.00    +0.000 A 
ATOM     15  C   UNL     1       3.121   4.566  19.079  0.00  0.00    +0.000 A 
ENDROOT
BRANCH   1  16
ATOM     16  C   UNL     1       2.312   6.818  20.132  0.00  0.00    +0.000 C 
BRANCH  16  17
ATOM     17  O   UNL     1       1.108   7.349  20.703  0.00  0.00    +0.000 OA
BRANCH  17  18
ATOM     18  C   UNL     1       1.214   8.597  21.199  0.00  0.00    +0.000 C 
ATOM     19  O   UNL     1       1.797   8.960  22.207  0.00  0.00    +0.000 OA
BRANCH  18  24
ATOM     20  O   UNL     1      -1.231  12.260  17.856  0.00  0.00    +0.000 OA
ATOM     21  C   UNL     1      -0.694  11.504  18.662  0.00  0.00    +0.000 C 
ATOM     22  C   UNL     1      -0.903  11.645  20.144  0.00  0.00    +0.000 C 
ATOM     23  C   UNL     1      -0.587  10.389  20.923  0.00  0.00    +0.000 C 
ATOM     24  C   UNL     1       0.527   9.603  20.297  0.00  0.00    +0.000 C 
ATOM     25  N   UNL     1       0.863   9.664  19.044  0.00  0.00    +0.000 NA
ATOM     26  N   UNL     1       0.192  10.543  18.254  0.00  0.00    +0.000 N 
ATOM     27  H   UNL     1       0.394  10.499  17.260  0.00  0.00    +0.000 HD
ENDBRANCH  18  24
ENDBRANCH  17  18
ENDBRANCH  16  17
ENDBRANCH   1  16
TORSDOF 4
ENDMDL
MODEL 6
REMARK VINA RESULT:      -8.5      2.399      4.733
REMARK  Name = 
REMARK  4 active torsions:
REMARK  status: ('A' for Active; 'I' for Inactive)
REMARK    1  A    between atoms: C_5  and  C_6
REMARK    2  A    between atoms: C_6  and  O_8
REMARK    3  A    between atoms: O_8  and  C_9
REMARK    4  A    between atoms: C_9  and  C_10
REMARK                            x       y       z     vdW  Elec       q    Type
REMARK                         _______ _______ _______ _____ _____    ______ ____
ROOT
ATOM      1  C   UNL     1       3.841   4.448  17.324  0.00  0.00    +0.000 A 
ATOM      2  C   UNL     1       4.109   3.129  17.355  0.00  0.00    +0.000 A 
ATOM      3  C   UNL     1       3.667   2.217  18.410  0.00  0.00    +0.000 A 
ATOM      4  O   UNL     1       3.943   1.027  18.378  0.00  0.00    +0.000 OA
ATOM      5  O   UNL     1       2.926   2.785  19.419  0.00  0.00    +0.000 OA
ATOM      6  C   UNL     1       2.627   4.163  19.440  0.00  0.00    +0.000 A 
ATOM      7  C   UNL     1       1.894   4.552  20.556  0.00  0.00    +0.000 A 
ATOM      8  C   UNL     1       1.548   5.882  20.709  0.00  0.00    +0.000 A 
ATOM      9  C   UNL     1       1.915   6.830  19.751  0.00  0.00    +0.000 A 
ATOM     10  C   UNL     1       1.535   8.165  19.982  0.00  0.00    +0.000 A 
ATOM     11  C   UNL     1       1.849   9.178  19.088  0.00  0.00    +0.000 A 
ATOM     12  C   UNL     1       2.535   8.861  17.934  0.00  0.00    +0.000 A 
ATOM     13  C   UNL     1       2.917   7.536  17.694  0.00  0.00    +0.000 A 
ATOM     14  C   UNL     1       2.649   6.452  18.584  0.00  0.00    +0.000 A 
ATOM     15  C   UNL     1       3.034   5.058  18.432  0.00  0.00    +0.000 A 
ENDROOT
BRANCH   1  16
ATOM     16  C   UNL     1       4.346   5.290  16.182  0.00  0.00    +0.000 C 
BRANCH  16  17
ATOM     17  O   UNL     1       5.205   4.579  15.280  0.00  0.00    +0.000 OA
BRANCH  17  18
ATOM     18  C   UNL     1       6.468   5.042  15.211  0.00  0.00    +0.000 C 
ATOM     19  O   UNL     1       7.091   5.387  14.221  0.00  0.00    +0.000 OA
BRANCH  18  24
ATOM     20  O   UNL     1       8.716   5.349  20.254  0.00  0.00    +0.000 OA
ATOM     21  C   UNL     1       8.155   5.335  19.160  0.00  0.00    +0.000 C 
ATOM     22  C   UNL     1       7.270   6.462  18.708  0.00  0.00    +0.000 C 
ATOM     23  C   UNL     1       7.072   6.515  17.210  0.00  0.00    +0.000 C 
ATOM     24  C   UNL     1       7.086   5.148  16.591  0.00  0.00    +0.000 C 
ATOM     25  N   UNL     1       7.659   4.106  17.111  0.00  0.00    +0.000 NA
ATOM     26  N   UNL     1       8.245   4.250  18.329  0.00  0.00    +0.000 N 
ATOM     27  H   UNL     1       8.779   3.457  18.669  0.00  0.00    +0.000 HD
ENDBRANCH  18  24
ENDBRANCH  17  18
ENDBRANCH  16  17
ENDBRANCH   1  16
TORSDOF 4
ENDMDL
MODEL 7
REMARK VINA RESULT:      -8.5      1.705      3.928
REMARK  Name = 
REMARK  4 active torsions:
REMARK  status: ('A' for Active; 'I' for Inactive)
REMARK    1  A    between atoms: C_5  and  C_6
REMARK    2  A    between atoms: C_6  and  O_8
REMARK    3  A    between atoms: O_8  and  C_9
REMARK    4  A    between atoms: C_9  and  C_10
REMARK                            x       y       z     vdW  Elec       q    Type
REMARK                         _______ _______ _______ _____ _____    ______ ____
ROOT
ATOM      1  C   UNL     1       3.412   5.564  18.734  0.00  0.00    +0.000 A 
ATOM      2  C   UNL     1       3.610   4.333  19.241  0.00  0.00    +0.000 A 
ATOM      3  C   UNL     1       2.980   3.825  20.460  0.00  0.00    +0.000 A 
ATOM      4  O   UNL     1       3.200   2.694  20.866  0.00  0.00    +0.000 OA
ATOM      5  O   UNL     1       2.133   4.697  21.102  0.00  0.00    +0.000 OA
ATOM      6  C   UNL     1       1.900   6.002  20.620  0.00  0.00    +0.000 A 
ATOM      7  C   UNL     1       1.037   6.740  21.422  0.00  0.00    +0.000 A 
ATOM      8  C   UNL     1       0.737   8.044  21.071  0.00  0.00    +0.000 A 
ATOM      9  C   UNL     1       1.280   8.617  19.919  0.00  0.00    +0.000 A 
ATOM     10  C   UNL     1       0.936   9.952  19.636  0.00  0.00    +0.000 A 
ATOM     11  C   UNL     1       1.421  10.607  18.513  0.00  0.00    +0.000 A 
ATOM     12  C   UNL     1       2.246   9.923  17.646  0.00  0.00    +0.000 A 
ATOM     13  C   UNL     1       2.594   8.595  17.918  0.00  0.00    +0.000 A 
ATOM     14  C   UNL     1       2.152   7.872  19.067  0.00  0.00    +0.000 A 
ATOM     15  C   UNL     1       2.488   6.508  19.445  0.00  0.00    +0.000 A 
ENDROOT
BRANCH   1  16
ATOM     16  C   UNL     1       4.113   5.976  17.466  0.00  0.00    +0.000 C 
BRANCH  16  17
ATOM     17  O   UNL     1       5.500   6.289  17.651  0.00  0.00    +0.000 OA
BRANCH  17  18
ATOM     18  C   UNL     1       6.345   5.251  17.497  0.00  0.00    +0.000 C 
ATOM     19  O   UNL     1       6.835   4.544  18.361  0.00  0.00    +0.000 OA
BRANCH  18  24
ATOM     20  O   UNL     1       7.384   4.357  12.140  0.00  0.00    +0.000 OA
ATOM     21  C   UNL     1       7.070   4.541  13.314  0.00  0.00    +0.000 C 
ATOM     22  C   UNL     1       5.823   3.945  13.904  0.00  0.00    +0.000 C 
ATOM     23  C   UNL     1       5.847   3.858  15.413  0.00  0.00    +0.000 C 
ATOM     24  C   UNL     1       6.620   4.986  16.030  0.00  0.00    +0.000 C 
ATOM     25  N   UNL     1       7.548   5.665  15.427  0.00  0.00    +0.000 NA
ATOM     26  N   UNL     1       7.801   5.367  14.125  0.00  0.00    +0.000 N 
ATOM     27  H   UNL     1       8.599   5.832  13.704  0.00  0.00    +0.000 HD
ENDBRANCH  18  24
ENDBRANCH  17  18
ENDBRANCH  16  17
ENDBRANCH   1  16
TORSDOF 4
ENDMDL
MODEL 8
REMARK VINA RESULT:      -8.4      3.685      7.169
REMARK  Name = 
REMARK  4 active torsions:
REMARK  status: ('A' for Active; 'I' for Inactive)
REMARK    1  A    between atoms: C_5  and  C_6
REMARK    2  A    between atoms: C_6  and  O_8
REMARK    3  A    between atoms: O_8  and  C_9
REMARK    4  A    between atoms: C_9  and  C_10
REMARK                            x       y       z     vdW  Elec       q    Type
REMARK                         _______ _______ _______ _____ _____    ______ ____
ROOT
ATOM      1  C   UNL     1       3.750   6.484  17.829  0.00  0.00    +0.000 A 
ATOM      2  C   UNL     1       4.790   6.980  17.133  0.00  0.00    +0.000 A 
ATOM      3  C   UNL     1       6.104   6.343  17.035  0.00  0.00    +0.000 A 
ATOM      4  O   UNL     1       7.007   6.844  16.384  0.00  0.00    +0.000 OA
ATOM      5  O   UNL     1       6.242   5.154  17.713  0.00  0.00    +0.000 OA
ATOM      6  C   UNL     1       5.188   4.597  18.466  0.00  0.00    +0.000 A 
ATOM      7  C   UNL     1       5.532   3.409  19.102  0.00  0.00    +0.000 A 
ATOM      8  C   UNL     1       4.593   2.766  19.888  0.00  0.00    +0.000 A 
ATOM      9  C   UNL     1       3.307   3.290  20.037  0.00  0.00    +0.000 A 
ATOM     10  C   UNL     1       2.411   2.584  20.862  0.00  0.00    +0.000 A 
ATOM     11  C   UNL     1       1.111   3.022  21.069  0.00  0.00    +0.000 A 
ATOM     12  C   UNL     1       0.684   4.168  20.433  0.00  0.00    +0.000 A 
ATOM     13  C   UNL     1       1.566   4.878  19.610  0.00  0.00    +0.000 A 
ATOM     14  C   UNL     1       2.922   4.498  19.376  0.00  0.00    +0.000 A 
ATOM     15  C   UNL     1       3.914   5.188  18.567  0.00  0.00    +0.000 A 
ENDROOT
BRANCH   1  16
ATOM     16  C   UNL     1       2.440   7.227  17.853  0.00  0.00    +0.000 C 
BRANCH  16  17
ATOM     17  O   UNL     1       2.340   8.179  18.921  0.00  0.00    +0.000 OA
BRANCH  17  18
ATOM     18  C   UNL     1       1.413   9.141  18.742  0.00  0.00    +0.000 C 
ATOM     19  O   UNL     1       1.046   9.648  17.696  0.00  0.00    +0.000 OA
BRANCH  18  24
ATOM     20  O   UNL     1      -0.898  10.670  23.528  0.00  0.00    +0.000 OA
ATOM     21  C   UNL     1      -0.317  10.301  22.509  0.00  0.00    +0.000 C 
ATOM     22  C   UNL     1       0.723   9.217  22.538  0.00  0.00    +0.000 C 
ATOM     23  C   UNL     1       0.963   8.570  21.193  0.00  0.00    +0.000 C 
ATOM     24  C   UNL     1       0.782   9.540  20.062  0.00  0.00    +0.000 C 
ATOM     25  N   UNL     1       0.061  10.618  20.119  0.00  0.00    +0.000 NA
ATOM     26  N   UNL     1      -0.531  10.918  21.306  0.00  0.00    +0.000 N 
ATOM     27  H   UNL     1      -1.175  11.703  21.302  0.00  0.00    +0.000 HD
ENDBRANCH  18  24
ENDBRANCH  17  18
ENDBRANCH  16  17
ENDBRANCH   1  16
TORSDOF 4
ENDMDL
MODEL 9
REMARK VINA RESULT:      -8.3      3.457      7.017
REMARK  Name = 
REMARK  4 active torsions:
REMARK  status: ('A' for Active; 'I' for Inactive)
REMARK    1  A    between atoms: C_5  and  C_6
REMARK    2  A    between atoms: C_6  and  O_8
REMARK    3  A    between atoms: O_8  and  C_9
REMARK    4  A    between atoms: C_9  and  C_10
REMARK                            x       y       z     vdW  Elec       q    Type
REMARK                         _______ _______ _______ _____ _____    ______ ____
ROOT
ATOM      1  C   UNL     1       3.675   6.627  17.907  0.00  0.00    +0.000 A 
ATOM      2  C   UNL     1       4.705   7.198  17.254  0.00  0.00    +0.000 A 
ATOM      3  C   UNL     1       6.050   6.629  17.167  0.00  0.00    +0.000 A 
ATOM      4  O   UNL     1       6.942   7.197  16.556  0.00  0.00    +0.000 OA
ATOM      5  O   UNL     1       6.232   5.426  17.807  0.00  0.00    +0.000 OA
ATOM      6  C   UNL     1       5.190   4.792  18.515  0.00  0.00    +0.000 A 
ATOM      7  C   UNL     1       5.578   3.601  19.118  0.00  0.00    +0.000 A 
ATOM      8  C   UNL     1       4.655   2.886  19.859  0.00  0.00    +0.000 A 
ATOM      9  C   UNL     1       3.341   3.340  19.994  0.00  0.00    +0.000 A 
ATOM     10  C   UNL     1       2.463   2.562  20.772  0.00  0.00    +0.000 A 
ATOM     11  C   UNL     1       1.138   2.928  20.961  0.00  0.00    +0.000 A 
ATOM     12  C   UNL     1       0.669   4.074  20.355  0.00  0.00    +0.000 A 
ATOM     13  C   UNL     1       1.533   4.854  19.578  0.00  0.00    +0.000 A 
ATOM     14  C   UNL     1       2.912   4.550  19.365  0.00  0.00    +0.000 A 
ATOM     15  C   UNL     1       3.886   5.316  18.604  0.00  0.00    +0.000 A 
ENDROOT
BRANCH   1  16
ATOM     16  C   UNL     1       2.330   7.304  17.924  0.00  0.00    +0.000 C 
BRANCH  16  17
ATOM     17  O   UNL     1       2.391   8.696  18.265  0.00  0.00    +0.000 OA
BRANCH  17  18
ATOM     18  C   UNL     1       1.202   9.274  18.524  0.00  0.00    +0.000 C 
ATOM     19  O   UNL     1       0.354   9.641  17.728  0.00  0.00    +0.000 OA
BRANCH  18  24
ATOM     20  O   UNL     1       0.368   9.641  23.978  0.00  0.00    +0.000 OA
ATOM     21  C   UNL     1       0.474   9.591  22.754  0.00  0.00    +0.000 C 
ATOM     22  C   UNL     1      -0.340  10.474  21.851  0.00  0.00    +0.000 C 
ATOM     23  C   UNL     1       0.247  10.632  20.467  0.00  0.00    +0.000 C 
ATOM     24  C   UNL     1       0.969   9.396  20.017  0.00  0.00    +0.000 C 
ATOM     25  N   UNL     1       1.471   8.501  20.812  0.00  0.00    +0.000 NA
ATOM     26  N   UNL     1       1.283   8.669  22.148  0.00  0.00    +0.000 N 
ATOM     27  H   UNL     1       1.773   8.020  22.756  0.00  0.00    +0.000 HD
ENDBRANCH  18  24
ENDBRANCH  17  18
ENDBRANCH  16  17
ENDBRANCH   1  16
TORSDOF 4
ENDMDL
