MODEL 1
REMARK VINA RESULT:      -7.9      0.000      0.000
REMARK  Name = 
REMARK  4 active torsions:
REMARK  status: ('A' for Active; 'I' for Inactive)
REMARK    1  A    between atoms: C_1  and  C_2
REMARK    2  A    between atoms: C_4  and  C_5
REMARK    3  A    between atoms: C_13  and  C_15
REMARK    4  A    between atoms: C_19  and  C_20
REMARK                            x       y       z     vdW  Elec       q    Type
REMARK                         _______ _______ _______ _____ _____    ______ ____
ROOT
ATOM      1  C   UNL     1       6.411   4.302  13.761  0.00  0.00    +0.000 A 
ATOM      2  N   UNL     1       7.714   4.523  13.759  0.00  0.00    +0.000 NA
ATOM      3  N   UNL     1       8.047   5.163  14.937  0.00  0.00    +0.000 NA
ATOM      4  C   UNL     1       6.947   5.307  15.647  0.00  0.00    +0.000 A 
ATOM      5  N   UNL     1       5.903   4.802  14.924  0.00  0.00    +0.000 N 
ATOM      6  C   UNL     1       4.557   4.710  15.413  0.00  0.00    +0.000 C 
ATOM      7  C   UNL     1       4.336   5.613  16.614  0.00  0.00    +0.000 C 
ATOM      8  N   UNL     1       5.452   5.578  17.567  0.00  0.00    +0.000 N 
ATOM      9  C   UNL     1       5.362   5.492  18.968  0.00  0.00    +0.000 C 
ATOM     10  O   UNL     1       6.353   5.603  19.686  0.00  0.00    +0.000 OA
ATOM     11  C   UNL     1       6.774   5.916  16.999  0.00  0.00    +0.000 C 
ENDROOT
BRANCH   9  12
ATOM     12  C   UNL     1       4.036   5.277  19.628  0.00  0.00    +0.000 A 
ATOM     13  C   UNL     1       3.201   6.383  19.835  0.00  0.00    +0.000 A 
ATOM     14  C   UNL     1       1.893   6.222  20.276  0.00  0.00    +0.000 A 
ATOM     15  C   UNL     1       1.435   4.956  20.621  0.00  0.00    +0.000 A 
ATOM     16  C   UNL     1       2.289   3.838  20.560  0.00  0.00    +0.000 A 
ATOM     17  C   UNL     1       3.601   4.001  20.064  0.00  0.00    +0.000 A 
ATOM     18 CL   UNL     1       4.647   2.619  19.997  0.00  0.00    +0.000 Cl
BRANCH  16  19
ATOM     19  C   UNL     1       1.761   2.497  21.014  0.00  0.00    +0.000 C 
ATOM     20  F   UNL     1       0.513   2.582  21.563  0.00  0.00    +0.000 F 
ATOM     21  F   UNL     1       1.641   1.599  20.000  0.00  0.00    +0.000 F 
ATOM     22  F   UNL     1       2.530   1.911  21.970  0.00  0.00    +0.000 F 
ENDBRANCH  16  19
ENDBRANCH   9  12
BRANCH   1  26
ATOM     23  C   UNL     1       3.096   2.896  10.163  0.00  0.00    +0.000 C 
ATOM     24  C   UNL     1       4.173   3.084  11.146  0.00  0.00    +0.000 A 
ATOM     25  C   UNL     1       4.475   4.064  12.064  0.00  0.00    +0.000 A 
ATOM     26  C   UNL     1       5.660   3.613  12.681  0.00  0.00    +0.000 A 
ATOM     27  N   UNL     1       6.051   2.429  12.165  0.00  0.00    +0.000 NA
ATOM     28  O   UNL     1       5.106   2.103  11.211  0.00  0.00    +0.000 OA
ENDBRANCH   1  26
TORSDOF 3
ENDMDL
MODEL 2
REMARK VINA RESULT:      -7.7      5.164      8.580
REMARK  Name = 
REMARK  4 active torsions:
REMARK  status: ('A' for Active; 'I' for Inactive)
REMARK    1  A    between atoms: C_1  and  C_2
REMARK    2  A    between atoms: C_4  and  C_5
REMARK    3  A    between atoms: C_13  and  C_15
REMARK    4  A    between atoms: C_19  and  C_20
REMARK                            x       y       z     vdW  Elec       q    Type
REMARK                         _______ _______ _______ _____ _____    ______ ____
ROOT
ATOM      1  C   UNL     1       0.702   9.924  20.113  0.00  0.00    +0.000 A 
ATOM      2  N   UNL     1       0.229   9.503  21.272  0.00  0.00    +0.000 NA
ATOM      3  N   UNL     1       0.646   8.200  21.466  0.00  0.00    +0.000 NA
ATOM      4  C   UNL     1       1.381   7.852  20.430  0.00  0.00    +0.000 A 
ATOM      5  N   UNL     1       1.412   8.901  19.554  0.00  0.00    +0.000 N 
ATOM      6  C   UNL     1       2.187   8.917  18.347  0.00  0.00    +0.000 C 
ATOM      7  C   UNL     1       2.607   7.517  17.933  0.00  0.00    +0.000 C 
ATOM      8  N   UNL     1       3.057   6.700  19.067  0.00  0.00    +0.000 N 
ATOM      9  C   UNL     1       4.190   5.867  19.107  0.00  0.00    +0.000 C 
ATOM     10  O   UNL     1       4.407   5.120  20.059  0.00  0.00    +0.000 OA
ATOM     11  C   UNL     1       2.081   6.559  20.167  0.00  0.00    +0.000 C 
ENDROOT
BRANCH   9  12
ATOM     12  C   UNL     1       5.163   5.858  17.970  0.00  0.00    +0.000 A 
ATOM     13  C   UNL     1       6.247   6.744  18.007  0.00  0.00    +0.000 A 
ATOM     14  C   UNL     1       7.276   6.658  17.075  0.00  0.00    +0.000 A 
ATOM     15  C   UNL     1       7.179   5.752  16.026  0.00  0.00    +0.000 A 
ATOM     16  C   UNL     1       6.038   4.940  15.877  0.00  0.00    +0.000 A 
ATOM     17  C   UNL     1       5.020   4.997  16.855  0.00  0.00    +0.000 A 
ATOM     18 CL   UNL     1       3.616   3.998  16.659  0.00  0.00    +0.000 Cl
BRANCH  16  19
ATOM     19  C   UNL     1       5.952   4.023  14.679  0.00  0.00    +0.000 C 
ATOM     20  F   UNL     1       7.028   4.146  13.845  0.00  0.00    +0.000 F 
ATOM     21  F   UNL     1       5.915   2.706  15.016  0.00  0.00    +0.000 F 
ATOM     22  F   UNL     1       4.867   4.260  13.896  0.00  0.00    +0.000 F 
ENDBRANCH  16  19
ENDBRANCH   9  12
BRANCH   1  26
ATOM     23  C   UNL     1       0.979  14.846  18.845  0.00  0.00    +0.000 C 
ATOM     24  C   UNL     1       0.693  13.420  19.061  0.00  0.00    +0.000 A 
ATOM     25  C   UNL     1       1.287  12.422  19.799  0.00  0.00    +0.000 A 
ATOM     26  C   UNL     1       0.498  11.282  19.548  0.00  0.00    +0.000 A 
ATOM     27  N   UNL     1      -0.516  11.574  18.707  0.00  0.00    +0.000 NA
ATOM     28  O   UNL     1      -0.389  12.919  18.416  0.00  0.00    +0.000 OA
ENDBRANCH   1  26
TORSDOF 3
ENDMDL
MODEL 3
REMARK VINA RESULT:      -7.5      5.086      8.676
REMARK  Name = 
REMARK  4 active torsions:
REMARK  status: ('A' for Active; 'I' for Inactive)
REMARK    1  A    between atoms: C_1  and  C_2
REMARK    2  A    between atoms: C_4  and  C_5
REMARK    3  A    between atoms: C_13  and  C_15
REMARK    4  A    between atoms: C_19  and  C_20
REMARK                            x       y       z     vdW  Elec       q    Type
REMARK                         _______ _______ _______ _____ _____    ______ ____
ROOT
ATOM      1  C   UNL     1       0.795   9.752  20.599  0.00  0.00    +0.000 A 
ATOM      2  N   UNL     1       0.249   9.198  21.667  0.00  0.00    +0.000 NA
ATOM      3  N   UNL     1       0.565   7.853  21.669  0.00  0.00    +0.000 NA
ATOM      4  C   UNL     1       1.313   7.611  20.612  0.00  0.00    +0.000 A 
ATOM      5  N   UNL     1       1.452   8.775  19.909  0.00  0.00    +0.000 N 
ATOM      6  C   UNL     1       2.272   8.915  18.741  0.00  0.00    +0.000 C 
ATOM      7  C   UNL     1       2.608   7.566  18.128  0.00  0.00    +0.000 C 
ATOM      8  N   UNL     1       2.955   6.554  19.134  0.00  0.00    +0.000 N 
ATOM      9  C   UNL     1       4.024   5.641  19.077  0.00  0.00    +0.000 C 
ATOM     10  O   UNL     1       4.150   4.745  19.907  0.00  0.00    +0.000 OA
ATOM     11  C   UNL     1       1.930   6.323  20.172  0.00  0.00    +0.000 C 
ENDROOT
BRANCH   9  12
ATOM     12  C   UNL     1       5.037   5.731  17.979  0.00  0.00    +0.000 A 
ATOM     13  C   UNL     1       6.094   6.640  18.112  0.00  0.00    +0.000 A 
ATOM     14  C   UNL     1       7.157   6.641  17.216  0.00  0.00    +0.000 A 
ATOM     15  C   UNL     1       7.122   5.803  16.109  0.00  0.00    +0.000 A 
ATOM     16  C   UNL     1       6.011   4.973  15.865  0.00  0.00    +0.000 A 
ATOM     17  C   UNL     1       4.957   4.941  16.806  0.00  0.00    +0.000 A 
ATOM     18 CL   UNL     1       3.590   3.921  16.494  0.00  0.00    +0.000 Cl
BRANCH  16  19
ATOM     19  C   UNL     1       5.994   4.134  14.609  0.00  0.00    +0.000 C 
ATOM     20  F   UNL     1       4.882   4.353  13.845  0.00  0.00    +0.000 F 
ATOM     21  F   UNL     1       7.045   4.387  13.783  0.00  0.00    +0.000 F 
ATOM     22  F   UNL     1       5.999   2.797  14.854  0.00  0.00    +0.000 F 
ENDBRANCH  16  19
ENDBRANCH   9  12
BRANCH   1  26
ATOM     23  C   UNL     1      -0.296  14.286  18.559  0.00  0.00    +0.000 C 
ATOM     24  C   UNL     1       0.179  13.107  19.298  0.00  0.00    +0.000 A 
ATOM     25  C   UNL     1      -0.102  11.761  19.242  0.00  0.00    +0.000 A 
ATOM     26  C   UNL     1       0.709  11.192  20.244  0.00  0.00    +0.000 A 
ATOM     27  N   UNL     1       1.439  12.139  20.870  0.00  0.00    +0.000 NA
ATOM     28  O   UNL     1       1.105  13.334  20.261  0.00  0.00    +0.000 OA
ENDBRANCH   1  26
TORSDOF 3
ENDMDL
MODEL 4
REMARK VINA RESULT:      -7.3      5.257      8.443
REMARK  Name = 
REMARK  4 active torsions:
REMARK  status: ('A' for Active; 'I' for Inactive)
REMARK    1  A    between atoms: C_1  and  C_2
REMARK    2  A    between atoms: C_4  and  C_5
REMARK    3  A    between atoms: C_13  and  C_15
REMARK    4  A    between atoms: C_19  and  C_20
REMARK                            x       y       z     vdW  Elec       q    Type
REMARK                         _______ _______ _______ _____ _____    ______ ____
ROOT
ATOM      1  C   UNL     1       1.105  10.272  20.356  0.00  0.00    +0.000 A 
ATOM      2  N   UNL     1       0.761  10.189  21.629  0.00  0.00    +0.000 NA
ATOM      3  N   UNL     1       0.838   8.864  22.015  0.00  0.00    +0.000 NA
ATOM      4  C   UNL     1       1.244   8.162  20.977  0.00  0.00    +0.000 A 
ATOM      5  N   UNL     1       1.393   9.013  19.917  0.00  0.00    +0.000 N 
ATOM      6  C   UNL     1       1.904   8.618  18.636  0.00  0.00    +0.000 C 
ATOM      7  C   UNL     1       1.844   7.111  18.450  0.00  0.00    +0.000 C 
ATOM      8  N   UNL     1       2.260   6.373  19.650  0.00  0.00    +0.000 N 
ATOM      9  C   UNL     1       3.112   5.254  19.697  0.00  0.00    +0.000 C 
ATOM     10  O   UNL     1       3.292   4.626  20.738  0.00  0.00    +0.000 OA
ATOM     11  C   UNL     1       1.506   6.695  20.878  0.00  0.00    +0.000 C 
ENDROOT
BRANCH   9  12
ATOM     12  C   UNL     1       3.815   4.786  18.462  0.00  0.00    +0.000 A 
ATOM     13  C   UNL     1       3.080   4.091  17.493  0.00  0.00    +0.000 A 
ATOM     14  C   UNL     1       3.632   3.791  16.253  0.00  0.00    +0.000 A 
ATOM     15  C   UNL     1       4.966   4.087  16.005  0.00  0.00    +0.000 A 
ATOM     16  C   UNL     1       5.777   4.660  17.004  0.00  0.00    +0.000 A 
ATOM     17  C   UNL     1       5.197   5.008  18.245  0.00  0.00    +0.000 A 
ATOM     18 CL   UNL     1       6.204   5.707  19.471  0.00  0.00    +0.000 Cl
BRANCH  16  19
ATOM     19  C   UNL     1       7.239   4.896  16.705  0.00  0.00    +0.000 C 
ATOM     20  F   UNL     1       8.066   4.204  17.544  0.00  0.00    +0.000 F 
ATOM     21  F   UNL     1       7.598   4.504  15.453  0.00  0.00    +0.000 F 
ATOM     22  F   UNL     1       7.611   6.197  16.833  0.00  0.00    +0.000 F 
ENDBRANCH  16  19
ENDBRANCH   9  12
BRANCH   1  26
ATOM     23  C   UNL     1       2.395  14.721  18.247  0.00  0.00    +0.000 C 
ATOM     24  C   UNL     1       1.811  13.455  18.714  0.00  0.00    +0.000 A 
ATOM     25  C   UNL     1       2.214  12.480  19.598  0.00  0.00    +0.000 A 
ATOM     26  C   UNL     1       1.174  11.530  19.570  0.00  0.00    +0.000 A 
ATOM     27  N   UNL     1       0.198  11.908  18.718  0.00  0.00    +0.000 NA
ATOM     28  O   UNL     1       0.605  13.121  18.195  0.00  0.00    +0.000 OA
ENDBRANCH   1  26
TORSDOF 3
ENDMDL
MODEL 5
REMARK VINA RESULT:      -7.2      6.133      9.154
REMARK  Name = 
REMARK  4 active torsions:
REMARK  status: ('A' for Active; 'I' for Inactive)
REMARK    1  A    between atoms: C_1  and  C_2
REMARK    2  A    between atoms: C_4  and  C_5
REMARK    3  A    between atoms: C_13  and  C_15
REMARK    4  A    between atoms: C_19  and  C_20
REMARK                            x       y       z     vdW  Elec       q    Type
REMARK                         _______ _______ _______ _____ _____    ______ ____
ROOT
ATOM      1  C   UNL     1       0.922  12.829  20.335  0.00  0.00    +0.000 A 
ATOM      2  N   UNL     1       0.380  12.863  21.539  0.00  0.00    +0.000 NA
ATOM      3  N   UNL     1       0.120  11.565  21.935  0.00  0.00    +0.000 NA
ATOM      4  C   UNL     1       0.522  10.759  20.974  0.00  0.00    +0.000 A 
ATOM      5  N   UNL     1       1.004  11.524  19.948  0.00  0.00    +0.000 N 
ATOM      6  C   UNL     1       1.608  10.988  18.762  0.00  0.00    +0.000 C 
ATOM      7  C   UNL     1       1.264   9.521  18.573  0.00  0.00    +0.000 C 
ATOM      8  N   UNL     1       1.330   8.755  19.824  0.00  0.00    +0.000 N 
ATOM      9  C   UNL     1       1.912   7.486  20.005  0.00  0.00    +0.000 C 
ATOM     10  O   UNL     1       1.797   6.871  21.062  0.00  0.00    +0.000 OA
ATOM     11  C   UNL     1       0.483   9.268  20.920  0.00  0.00    +0.000 C 
ENDROOT
BRANCH   9  12
ATOM     12  C   UNL     1       2.680   6.841  18.895  0.00  0.00    +0.000 A 
ATOM     13  C   UNL     1       3.440   7.653  18.044  0.00  0.00    +0.000 A 
ATOM     14  C   UNL     1       4.311   7.099  17.113  0.00  0.00    +0.000 A 
ATOM     15  C   UNL     1       4.353   5.721  16.947  0.00  0.00    +0.000 A 
ATOM     16  C   UNL     1       3.502   4.878  17.687  0.00  0.00    +0.000 A 
ATOM     17  C   UNL     1       2.655   5.444  18.666  0.00  0.00    +0.000 A 
ATOM     18 CL   UNL     1       1.607   4.398  19.569  0.00  0.00    +0.000 Cl
BRANCH  16  19
ATOM     19  C   UNL     1       3.538   3.392  17.416  0.00  0.00    +0.000 C 
ATOM     20  F   UNL     1       3.737   2.655  18.550  0.00  0.00    +0.000 F 
ATOM     21  F   UNL     1       2.379   2.917  16.885  0.00  0.00    +0.000 F 
ATOM     22  F   UNL     1       4.538   3.022  16.572  0.00  0.00    +0.000 F 
ENDBRANCH  16  19
ENDBRANCH   9  12
BRANCH   1  26
ATOM     23  C   UNL     1       3.562  16.433  17.894  0.00  0.00    +0.000 C 
ATOM     24  C   UNL     1       2.595  15.531  18.536  0.00  0.00    +0.000 A 
ATOM     25  C   UNL     1       2.700  14.351  19.236  0.00  0.00    +0.000 A 
ATOM     26  C   UNL     1       1.371  14.019  19.566  0.00  0.00    +0.000 A 
ATOM     27  N   UNL     1       0.511  14.945  19.094  0.00  0.00    +0.000 NA
ATOM     28  O   UNL     1       1.291  15.893  18.458  0.00  0.00    +0.000 OA
ENDBRANCH   1  26
TORSDOF 3
ENDMDL
MODEL 6
REMARK VINA RESULT:      -7.2      6.127      7.690
REMARK  Name = 
REMARK  4 active torsions:
REMARK  status: ('A' for Active; 'I' for Inactive)
REMARK    1  A    between atoms: C_1  and  C_2
REMARK    2  A    between atoms: C_4  and  C_5
REMARK    3  A    between atoms: C_13  and  C_15
REMARK    4  A    between atoms: C_19  and  C_20
REMARK                            x       y       z     vdW  Elec       q    Type
REMARK                         _______ _______ _______ _____ _____    ______ ____
ROOT
ATOM      1  C   UNL     1       3.890   5.699  18.100  0.00  0.00    +0.000 A 
ATOM      2  N   UNL     1       3.815   4.790  19.056  0.00  0.00    +0.000 NA
ATOM      3  N   UNL     1       3.082   5.318  20.101  0.00  0.00    +0.000 NA
ATOM      4  C   UNL     1       2.707   6.533  19.760  0.00  0.00    +0.000 A 
ATOM      5  N   UNL     1       3.220   6.809  18.524  0.00  0.00    +0.000 N 
ATOM      6  C   UNL     1       2.949   8.013  17.792  0.00  0.00    +0.000 C 
ATOM      7  C   UNL     1       2.408   9.107  18.696  0.00  0.00    +0.000 C 
ATOM      8  N   UNL     1       1.417   8.612  19.659  0.00  0.00    +0.000 N 
ATOM      9  C   UNL     1       0.191   9.216  19.993  0.00  0.00    +0.000 C 
ATOM     10  O   UNL     1      -0.508   8.792  20.910  0.00  0.00    +0.000 OA
ATOM     11  C   UNL     1       1.881   7.512  20.529  0.00  0.00    +0.000 C 
ENDROOT
BRANCH   9  12
ATOM     12  C   UNL     1      -0.290  10.416  19.239  0.00  0.00    +0.000 A 
ATOM     13  C   UNL     1      -1.220  10.233  18.208  0.00  0.00    +0.000 A 
ATOM     14  C   UNL     1      -1.835  11.320  17.596  0.00  0.00    +0.000 A 
ATOM     15  C   UNL     1      -1.447  12.610  17.934  0.00  0.00    +0.000 A 
ATOM     16  C   UNL     1      -0.415  12.832  18.867  0.00  0.00    +0.000 A 
ATOM     17  C   UNL     1       0.171  11.725  19.521  0.00  0.00    +0.000 A 
ATOM     18 CL   UNL     1       1.444  12.009  20.663  0.00  0.00    +0.000 Cl
BRANCH  16  19
ATOM     19  C   UNL     1       0.017  14.253  19.145  0.00  0.00    +0.000 C 
ATOM     20  F   UNL     1       1.360  14.437  18.972  0.00  0.00    +0.000 F 
ATOM     21  F   UNL     1      -0.573  15.161  18.323  0.00  0.00    +0.000 F 
ATOM     22  F   UNL     1      -0.236  14.652  20.420  0.00  0.00    +0.000 F 
ENDBRANCH  16  19
ENDBRANCH   9  12
BRANCH   1  26
ATOM     23  C   UNL     1       6.001   3.888  13.837  0.00  0.00    +0.000 C 
ATOM     24  C   UNL     1       5.466   4.639  14.982  0.00  0.00    +0.000 A 
ATOM     25  C   UNL     1       4.795   4.289  16.132  0.00  0.00    +0.000 A 
ATOM     26  C   UNL     1       4.574   5.513  16.795  0.00  0.00    +0.000 A 
ATOM     27  N   UNL     1       5.083   6.543  16.088  0.00  0.00    +0.000 NA
ATOM     28  O   UNL     1       5.648   5.982  14.958  0.00  0.00    +0.000 OA
ENDBRANCH   1  26
TORSDOF 3
ENDMDL
MODEL 7
REMARK VINA RESULT:      -7.2      6.109      9.204
REMARK  Name = 
REMARK  4 active torsions:
REMARK  status: ('A' for Active; 'I' for Inactive)
REMARK    1  A    between atoms: C_1  and  C_2
REMARK    2  A    between atoms: C_4  and  C_5
REMARK    3  A    between atoms: C_13  and  C_15
REMARK    4  A    between atoms: C_19  and  C_20
REMARK                            x       y       z     vdW  Elec       q    Type
REMARK                         _______ _______ _______ _____ _____    ______ ____
ROOT
ATOM      1  C   UNL     1       1.071  12.850  20.419  0.00  0.00    +0.000 A 
ATOM      2  N   UNL     1       0.466  12.869  21.594  0.00  0.00    +0.000 NA
ATOM      3  N   UNL     1       0.131  11.572  21.931  0.00  0.00    +0.000 NA
ATOM      4  C   UNL     1       0.551  10.781  20.966  0.00  0.00    +0.000 A 
ATOM      5  N   UNL     1       1.120  11.555  19.994  0.00  0.00    +0.000 N 
ATOM      6  C   UNL     1       1.764  11.031  18.824  0.00  0.00    +0.000 C 
ATOM      7  C   UNL     1       1.370   9.586  18.568  0.00  0.00    +0.000 C 
ATOM      8  N   UNL     1       1.335   8.779  19.794  0.00  0.00    +0.000 N 
ATOM      9  C   UNL     1       1.853   7.482  19.964  0.00  0.00    +0.000 C 
ATOM     10  O   UNL     1       1.655   6.839  20.991  0.00  0.00    +0.000 OA
ATOM     11  C   UNL     1       0.452   9.294  20.861  0.00  0.00    +0.000 C 
ENDROOT
BRANCH   9  12
ATOM     12  C   UNL     1       2.653   6.839  18.874  0.00  0.00    +0.000 A 
ATOM     13  C   UNL     1       3.426   7.654  18.038  0.00  0.00    +0.000 A 
ATOM     14  C   UNL     1       4.324   7.104  17.130  0.00  0.00    +0.000 A 
ATOM     15  C   UNL     1       4.382   5.725  16.971  0.00  0.00    +0.000 A 
ATOM     16  C   UNL     1       3.520   4.878  17.694  0.00  0.00    +0.000 A 
ATOM     17  C   UNL     1       2.645   5.441  18.650  0.00  0.00    +0.000 A 
ATOM     18 CL   UNL     1       1.584   4.390  19.532  0.00  0.00    +0.000 Cl
BRANCH  16  19
ATOM     19  C   UNL     1       3.575   3.391  17.430  0.00  0.00    +0.000 C 
ATOM     20  F   UNL     1       4.558   3.050  16.544  0.00  0.00    +0.000 F 
ATOM     21  F   UNL     1       3.837   2.660  18.547  0.00  0.00    +0.000 F 
ATOM     22  F   UNL     1       2.427   2.896  16.896  0.00  0.00    +0.000 F 
ENDBRANCH  16  19
ENDBRANCH   9  12
BRANCH   1  26
ATOM     23  C   UNL     1       1.744  17.225  17.905  0.00  0.00    +0.000 C 
ATOM     24  C   UNL     1       1.804  15.943  18.623  0.00  0.00    +0.000 A 
ATOM     25  C   UNL     1       0.860  15.100  19.164  0.00  0.00    +0.000 A 
ATOM     26  C   UNL     1       1.610  14.042  19.716  0.00  0.00    +0.000 A 
ATOM     27  N   UNL     1       2.931  14.233  19.518  0.00  0.00    +0.000 NA
ATOM     28  O   UNL     1       3.039  15.424  18.824  0.00  0.00    +0.000 OA
ENDBRANCH   1  26
TORSDOF 3
ENDMDL
MODEL 8
REMARK VINA RESULT:      -6.9      6.518     10.041
REMARK  Name = 
REMARK  4 active torsions:
REMARK  status: ('A' for Active; 'I' for Inactive)
REMARK    1  A    between atoms: C_1  and  C_2
REMARK    2  A    between atoms: C_4  and  C_5
REMARK    3  A    between atoms: C_13  and  C_15
REMARK    4  A    between atoms: C_19  and  C_20
REMARK                            x       y       z     vdW  Elec       q    Type
REMARK                         _______ _______ _______ _____ _____    ______ ____
ROOT
ATOM      1  C   UNL     1      -1.550  12.351  20.269  0.00  0.00    +0.000 A 
ATOM      2  N   UNL     1      -1.490  13.177  19.240  0.00  0.00    +0.000 NA
ATOM      3  N   UNL     1      -0.416  12.812  18.451  0.00  0.00    +0.000 NA
ATOM      4  C   UNL     1       0.151  11.758  19.001  0.00  0.00    +0.000 A 
ATOM      5  N   UNL     1      -0.521  11.463  20.154  0.00  0.00    +0.000 N 
ATOM      6  C   UNL     1      -0.237  10.324  20.980  0.00  0.00    +0.000 C 
ATOM      7  C   UNL     1       1.136   9.746  20.684  0.00  0.00    +0.000 C 
ATOM      8  N   UNL     1       1.430   9.685  19.247  0.00  0.00    +0.000 N 
ATOM      9  C   UNL     1       2.011   8.608  18.551  0.00  0.00    +0.000 C 
ATOM     10  O   UNL     1       2.339   8.706  17.371  0.00  0.00    +0.000 OA
ATOM     11  C   UNL     1       1.330  10.972  18.529  0.00  0.00    +0.000 C 
ENDROOT
BRANCH   9  12
ATOM     12  C   UNL     1       2.263   7.307  19.246  0.00  0.00    +0.000 A 
ATOM     13  C   UNL     1       1.457   6.962  20.338  0.00  0.00    +0.000 A 
ATOM     14  C   UNL     1       1.524   5.695  20.907  0.00  0.00    +0.000 A 
ATOM     15  C   UNL     1       2.478   4.790  20.459  0.00  0.00    +0.000 A 
ATOM     16  C   UNL     1       3.399   5.150  19.456  0.00  0.00    +0.000 A 
ATOM     17  C   UNL     1       3.293   6.421  18.848  0.00  0.00    +0.000 A 
ATOM     18 CL   UNL     1       4.435   6.856  17.618  0.00  0.00    +0.000 Cl
BRANCH  16  19
ATOM     19  C   UNL     1       4.461   4.152  19.055  0.00  0.00    +0.000 C 
ATOM     20  F   UNL     1       5.728   4.621  19.262  0.00  0.00    +0.000 F 
ATOM     21  F   UNL     1       4.395   2.990  19.760  0.00  0.00    +0.000 F 
ATOM     22  F   UNL     1       4.416   3.818  17.739  0.00  0.00    +0.000 F 
ENDBRANCH  16  19
ENDBRANCH   9  12
BRANCH   1  26
ATOM     23  C   UNL     1      -4.108  12.491  24.668  0.00  0.00    +0.000 C 
ATOM     24  C   UNL     1      -3.600  12.447  23.289  0.00  0.00    +0.000 A 
ATOM     25  C   UNL     1      -2.343  12.427  22.728  0.00  0.00    +0.000 A 
ATOM     26  C   UNL     1      -2.579  12.391  21.339  0.00  0.00    +0.000 A 
ATOM     27  N   UNL     1      -3.902  12.390  21.075  0.00  0.00    +0.000 NA
ATOM     28  O   UNL     1      -4.532  12.416  22.305  0.00  0.00    +0.000 OA
ENDBRANCH   1  26
TORSDOF 3
ENDMDL
MODEL 9
REMARK VINA RESULT:      -6.9     10.220     12.719
REMARK  Name = 
REMARK  4 active torsions:
REMARK  status: ('A' for Active; 'I' for Inactive)
REMARK    1  A    between atoms: C_1  and  C_2
REMARK    2  A    between atoms: C_4  and  C_5
REMARK    3  A    between atoms: C_13  and  C_15
REMARK    4  A    between atoms: C_19  and  C_20
REMARK                            x       y       z     vdW  Elec       q    Type
REMARK                         _______ _______ _______ _____ _____    ______ ____
ROOT
ATOM      1  C   UNL     1       0.269  10.222  21.206  0.00  0.00    +0.000 A 
ATOM      2  N   UNL     1       0.564  10.021  22.478  0.00  0.00    +0.000 NA
ATOM      3  N   UNL     1      -0.331  10.736  23.250  0.00  0.00    +0.000 NA
ATOM      4  C   UNL     1      -1.168  11.348  22.439  0.00  0.00    +0.000 A 
ATOM      5  N   UNL     1      -0.801  11.066  21.152  0.00  0.00    +0.000 N 
ATOM      6  C   UNL     1      -1.534  11.494  19.996  0.00  0.00    +0.000 C 
ATOM      7  C   UNL     1      -2.486  12.631  20.325  0.00  0.00    +0.000 C 
ATOM      8  N   UNL     1      -3.196  12.430  21.594  0.00  0.00    +0.000 N 
ATOM      9  C   UNL     1      -4.565  12.644  21.836  0.00  0.00    +0.000 C 
ATOM     10  O   UNL     1      -5.038  12.575  22.968  0.00  0.00    +0.000 OA
ATOM     11  C   UNL     1      -2.330  12.225  22.773  0.00  0.00    +0.000 C 
ENDROOT
BRANCH   9  12
ATOM     12  C   UNL     1      -5.489  12.983  20.708  0.00  0.00    +0.000 A 
ATOM     13  C   UNL     1      -6.159  11.943  20.054  0.00  0.00    +0.000 A 
ATOM     14  C   UNL     1      -7.160  12.206  19.124  0.00  0.00    +0.000 A 
ATOM     15  C   UNL     1      -7.427  13.519  18.757  0.00  0.00    +0.000 A 
ATOM     16  C   UNL     1      -6.677  14.585  19.290  0.00  0.00    +0.000 A 
ATOM     17  C   UNL     1      -5.696  14.314  20.270  0.00  0.00    +0.000 A 
ATOM     18 CL   UNL     1      -4.775  15.633  20.917  0.00  0.00    +0.000 Cl
BRANCH  16  19
ATOM     19  C   UNL     1      -6.961  15.987  18.803  0.00  0.00    +0.000 C 
ATOM     20  F   UNL     1      -7.916  16.020  17.826  0.00  0.00    +0.000 F 
ATOM     21  F   UNL     1      -7.428  16.808  19.782  0.00  0.00    +0.000 F 
ATOM     22  F   UNL     1      -5.876  16.599  18.260  0.00  0.00    +0.000 F 
ENDBRANCH  16  19
ENDBRANCH   9  12
BRANCH   1  26
ATOM     23  C   UNL     1       2.810   7.175  18.017  0.00  0.00    +0.000 C 
ATOM     24  C   UNL     1       2.086   8.225  18.748  0.00  0.00    +0.000 A 
ATOM     25  C   UNL     1       1.533   8.314  20.005  0.00  0.00    +0.000 A 
ATOM     26  C   UNL     1       0.983   9.610  20.056  0.00  0.00    +0.000 A 
ATOM     27  N   UNL     1       1.192  10.268  18.897  0.00  0.00    +0.000 NA
ATOM     28  O   UNL     1       1.892   9.393  18.089  0.00  0.00    +0.000 OA
ENDBRANCH   1  26
TORSDOF 3
ENDMDL
