MODEL 1
REMARK VINA RESULT:      -6.9      0.000      0.000
REMARK  Name = 
REMARK  6 active torsions:
REMARK  status: ('A' for Active; 'I' for Inactive)
REMARK    1  A    between atoms: C_1  and  C_2
REMARK    2  A    between atoms: C_4  and  C_5
REMARK    3  A    between atoms: C_6  and  C_7
REMARK    4  A    between atoms: N_9  and  C_10
REMARK    5  A    between atoms: C_10  and  C_11
REMARK    6  A    between atoms: C_11  and  N_12
REMARK                            x       y       z     vdW  Elec       q    Type
REMARK                         _______ _______ _______ _____ _____    ______ ____
ROOT
ATOM      1  C   UNL     1       6.953   4.965  15.430  0.00  0.00    +0.000 C 
ATOM      2  O   UNL     1       7.387   6.077  15.733  0.00  0.00    +0.000 OA
ATOM      3  N   UNL     1       6.516   4.081  16.393  0.00  0.00    +0.000 N 
ATOM      4  H   UNL     1       6.368   3.110  16.147  0.00  0.00    +0.000 HD
ENDROOT
BRANCH   1  10
ATOM      5  C   UNL     1       5.351   2.442  11.625  0.00  0.00    +0.000 C 
ATOM      6  C   UNL     1       6.191   3.423  12.336  0.00  0.00    +0.000 A 
ATOM      7  N   UNL     1       7.141   4.209  11.853  0.00  0.00    +0.000 NA
ATOM      8  C   UNL     1       7.580   4.902  12.955  0.00  0.00    +0.000 A 
ATOM      9  C   UNL     1       8.654   5.919  12.884  0.00  0.00    +0.000 C 
ATOM     10  C   UNL     1       6.872   4.508  14.071  0.00  0.00    +0.000 A 
ATOM     11  O   UNL     1       5.977   3.546  13.682  0.00  0.00    +0.000 OA
ENDBRANCH   1  10
BRANCH   3  12
ATOM     12  C   UNL     1       6.652   4.473  17.779  0.00  0.00    +0.000 C 
BRANCH  12  13
ATOM     13  C   UNL     1       5.358   4.976  18.443  0.00  0.00    +0.000 C 
BRANCH  13  14
ATOM     14  N   UNL     1       4.152   4.256  17.980  0.00  0.00    +0.000 NA
ATOM     15  C   UNL     1       4.038   2.951  18.659  0.00  0.00    +0.000 C 
ATOM     16  C   UNL     1       2.836   2.160  18.158  0.00  0.00    +0.000 C 
ATOM     17  C   UNL     1       1.549   2.950  18.325  0.00  0.00    +0.000 C 
ATOM     18  C   UNL     1       1.690   4.329  17.693  0.00  0.00    +0.000 C 
ATOM     19  C   UNL     1       2.936   5.059  18.209  0.00  0.00    +0.000 C 
ENDBRANCH  13  14
ENDBRANCH  12  13
ENDBRANCH   3  12
TORSDOF 4
ENDMDL
MODEL 2
REMARK VINA RESULT:      -6.9      1.092      1.154
REMARK  Name = 
REMARK  6 active torsions:
REMARK  status: ('A' for Active; 'I' for Inactive)
REMARK    1  A    between atoms: C_1  and  C_2
REMARK    2  A    between atoms: C_4  and  C_5
REMARK    3  A    between atoms: C_6  and  C_7
REMARK    4  A    between atoms: N_9  and  C_10
REMARK    5  A    between atoms: C_10  and  C_11
REMARK    6  A    between atoms: C_11  and  N_12
REMARK                            x       y       z     vdW  Elec       q    Type
REMARK                         _______ _______ _______ _____ _____    ______ ____
ROOT
ATOM      1  C   UNL     1       6.805   5.078  15.370  0.00  0.00    +0.000 C 
ATOM      2  O   UNL     1       7.549   4.635  16.246  0.00  0.00    +0.000 OA
ATOM      3  N   UNL     1       5.929   6.110  15.629  0.00  0.00    +0.000 N 
ATOM      4  H   UNL     1       5.186   6.311  14.970  0.00  0.00    +0.000 HD
ENDROOT
BRANCH   1  10
ATOM      5  C   UNL     1       5.392   2.367  11.620  0.00  0.00    +0.000 C 
ATOM      6  C   UNL     1       6.192   3.387  12.320  0.00  0.00    +0.000 A 
ATOM      7  N   UNL     1       7.156   4.160  11.843  0.00  0.00    +0.000 NA
ATOM      8  C   UNL     1       7.540   4.907  12.930  0.00  0.00    +0.000 A 
ATOM      9  C   UNL     1       8.608   5.931  12.858  0.00  0.00    +0.000 C 
ATOM     10  C   UNL     1       6.788   4.557  14.031  0.00  0.00    +0.000 A 
ATOM     11  O   UNL     1       5.918   3.570  13.648  0.00  0.00    +0.000 OA
ENDBRANCH   1  10
BRANCH   3  12
ATOM     12  C   UNL     1       5.860   6.610  16.985  0.00  0.00    +0.000 C 
BRANCH  12  13
ATOM     13  C   UNL     1       4.453   6.612  17.608  0.00  0.00    +0.000 C 
BRANCH  13  14
ATOM     14  N   UNL     1       3.749   5.321  17.453  0.00  0.00    +0.000 NA
ATOM     15  C   UNL     1       4.474   4.250  18.163  0.00  0.00    +0.000 C 
ATOM     16  C   UNL     1       3.804   2.895  17.971  0.00  0.00    +0.000 C 
ATOM     17  C   UNL     1       2.353   2.931  18.420  0.00  0.00    +0.000 C 
ATOM     18  C   UNL     1       1.620   4.086  17.748  0.00  0.00    +0.000 C 
ATOM     19  C   UNL     1       2.362   5.413  17.945  0.00  0.00    +0.000 C 
ENDBRANCH  13  14
ENDBRANCH  12  13
ENDBRANCH   3  12
TORSDOF 4
ENDMDL
MODEL 3
REMARK VINA RESULT:      -6.8      5.743      7.833
REMARK  Name = 
REMARK  6 active torsions:
REMARK  status: ('A' for Active; 'I' for Inactive)
REMARK    1  A    between atoms: C_1  and  C_2
REMARK    2  A    between atoms: C_4  and  C_5
REMARK    3  A    between atoms: C_6  and  C_7
REMARK    4  A    between atoms: N_9  and  C_10
REMARK    5  A    between atoms: C_10  and  C_11
REMARK    6  A    between atoms: C_11  and  N_12
REMARK                            x       y       z     vdW  Elec       q    Type
REMARK                         _______ _______ _______ _____ _____    ______ ____
ROOT
ATOM      1  C   UNL     1       7.541   7.049  17.713  0.00  0.00    +0.000 C 
ATOM      2  O   UNL     1       8.018   6.539  18.728  0.00  0.00    +0.000 OA
ATOM      3  N   UNL     1       7.735   8.383  17.424  0.00  0.00    +0.000 N 
ATOM      4  H   UNL     1       7.167   8.827  16.713  0.00  0.00    +0.000 HD
ENDROOT
BRANCH   1  10
ATOM      5  C   UNL     1       6.577   4.228  13.902  0.00  0.00    +0.000 C 
ATOM      6  C   UNL     1       6.265   5.043  15.091  0.00  0.00    +0.000 A 
ATOM      7  N   UNL     1       5.087   5.291  15.643  0.00  0.00    +0.000 NA
ATOM      8  C   UNL     1       5.393   6.098  16.711  0.00  0.00    +0.000 A 
ATOM      9  C   UNL     1       4.363   6.625  17.636  0.00  0.00    +0.000 C 
ATOM     10  C   UNL     1       6.755   6.307  16.768  0.00  0.00    +0.000 A 
ATOM     11  O   UNL     1       7.327   5.635  15.719  0.00  0.00    +0.000 OA
ENDBRANCH   1  10
BRANCH   3  12
ATOM     12  C   UNL     1       8.457   9.183  18.390  0.00  0.00    +0.000 C 
BRANCH  12  13
ATOM     13  C   UNL     1       8.786  10.616  17.933  0.00  0.00    +0.000 C 
BRANCH  13  14
ATOM     14  N   UNL     1      10.092  11.097  18.432  0.00  0.00    +0.000 NA
ATOM     15  C   UNL     1      10.581  12.214  17.602  0.00  0.00    +0.000 C 
ATOM     16  C   UNL     1      11.954  12.693  18.056  0.00  0.00    +0.000 C 
ATOM     17  C   UNL     1      11.939  13.097  19.521  0.00  0.00    +0.000 C 
ATOM     18  C   UNL     1      11.361  11.975  20.373  0.00  0.00    +0.000 C 
ATOM     19  C   UNL     1       9.998  11.513  19.844  0.00  0.00    +0.000 C 
ENDBRANCH  13  14
ENDBRANCH  12  13
ENDBRANCH   3  12
TORSDOF 4
ENDMDL
MODEL 4
REMARK VINA RESULT:      -6.6      1.095      1.258
REMARK  Name = 
REMARK  6 active torsions:
REMARK  status: ('A' for Active; 'I' for Inactive)
REMARK    1  A    between atoms: C_1  and  C_2
REMARK    2  A    between atoms: C_4  and  C_5
REMARK    3  A    between atoms: C_6  and  C_7
REMARK    4  A    between atoms: N_9  and  C_10
REMARK    5  A    between atoms: C_10  and  C_11
REMARK    6  A    between atoms: C_11  and  N_12
REMARK                            x       y       z     vdW  Elec       q    Type
REMARK                         _______ _______ _______ _____ _____    ______ ____
ROOT
ATOM      1  C   UNL     1       6.792   4.670  15.487  0.00  0.00    +0.000 C 
ATOM      2  O   UNL     1       7.835   4.644  16.141  0.00  0.00    +0.000 OA
ATOM      3  N   UNL     1       5.595   5.043  16.061  0.00  0.00    +0.000 N 
ATOM      4  H   UNL     1       4.728   4.854  15.573  0.00  0.00    +0.000 HD
ENDROOT
BRANCH   1  10
ATOM      5  C   UNL     1       5.275   2.438  11.471  0.00  0.00    +0.000 C 
ATOM      6  C   UNL     1       6.098   3.363  12.271  0.00  0.00    +0.000 A 
ATOM      7  N   UNL     1       7.054   4.186  11.868  0.00  0.00    +0.000 NA
ATOM      8  C   UNL     1       7.468   4.795  13.027  0.00  0.00    +0.000 A 
ATOM      9  C   UNL     1       8.540   5.817  13.054  0.00  0.00    +0.000 C 
ATOM     10  C   UNL     1       6.740   4.316  14.096  0.00  0.00    +0.000 A 
ATOM     11  O   UNL     1       5.856   3.385  13.618  0.00  0.00    +0.000 OA
ENDBRANCH   1  10
BRANCH   3  12
ATOM     12  C   UNL     1       5.591   5.333  17.479  0.00  0.00    +0.000 C 
BRANCH  12  13
ATOM     13  C   UNL     1       4.992   4.228  18.368  0.00  0.00    +0.000 C 
BRANCH  13  14
ATOM     14  N   UNL     1       3.550   4.420  18.636  0.00  0.00    +0.000 NA
ATOM     15  C   UNL     1       2.817   3.154  18.447  0.00  0.00    +0.000 C 
ATOM     16  C   UNL     1       1.319   3.334  18.658  0.00  0.00    +0.000 C 
ATOM     17  C   UNL     1       1.024   3.908  20.034  0.00  0.00    +0.000 C 
ATOM     18  C   UNL     1       1.839   5.174  20.265  0.00  0.00    +0.000 C 
ATOM     19  C   UNL     1       3.331   4.938  20.000  0.00  0.00    +0.000 C 
ENDBRANCH  13  14
ENDBRANCH  12  13
ENDBRANCH   3  12
TORSDOF 4
ENDMDL
MODEL 5
REMARK VINA RESULT:      -6.6      2.068      3.159
REMARK  Name = 
REMARK  6 active torsions:
REMARK  status: ('A' for Active; 'I' for Inactive)
REMARK    1  A    between atoms: C_1  and  C_2
REMARK    2  A    between atoms: C_4  and  C_5
REMARK    3  A    between atoms: C_6  and  C_7
REMARK    4  A    between atoms: N_9  and  C_10
REMARK    5  A    between atoms: C_10  and  C_11
REMARK    6  A    between atoms: C_11  and  N_12
REMARK                            x       y       z     vdW  Elec       q    Type
REMARK                         _______ _______ _______ _____ _____    ______ ____
ROOT
ATOM      1  C   UNL     1       5.468   4.712  18.177  0.00  0.00    +0.000 C 
ATOM      2  O   UNL     1       4.821   5.593  18.745  0.00  0.00    +0.000 OA
ATOM      3  N   UNL     1       5.662   3.478  18.759  0.00  0.00    +0.000 N 
ATOM      4  H   UNL     1       6.365   2.854  18.382  0.00  0.00    +0.000 HD
ENDROOT
BRANCH   1  10
ATOM      5  C   UNL     1       6.382   3.928  13.491  0.00  0.00    +0.000 C 
ATOM      6  C   UNL     1       6.503   4.608  14.794  0.00  0.00    +0.000 A 
ATOM      7  N   UNL     1       7.233   5.666  15.115  0.00  0.00    +0.000 NA
ATOM      8  C   UNL     1       6.959   5.855  16.448  0.00  0.00    +0.000 A 
ATOM      9  C   UNL     1       7.563   6.953  17.239  0.00  0.00    +0.000 C 
ATOM     10  C   UNL     1       6.066   4.901  16.885  0.00  0.00    +0.000 A 
ATOM     11  O   UNL     1       5.770   4.085  15.824  0.00  0.00    +0.000 OA
ENDBRANCH   1  10
BRANCH   3  12
ATOM     12  C   UNL     1       5.141   3.274  20.094  0.00  0.00    +0.000 C 
BRANCH  12  13
ATOM     13  C   UNL     1       4.330   1.980  20.285  0.00  0.00    +0.000 C 
BRANCH  13  14
ATOM     14  N   UNL     1       2.869   2.198  20.219  0.00  0.00    +0.000 NA
ATOM     15  C   UNL     1       2.529   3.558  20.678  0.00  0.00    +0.000 C 
ATOM     16  C   UNL     1       1.023   3.791  20.678  0.00  0.00    +0.000 C 
ATOM     17  C   UNL     1       0.428   3.539  19.302  0.00  0.00    +0.000 C 
ATOM     18  C   UNL     1       0.843   2.166  18.791  0.00  0.00    +0.000 C 
ATOM     19  C   UNL     1       2.363   1.979  18.851  0.00  0.00    +0.000 C 
ENDBRANCH  13  14
ENDBRANCH  12  13
ENDBRANCH   3  12
TORSDOF 4
ENDMDL
MODEL 6
REMARK VINA RESULT:      -6.5      2.751      4.293
REMARK  Name = 
REMARK  6 active torsions:
REMARK  status: ('A' for Active; 'I' for Inactive)
REMARK    1  A    between atoms: C_1  and  C_2
REMARK    2  A    between atoms: C_4  and  C_5
REMARK    3  A    between atoms: C_6  and  C_7
REMARK    4  A    between atoms: N_9  and  C_10
REMARK    5  A    between atoms: C_10  and  C_11
REMARK    6  A    between atoms: C_11  and  N_12
REMARK                            x       y       z     vdW  Elec       q    Type
REMARK                         _______ _______ _______ _____ _____    ______ ____
ROOT
ATOM      1  C   UNL     1       4.530   5.237  17.517  0.00  0.00    +0.000 C 
ATOM      2  O   UNL     1       3.853   5.515  18.507  0.00  0.00    +0.000 OA
ATOM      3  N   UNL     1       4.146   4.241  16.645  0.00  0.00    +0.000 N 
ATOM      4  H   UNL     1       4.812   3.886  15.969  0.00  0.00    +0.000 HD
ENDROOT
BRANCH   1  10
ATOM      5  C   UNL     1       8.001   8.598  17.765  0.00  0.00    +0.000 C 
ATOM      6  C   UNL     1       7.341   7.375  17.275  0.00  0.00    +0.000 A 
ATOM      7  N   UNL     1       7.763   6.510  16.364  0.00  0.00    +0.000 NA
ATOM      8  C   UNL     1       6.756   5.578  16.311  0.00  0.00    +0.000 A 
ATOM      9  C   UNL     1       6.804   4.400  15.415  0.00  0.00    +0.000 C 
ATOM     10  C   UNL     1       5.756   5.914  17.199  0.00  0.00    +0.000 A 
ATOM     11  O   UNL     1       6.123   7.079  17.822  0.00  0.00    +0.000 OA
ENDBRANCH   1  10
BRANCH   3  12
ATOM     12  C   UNL     1       2.957   3.483  16.970  0.00  0.00    +0.000 C 
BRANCH  12  13
ATOM     13  C   UNL     1       3.204   2.203  17.787  0.00  0.00    +0.000 C 
BRANCH  13  14
ATOM     14  N   UNL     1       2.520   2.212  19.099  0.00  0.00    +0.000 NA
ATOM     15  C   UNL     1       3.495   2.412  20.187  0.00  0.00    +0.000 C 
ATOM     16  C   UNL     1       2.827   2.366  21.556  0.00  0.00    +0.000 C 
ATOM     17  C   UNL     1       1.711   3.394  21.657  0.00  0.00    +0.000 C 
ATOM     18  C   UNL     1       0.745   3.242  20.490  0.00  0.00    +0.000 C 
ATOM     19  C   UNL     1       1.481   3.258  19.145  0.00  0.00    +0.000 C 
ENDBRANCH  13  14
ENDBRANCH  12  13
ENDBRANCH   3  12
TORSDOF 4
ENDMDL
MODEL 7
REMARK VINA RESULT:      -6.5      3.190      4.820
REMARK  Name = 
REMARK  6 active torsions:
REMARK  status: ('A' for Active; 'I' for Inactive)
REMARK    1  A    between atoms: C_1  and  C_2
REMARK    2  A    between atoms: C_4  and  C_5
REMARK    3  A    between atoms: C_6  and  C_7
REMARK    4  A    between atoms: N_9  and  C_10
REMARK    5  A    between atoms: C_10  and  C_11
REMARK    6  A    between atoms: C_11  and  N_12
REMARK                            x       y       z     vdW  Elec       q    Type
REMARK                         _______ _______ _______ _____ _____    ______ ____
ROOT
ATOM      1  C   UNL     1       5.967   6.323  16.710  0.00  0.00    +0.000 C 
ATOM      2  O   UNL     1       5.451   6.708  15.660  0.00  0.00    +0.000 OA
ATOM      3  N   UNL     1       5.607   5.124  17.287  0.00  0.00    +0.000 N 
ATOM      4  H   UNL     1       5.877   4.930  18.243  0.00  0.00    +0.000 HD
ENDROOT
BRANCH   1  10
ATOM      5  C   UNL     1       8.650  10.157  17.940  0.00  0.00    +0.000 C 
ATOM      6  C   UNL     1       8.181   8.761  18.009  0.00  0.00    +0.000 A 
ATOM      7  N   UNL     1       8.578   7.789  18.816  0.00  0.00    +0.000 NA
ATOM      8  C   UNL     1       7.807   6.717  18.436  0.00  0.00    +0.000 A 
ATOM      9  C   UNL     1       7.909   5.390  19.086  0.00  0.00    +0.000 C 
ATOM     10  C   UNL     1       6.965   7.084  17.408  0.00  0.00    +0.000 A 
ATOM     11  O   UNL     1       7.204   8.403  17.120  0.00  0.00    +0.000 OA
ENDBRANCH   1  10
BRANCH   3  12
ATOM     12  C   UNL     1       4.549   4.364  16.656  0.00  0.00    +0.000 C 
BRANCH  12  13
ATOM     13  C   UNL     1       4.015   3.181  17.483  0.00  0.00    +0.000 C 
BRANCH  13  14
ATOM     14  N   UNL     1       2.832   3.533  18.299  0.00  0.00    +0.000 NA
ATOM     15  C   UNL     1       1.944   2.365  18.450  0.00  0.00    +0.000 C 
ATOM     16  C   UNL     1       0.687   2.712  19.236  0.00  0.00    +0.000 C 
ATOM     17  C   UNL     1       1.032   3.287  20.600  0.00  0.00    +0.000 C 
ATOM     18  C   UNL     1       2.012   4.444  20.453  0.00  0.00    +0.000 C 
ATOM     19  C   UNL     1       3.236   4.043  19.622  0.00  0.00    +0.000 C 
ENDBRANCH  13  14
ENDBRANCH  12  13
ENDBRANCH   3  12
TORSDOF 4
ENDMDL
MODEL 8
REMARK VINA RESULT:      -6.5      3.274      4.754
REMARK  Name = 
REMARK  6 active torsions:
REMARK  status: ('A' for Active; 'I' for Inactive)
REMARK    1  A    between atoms: C_1  and  C_2
REMARK    2  A    between atoms: C_4  and  C_5
REMARK    3  A    between atoms: C_6  and  C_7
REMARK    4  A    between atoms: N_9  and  C_10
REMARK    5  A    between atoms: C_10  and  C_11
REMARK    6  A    between atoms: C_11  and  N_12
REMARK                            x       y       z     vdW  Elec       q    Type
REMARK                         _______ _______ _______ _____ _____    ______ ____
ROOT
ATOM      1  C   UNL     1       6.034   5.620  17.006  0.00  0.00    +0.000 C 
ATOM      2  O   UNL     1       6.247   5.037  15.942  0.00  0.00    +0.000 OA
ATOM      3  N   UNL     1       4.886   5.385  17.732  0.00  0.00    +0.000 N 
ATOM      4  H   UNL     1       4.630   6.019  18.479  0.00  0.00    +0.000 HD
ENDROOT
BRANCH   1  10
ATOM      5  C   UNL     1       8.303   9.853  17.587  0.00  0.00    +0.000 C 
ATOM      6  C   UNL     1       7.981   8.444  17.878  0.00  0.00    +0.000 A 
ATOM      7  N   UNL     1       8.476   7.655  18.820  0.00  0.00    +0.000 NA
ATOM      8  C   UNL     1       7.821   6.464  18.622  0.00  0.00    +0.000 A 
ATOM      9  C   UNL     1       8.059   5.272  19.468  0.00  0.00    +0.000 C 
ATOM     10  C   UNL     1       6.947   6.578  17.563  0.00  0.00    +0.000 A 
ATOM     11  O   UNL     1       7.048   7.853  17.070  0.00  0.00    +0.000 OA
ENDBRANCH   1  10
BRANCH   3  12
ATOM     12  C   UNL     1       3.904   4.483  17.168  0.00  0.00    +0.000 C 
BRANCH  12  13
ATOM     13  C   UNL     1       3.987   3.032  17.672  0.00  0.00    +0.000 C 
BRANCH  13  14
ATOM     14  N   UNL     1       3.016   2.736  18.747  0.00  0.00    +0.000 NA
ATOM     15  C   UNL     1       3.625   2.966  20.070  0.00  0.00    +0.000 C 
ATOM     16  C   UNL     1       2.666   2.612  21.200  0.00  0.00    +0.000 C 
ATOM     17  C   UNL     1       1.365   3.389  21.080  0.00  0.00    +0.000 C 
ATOM     18  C   UNL     1       0.773   3.217  19.688  0.00  0.00    +0.000 C 
ATOM     19  C   UNL     1       1.797   3.552  18.597  0.00  0.00    +0.000 C 
ENDBRANCH  13  14
ENDBRANCH  12  13
ENDBRANCH   3  12
TORSDOF 4
ENDMDL
MODEL 9
REMARK VINA RESULT:      -6.4      5.491      7.427
REMARK  Name = 
REMARK  6 active torsions:
REMARK  status: ('A' for Active; 'I' for Inactive)
REMARK    1  A    between atoms: C_1  and  C_2
REMARK    2  A    between atoms: C_4  and  C_5
REMARK    3  A    between atoms: C_6  and  C_7
REMARK    4  A    between atoms: N_9  and  C_10
REMARK    5  A    between atoms: C_10  and  C_11
REMARK    6  A    between atoms: C_11  and  N_12
REMARK                            x       y       z     vdW  Elec       q    Type
REMARK                         _______ _______ _______ _____ _____    ______ ____
ROOT
ATOM      1  C   UNL     1       7.470   6.815  17.678  0.00  0.00    +0.000 C 
ATOM      2  O   UNL     1       8.001   6.393  18.705  0.00  0.00    +0.000 OA
ATOM      3  N   UNL     1       7.566   8.142  17.315  0.00  0.00    +0.000 N 
ATOM      4  H   UNL     1       6.954   8.508  16.597  0.00  0.00    +0.000 HD
ENDROOT
BRANCH   1  10
ATOM      5  C   UNL     1       6.503   4.111  13.784  0.00  0.00    +0.000 C 
ATOM      6  C   UNL     1       6.232   4.745  15.087  0.00  0.00    +0.000 A 
ATOM      7  N   UNL     1       5.144   4.668  15.839  0.00  0.00    +0.000 NA
ATOM      8  C   UNL     1       5.446   5.450  16.927  0.00  0.00    +0.000 A 
ATOM      9  C   UNL     1       4.504   5.652  18.052  0.00  0.00    +0.000 C 
ATOM     10  C   UNL     1       6.715   5.973  16.792  0.00  0.00    +0.000 A 
ATOM     11  O   UNL     1       7.228   5.528  15.602  0.00  0.00    +0.000 OA
ENDBRANCH   1  10
BRANCH   3  12
ATOM     12  C   UNL     1       8.254   9.039  18.219  0.00  0.00    +0.000 C 
BRANCH  12  13
ATOM     13  C   UNL     1       8.699  10.374  17.598  0.00  0.00    +0.000 C 
BRANCH  13  14
ATOM     14  N   UNL     1       9.241  11.324  18.594  0.00  0.00    +0.000 NA
ATOM     15  C   UNL     1       9.505  10.636  19.872  0.00  0.00    +0.000 C 
ATOM     16  C   UNL     1      10.009  11.602  20.937  0.00  0.00    +0.000 C 
ATOM     17  C   UNL     1      11.255  12.335  20.469  0.00  0.00    +0.000 C 
ATOM     18  C   UNL     1      11.011  12.980  19.112  0.00  0.00    +0.000 C 
ATOM     19  C   UNL     1      10.471  11.967  18.096  0.00  0.00    +0.000 C 
ENDBRANCH  13  14
ENDBRANCH  12  13
ENDBRANCH   3  12
TORSDOF 4
ENDMDL
