MODEL 1
REMARK VINA RESULT:      -6.8      0.000      0.000
REMARK  Name = 
REMARK  7 active torsions:
REMARK  status: ('A' for Active; 'I' for Inactive)
REMARK    1  A    between atoms: C_1  and  C_2
REMARK    2  A    between atoms: C_4  and  C_5
REMARK    3  A    between atoms: N_6  and  C_7
REMARK    4  A    between atoms: C_7  and  C_8
REMARK    5  A    between atoms: C_8  and  C_9
REMARK    6  A    between atoms: N_11  and  C_12
REMARK    7  A    between atoms: C_12  and  C_13
REMARK                            x       y       z     vdW  Elec       q    Type
REMARK                         _______ _______ _______ _____ _____    ______ ____
ROOT
ATOM      1  C   UNL     1       5.147   6.756  17.299  0.00  0.00    +0.000 C 
ATOM      2  O   UNL     1       4.724   7.229  16.247  0.00  0.00    +0.000 OA
ATOM      3  N   UNL     1       4.319   6.254  18.275  0.00  0.00    +0.000 N 
ATOM      4  H   UNL     1       4.697   5.999  19.179  0.00  0.00    +0.000 HD
ENDROOT
BRANCH   1   5
ATOM      5  C   UNL     1       6.621   6.657  17.621  0.00  0.00    +0.000 C 
BRANCH   5   6
ATOM      6  C   UNL     1       7.147   5.280  17.219  0.00  0.00    +0.000 C 
BRANCH   6  12
ATOM      7  C   UNL     1       7.679   5.056  12.401  0.00  0.00    +0.000 C 
ATOM      8  C   UNL     1       7.114   4.778  13.741  0.00  0.00    +0.000 A 
ATOM      9  C   UNL     1       6.033   3.930  14.060  0.00  0.00    +0.000 A 
ATOM     10  C   UNL     1       5.900   4.007  15.429  0.00  0.00    +0.000 A 
ATOM     11  C   UNL     1       4.940   3.335  16.337  0.00  0.00    +0.000 C 
ATOM     12  N   UNL     1       6.879   4.876  15.848  0.00  0.00    +0.000 N 
ATOM     13  N   UNL     1       7.626   5.357  14.832  0.00  0.00    +0.000 NA
ENDBRANCH   6  12
ENDBRANCH   5   6
ENDBRANCH   1   5
BRANCH   3  14
ATOM     14  C   UNL     1       2.874   6.285  18.139  0.00  0.00    +0.000 C 
BRANCH  14  15
ATOM     15  C   UNL     1       2.188   5.113  18.806  0.00  0.00    +0.000 A 
ATOM     16  C   UNL     1       1.674   4.070  18.037  0.00  0.00    +0.000 A 
ATOM     17  C   UNL     1       1.063   2.993  18.674  0.00  0.00    +0.000 A 
ATOM     18  C   UNL     1       0.976   2.986  20.060  0.00  0.00    +0.000 A 
ATOM     19  C   UNL     1       1.503   4.062  20.753  0.00  0.00    +0.000 A 
ATOM     20  N   UNL     1       2.099   5.125  20.163  0.00  0.00    +0.000 NA
ENDBRANCH  14  15
ENDBRANCH   3  14
TORSDOF 5
ENDMDL
MODEL 2
REMARK VINA RESULT:      -6.8      1.462      1.542
REMARK  Name = 
REMARK  7 active torsions:
REMARK  status: ('A' for Active; 'I' for Inactive)
REMARK    1  A    between atoms: C_1  and  C_2
REMARK    2  A    between atoms: C_4  and  C_5
REMARK    3  A    between atoms: N_6  and  C_7
REMARK    4  A    between atoms: C_7  and  C_8
REMARK    5  A    between atoms: C_8  and  C_9
REMARK    6  A    between atoms: N_11  and  C_12
REMARK    7  A    between atoms: C_12  and  C_13
REMARK                            x       y       z     vdW  Elec       q    Type
REMARK                         _______ _______ _______ _____ _____    ______ ____
ROOT
ATOM      1  C   UNL     1       6.035   5.672  18.948  0.00  0.00    +0.000 C 
ATOM      2  O   UNL     1       6.534   5.144  19.940  0.00  0.00    +0.000 OA
ATOM      3  N   UNL     1       4.687   5.909  18.830  0.00  0.00    +0.000 N 
ATOM      4  H   UNL     1       4.301   6.221  17.948  0.00  0.00    +0.000 HD
ENDROOT
BRANCH   1   5
ATOM      5  C   UNL     1       6.854   6.133  17.764  0.00  0.00    +0.000 C 
BRANCH   5   6
ATOM      6  C   UNL     1       7.460   4.924  17.052  0.00  0.00    +0.000 C 
BRANCH   6  12
ATOM      7  C   UNL     1       7.515   5.026  12.201  0.00  0.00    +0.000 C 
ATOM      8  C   UNL     1       7.027   4.739  13.570  0.00  0.00    +0.000 A 
ATOM      9  C   UNL     1       5.839   4.076  13.939  0.00  0.00    +0.000 A 
ATOM     10  C   UNL     1       5.844   4.057  15.316  0.00  0.00    +0.000 A 
ATOM     11  C   UNL     1       4.858   3.493  16.269  0.00  0.00    +0.000 C 
ATOM     12  N   UNL     1       7.002   4.695  15.691  0.00  0.00    +0.000 N 
ATOM     13  N   UNL     1       7.734   5.119  14.640  0.00  0.00    +0.000 NA
ENDBRANCH   6  12
ENDBRANCH   5   6
ENDBRANCH   1   5
BRANCH   3  14
ATOM     14  C   UNL     1       3.750   5.514  19.867  0.00  0.00    +0.000 C 
BRANCH  14  15
ATOM     15  C   UNL     1       2.814   4.407  19.433  0.00  0.00    +0.000 A 
ATOM     16  C   UNL     1       2.005   4.573  18.309  0.00  0.00    +0.000 A 
ATOM     17  C   UNL     1       1.165   3.534  17.918  0.00  0.00    +0.000 A 
ATOM     18  C   UNL     1       1.149   2.359  18.658  0.00  0.00    +0.000 A 
ATOM     19  C   UNL     1       1.976   2.275  19.765  0.00  0.00    +0.000 A 
ATOM     20  N   UNL     1       2.800   3.267  20.173  0.00  0.00    +0.000 NA
ENDBRANCH  14  15
ENDBRANCH   3  14
TORSDOF 5
ENDMDL
MODEL 3
REMARK VINA RESULT:      -6.7      1.854      6.640
REMARK  Name = 
REMARK  7 active torsions:
REMARK  status: ('A' for Active; 'I' for Inactive)
REMARK    1  A    between atoms: C_1  and  C_2
REMARK    2  A    between atoms: C_4  and  C_5
REMARK    3  A    between atoms: N_6  and  C_7
REMARK    4  A    between atoms: C_7  and  C_8
REMARK    5  A    between atoms: C_8  and  C_9
REMARK    6  A    between atoms: N_11  and  C_12
REMARK    7  A    between atoms: C_12  and  C_13
REMARK                            x       y       z     vdW  Elec       q    Type
REMARK                         _______ _______ _______ _____ _____    ______ ____
ROOT
ATOM      1  C   UNL     1       4.402   4.364  16.608  0.00  0.00    +0.000 C 
ATOM      2  O   UNL     1       4.330   5.590  16.675  0.00  0.00    +0.000 OA
ATOM      3  N   UNL     1       5.548   3.706  16.228  0.00  0.00    +0.000 N 
ATOM      4  H   UNL     1       5.526   2.709  16.056  0.00  0.00    +0.000 HD
ENDROOT
BRANCH   1   5
ATOM      5  C   UNL     1       3.246   3.454  16.954  0.00  0.00    +0.000 C 
BRANCH   5   6
ATOM      6  C   UNL     1       2.098   4.275  17.539  0.00  0.00    +0.000 C 
BRANCH   6  12
ATOM      7  C   UNL     1       1.381   2.512  22.003  0.00  0.00    +0.000 C 
ATOM      8  C   UNL     1       1.679   3.501  20.941  0.00  0.00    +0.000 A 
ATOM      9  C   UNL     1       1.982   4.868  21.099  0.00  0.00    +0.000 A 
ATOM     10  C   UNL     1       2.183   5.348  19.824  0.00  0.00    +0.000 A 
ATOM     11  C   UNL     1       2.532   6.712  19.358  0.00  0.00    +0.000 C 
ATOM     12  N   UNL     1       1.992   4.273  18.989  0.00  0.00    +0.000 N 
ATOM     13  N   UNL     1       1.682   3.140  19.653  0.00  0.00    +0.000 NA
ENDBRANCH   6  12
ENDBRANCH   5   6
ENDBRANCH   1   5
BRANCH   3  14
ATOM     14  C   UNL     1       6.749   4.427  15.843  0.00  0.00    +0.000 C 
BRANCH  14  15
ATOM     15  C   UNL     1       7.230   5.391  16.906  0.00  0.00    +0.000 A 
ATOM     16  C   UNL     1       7.564   4.925  18.177  0.00  0.00    +0.000 A 
ATOM     17  C   UNL     1       8.021   5.828  19.133  0.00  0.00    +0.000 A 
ATOM     18  C   UNL     1       8.131   7.172  18.799  0.00  0.00    +0.000 A 
ATOM     19  C   UNL     1       7.772   7.557  17.518  0.00  0.00    +0.000 A 
ATOM     20  N   UNL     1       7.321   6.705  16.569  0.00  0.00    +0.000 NA
ENDBRANCH  14  15
ENDBRANCH   3  14
TORSDOF 5
ENDMDL
MODEL 4
REMARK VINA RESULT:      -6.6      4.052      7.315
REMARK  Name = 
REMARK  7 active torsions:
REMARK  status: ('A' for Active; 'I' for Inactive)
REMARK    1  A    between atoms: C_1  and  C_2
REMARK    2  A    between atoms: C_4  and  C_5
REMARK    3  A    between atoms: N_6  and  C_7
REMARK    4  A    between atoms: C_7  and  C_8
REMARK    5  A    between atoms: C_8  and  C_9
REMARK    6  A    between atoms: N_11  and  C_12
REMARK    7  A    between atoms: C_12  and  C_13
REMARK                            x       y       z     vdW  Elec       q    Type
REMARK                         _______ _______ _______ _____ _____    ______ ____
ROOT
ATOM      1  C   UNL     1       7.569   7.090  17.703  0.00  0.00    +0.000 C 
ATOM      2  O   UNL     1       7.051   7.251  16.601  0.00  0.00    +0.000 OA
ATOM      3  N   UNL     1       8.184   8.108  18.393  0.00  0.00    +0.000 N 
ATOM      4  H   UNL     1       8.714   7.905  19.231  0.00  0.00    +0.000 HD
ENDROOT
BRANCH   1   5
ATOM      5  C   UNL     1       7.568   5.761  18.425  0.00  0.00    +0.000 C 
BRANCH   5   6
ATOM      6  C   UNL     1       6.333   5.660  19.320  0.00  0.00    +0.000 C 
BRANCH   6  12
ATOM      7  C   UNL     1       3.645   1.732  18.374  0.00  0.00    +0.000 C 
ATOM      8  C   UNL     1       4.055   3.155  18.379  0.00  0.00    +0.000 A 
ATOM      9  C   UNL     1       3.379   4.247  17.798  0.00  0.00    +0.000 A 
ATOM     10  C   UNL     1       4.156   5.349  18.078  0.00  0.00    +0.000 A 
ATOM     11  C   UNL     1       3.956   6.776  17.727  0.00  0.00    +0.000 C 
ATOM     12  N   UNL     1       5.230   4.874  18.791  0.00  0.00    +0.000 N 
ATOM     13  N   UNL     1       5.186   3.538  18.981  0.00  0.00    +0.000 NA
ENDBRANCH   6  12
ENDBRANCH   5   6
ENDBRANCH   1   5
BRANCH   3  14
ATOM     14  C   UNL     1       8.293   9.446  17.840  0.00  0.00    +0.000 C 
BRANCH  14  15
ATOM     15  C   UNL     1       9.248  10.332  18.609  0.00  0.00    +0.000 A 
ATOM     16  C   UNL     1      10.237  11.049  17.935  0.00  0.00    +0.000 A 
ATOM     17  C   UNL     1      11.093  11.872  18.662  0.00  0.00    +0.000 A 
ATOM     18  C   UNL     1      10.945  11.956  20.041  0.00  0.00    +0.000 A 
ATOM     19  C   UNL     1       9.945  11.207  20.636  0.00  0.00    +0.000 A 
ATOM     20  N   UNL     1       9.100  10.396  19.959  0.00  0.00    +0.000 NA
ENDBRANCH  14  15
ENDBRANCH   3  14
TORSDOF 5
ENDMDL
MODEL 5
REMARK VINA RESULT:      -6.6      1.735      2.451
REMARK  Name = 
REMARK  7 active torsions:
REMARK  status: ('A' for Active; 'I' for Inactive)
REMARK    1  A    between atoms: C_1  and  C_2
REMARK    2  A    between atoms: C_4  and  C_5
REMARK    3  A    between atoms: N_6  and  C_7
REMARK    4  A    between atoms: C_7  and  C_8
REMARK    5  A    between atoms: C_8  and  C_9
REMARK    6  A    between atoms: N_11  and  C_12
REMARK    7  A    between atoms: C_12  and  C_13
REMARK                            x       y       z     vdW  Elec       q    Type
REMARK                         _______ _______ _______ _____ _____    ______ ____
ROOT
ATOM      1  C   UNL     1       3.957   5.686  18.266  0.00  0.00    +0.000 C 
ATOM      2  O   UNL     1       4.352   5.584  19.426  0.00  0.00    +0.000 OA
ATOM      3  N   UNL     1       3.550   4.606  17.521  0.00  0.00    +0.000 N 
ATOM      4  H   UNL     1       3.361   4.714  16.532  0.00  0.00    +0.000 HD
ENDROOT
BRANCH   1   5
ATOM      5  C   UNL     1       3.859   7.012  17.546  0.00  0.00    +0.000 C 
BRANCH   5   6
ATOM      6  C   UNL     1       5.203   7.351  16.902  0.00  0.00    +0.000 C 
BRANCH   6  12
ATOM      7  C   UNL     1       6.294   3.949  13.618  0.00  0.00    +0.000 C 
ATOM      8  C   UNL     1       6.392   4.750  14.861  0.00  0.00    +0.000 A 
ATOM      9  C   UNL     1       7.333   4.613  15.901  0.00  0.00    +0.000 A 
ATOM     10  C   UNL     1       7.007   5.586  16.819  0.00  0.00    +0.000 A 
ATOM     11  C   UNL     1       7.640   5.930  18.115  0.00  0.00    +0.000 C 
ATOM     12  N   UNL     1       5.915   6.237  16.298  0.00  0.00    +0.000 N 
ATOM     13  N   UNL     1       5.525   5.739  15.106  0.00  0.00    +0.000 NA
ENDBRANCH   6  12
ENDBRANCH   5   6
ENDBRANCH   1   5
BRANCH   3  14
ATOM     14  C   UNL     1       3.595   3.254  18.050  0.00  0.00    +0.000 C 
BRANCH  14  15
ATOM     15  C   UNL     1       2.781   3.082  19.314  0.00  0.00    +0.000 A 
ATOM     16  C   UNL     1       1.422   3.394  19.320  0.00  0.00    +0.000 A 
ATOM     17  C   UNL     1       0.689   3.210  20.490  0.00  0.00    +0.000 A 
ATOM     18  C   UNL     1       1.330   2.726  21.623  0.00  0.00    +0.000 A 
ATOM     19  C   UNL     1       2.683   2.448  21.539  0.00  0.00    +0.000 A 
ATOM     20  N   UNL     1       3.424   2.619  20.419  0.00  0.00    +0.000 NA
ENDBRANCH  14  15
ENDBRANCH   3  14
TORSDOF 5
ENDMDL
MODEL 6
REMARK VINA RESULT:      -6.6      1.144      1.242
REMARK  Name = 
REMARK  7 active torsions:
REMARK  status: ('A' for Active; 'I' for Inactive)
REMARK    1  A    between atoms: C_1  and  C_2
REMARK    2  A    between atoms: C_4  and  C_5
REMARK    3  A    between atoms: N_6  and  C_7
REMARK    4  A    between atoms: C_7  and  C_8
REMARK    5  A    between atoms: C_8  and  C_9
REMARK    6  A    between atoms: N_11  and  C_12
REMARK    7  A    between atoms: C_12  and  C_13
REMARK                            x       y       z     vdW  Elec       q    Type
REMARK                         _______ _______ _______ _____ _____    ______ ____
ROOT
ATOM      1  C   UNL     1       5.092   6.751  17.895  0.00  0.00    +0.000 C 
ATOM      2  O   UNL     1       4.097   7.316  17.445  0.00  0.00    +0.000 OA
ATOM      3  N   UNL     1       5.042   5.907  18.978  0.00  0.00    +0.000 N 
ATOM      4  H   UNL     1       5.899   5.569  19.398  0.00  0.00    +0.000 HD
ENDROOT
BRANCH   1   5
ATOM      5  C   UNL     1       6.469   6.909  17.291  0.00  0.00    +0.000 C 
BRANCH   5   6
ATOM      6  C   UNL     1       7.058   5.533  16.980  0.00  0.00    +0.000 C 
BRANCH   6  12
ATOM      7  C   UNL     1       7.592   4.901  12.199  0.00  0.00    +0.000 C 
ATOM      8  C   UNL     1       7.025   4.739  13.558  0.00  0.00    +0.000 A 
ATOM      9  C   UNL     1       5.941   3.925  13.946  0.00  0.00    +0.000 A 
ATOM     10  C   UNL     1       5.807   4.119  15.303  0.00  0.00    +0.000 A 
ATOM     11  C   UNL     1       4.843   3.529  16.263  0.00  0.00    +0.000 C 
ATOM     12  N   UNL     1       6.790   5.015  15.648  0.00  0.00    +0.000 N 
ATOM     13  N   UNL     1       7.539   5.406  14.596  0.00  0.00    +0.000 NA
ENDBRANCH   6  12
ENDBRANCH   5   6
ENDBRANCH   1   5
BRANCH   3  14
ATOM     14  C   UNL     1       3.802   5.655  19.692  0.00  0.00    +0.000 C 
BRANCH  14  15
ATOM     15  C   UNL     1       3.101   4.393  19.239  0.00  0.00    +0.000 A 
ATOM     16  C   UNL     1       1.972   4.472  18.425  0.00  0.00    +0.000 A 
ATOM     17  C   UNL     1       1.354   3.296  18.006  0.00  0.00    +0.000 A 
ATOM     18  C   UNL     1       1.874   2.074  18.412  0.00  0.00    +0.000 A 
ATOM     19  C   UNL     1       2.993   2.080  19.227  0.00  0.00    +0.000 A 
ATOM     20  N   UNL     1       3.613   3.204  19.654  0.00  0.00    +0.000 NA
ENDBRANCH  14  15
ENDBRANCH   3  14
TORSDOF 5
ENDMDL
MODEL 7
REMARK VINA RESULT:      -6.5      2.680      4.420
REMARK  Name = 
REMARK  7 active torsions:
REMARK  status: ('A' for Active; 'I' for Inactive)
REMARK    1  A    between atoms: C_1  and  C_2
REMARK    2  A    between atoms: C_4  and  C_5
REMARK    3  A    between atoms: N_6  and  C_7
REMARK    4  A    between atoms: C_7  and  C_8
REMARK    5  A    between atoms: C_8  and  C_9
REMARK    6  A    between atoms: N_11  and  C_12
REMARK    7  A    between atoms: C_12  and  C_13
REMARK                            x       y       z     vdW  Elec       q    Type
REMARK                         _______ _______ _______ _____ _____    ______ ____
ROOT
ATOM      1  C   UNL     1       2.343   4.449  18.460  0.00  0.00    +0.000 C 
ATOM      2  O   UNL     1       1.541   3.911  19.221  0.00  0.00    +0.000 OA
ATOM      3  N   UNL     1       2.851   5.706  18.685  0.00  0.00    +0.000 N 
ATOM      4  H   UNL     1       3.401   6.166  17.970  0.00  0.00    +0.000 HD
ENDROOT
BRANCH   1   5
ATOM      5  C   UNL     1       2.867   3.779  17.211  0.00  0.00    +0.000 C 
BRANCH   5   6
ATOM      6  C   UNL     1       4.191   3.079  17.518  0.00  0.00    +0.000 C 
BRANCH   6  12
ATOM      7  C   UNL     1       7.790   5.800  19.303  0.00  0.00    +0.000 C 
ATOM      8  C   UNL     1       6.946   5.116  18.297  0.00  0.00    +0.000 A 
ATOM      9  C   UNL     1       7.108   5.116  16.896  0.00  0.00    +0.000 A 
ATOM     10  C   UNL     1       6.079   4.339  16.410  0.00  0.00    +0.000 A 
ATOM     11  C   UNL     1       5.733   3.972  15.016  0.00  0.00    +0.000 C 
ATOM     12  N   UNL     1       5.372   3.928  17.514  0.00  0.00    +0.000 N 
ATOM     13  N   UNL     1       5.885   4.394  18.672  0.00  0.00    +0.000 NA
ENDBRANCH   6  12
ENDBRANCH   5   6
ENDBRANCH   1   5
BRANCH   3  14
ATOM     14  C   UNL     1       2.441   6.502  19.828  0.00  0.00    +0.000 C 
BRANCH  14  15
ATOM     15  C   UNL     1       1.969   7.888  19.450  0.00  0.00    +0.000 A 
ATOM     16  C   UNL     1       2.233   8.397  18.179  0.00  0.00    +0.000 A 
ATOM     17  C   UNL     1       1.773   9.669  17.847  0.00  0.00    +0.000 A 
ATOM     18  C   UNL     1       1.065  10.402  18.792  0.00  0.00    +0.000 A 
ATOM     19  C   UNL     1       0.851   9.830  20.034  0.00  0.00    +0.000 A 
ATOM     20  N   UNL     1       1.289   8.600  20.388  0.00  0.00    +0.000 NA
ENDBRANCH  14  15
ENDBRANCH   3  14
TORSDOF 5
ENDMDL
MODEL 8
REMARK VINA RESULT:      -6.5      1.866      6.773
REMARK  Name = 
REMARK  7 active torsions:
REMARK  status: ('A' for Active; 'I' for Inactive)
REMARK    1  A    between atoms: C_1  and  C_2
REMARK    2  A    between atoms: C_4  and  C_5
REMARK    3  A    between atoms: N_6  and  C_7
REMARK    4  A    between atoms: C_7  and  C_8
REMARK    5  A    between atoms: C_8  and  C_9
REMARK    6  A    between atoms: N_11  and  C_12
REMARK    7  A    between atoms: C_12  and  C_13
REMARK                            x       y       z     vdW  Elec       q    Type
REMARK                         _______ _______ _______ _____ _____    ______ ____
ROOT
ATOM      1  C   UNL     1       6.852   4.759  17.982  0.00  0.00    +0.000 C 
ATOM      2  O   UNL     1       8.003   4.337  18.082  0.00  0.00    +0.000 OA
ATOM      3  N   UNL     1       6.409   5.458  16.886  0.00  0.00    +0.000 N 
ATOM      4  H   UNL     1       5.499   5.903  16.901  0.00  0.00    +0.000 HD
ENDROOT
BRANCH   1   5
ATOM      5  C   UNL     1       5.802   4.537  19.046  0.00  0.00    +0.000 C 
BRANCH   5   6
ATOM      6  C   UNL     1       4.528   3.984  18.407  0.00  0.00    +0.000 C 
BRANCH   6  12
ATOM      7  C   UNL     1       1.339   2.558  21.775  0.00  0.00    +0.000 C 
ATOM      8  C   UNL     1       1.942   3.394  20.712  0.00  0.00    +0.000 A 
ATOM      9  C   UNL     1       1.442   4.599  20.178  0.00  0.00    +0.000 A 
ATOM     10  C   UNL     1       2.360   4.986  19.227  0.00  0.00    +0.000 A 
ATOM     11  C   UNL     1       2.375   6.173  18.338  0.00  0.00    +0.000 C 
ATOM     12  N   UNL     1       3.335   4.019  19.239  0.00  0.00    +0.000 N 
ATOM     13  N   UNL     1       3.096   3.040  20.136  0.00  0.00    +0.000 NA
ENDBRANCH   6  12
ENDBRANCH   5   6
ENDBRANCH   1   5
BRANCH   3  14
ATOM     14  C   UNL     1       7.291   5.778  15.777  0.00  0.00    +0.000 C 
BRANCH  14  15
ATOM     15  C   UNL     1       6.953   5.022  14.511  0.00  0.00    +0.000 A 
ATOM     16  C   UNL     1       5.886   4.123  14.494  0.00  0.00    +0.000 A 
ATOM     17  C   UNL     1       5.582   3.453  13.312  0.00  0.00    +0.000 A 
ATOM     18  C   UNL     1       6.351   3.691  12.180  0.00  0.00    +0.000 A 
ATOM     19  C   UNL     1       7.398   4.591  12.280  0.00  0.00    +0.000 A 
ATOM     20  N   UNL     1       7.721   5.255  13.413  0.00  0.00    +0.000 NA
ENDBRANCH  14  15
ENDBRANCH   3  14
TORSDOF 5
ENDMDL
MODEL 9
REMARK VINA RESULT:      -6.5      1.449      6.462
REMARK  Name = 
REMARK  7 active torsions:
REMARK  status: ('A' for Active; 'I' for Inactive)
REMARK    1  A    between atoms: C_1  and  C_2
REMARK    2  A    between atoms: C_4  and  C_5
REMARK    3  A    between atoms: N_6  and  C_7
REMARK    4  A    between atoms: C_7  and  C_8
REMARK    5  A    between atoms: C_8  and  C_9
REMARK    6  A    between atoms: N_11  and  C_12
REMARK    7  A    between atoms: C_12  and  C_13
REMARK                            x       y       z     vdW  Elec       q    Type
REMARK                         _______ _______ _______ _____ _____    ______ ____
ROOT
ATOM      1  C   UNL     1       4.886   5.861  18.441  0.00  0.00    +0.000 C 
ATOM      2  O   UNL     1       5.467   5.022  19.127  0.00  0.00    +0.000 OA
ATOM      3  N   UNL     1       5.408   6.354  17.269  0.00  0.00    +0.000 N 
ATOM      4  H   UNL     1       4.965   7.138  16.807  0.00  0.00    +0.000 HD
ENDROOT
BRANCH   1   5
ATOM      5  C   UNL     1       3.531   6.422  18.804  0.00  0.00    +0.000 C 
BRANCH   5   6
ATOM      6  C   UNL     1       2.431   5.527  18.234  0.00  0.00    +0.000 C 
BRANCH   6  12
ATOM      7  C   UNL     1       1.303   2.577  21.918  0.00  0.00    +0.000 C 
ATOM      8  C   UNL     1       1.705   2.989  20.553  0.00  0.00    +0.000 A 
ATOM      9  C   UNL     1       1.996   2.156  19.453  0.00  0.00    +0.000 A 
ATOM     10  C   UNL     1       2.312   3.012  18.421  0.00  0.00    +0.000 A 
ATOM     11  C   UNL     1       2.699   2.719  17.020  0.00  0.00    +0.000 C 
ATOM     12  N   UNL     1       2.200   4.278  18.942  0.00  0.00    +0.000 N 
ATOM     13  N   UNL     1       1.834   4.283  20.240  0.00  0.00    +0.000 NA
ENDBRANCH   6  12
ENDBRANCH   5   6
ENDBRANCH   1   5
BRANCH   3  14
ATOM     14  C   UNL     1       6.710   5.937  16.780  0.00  0.00    +0.000 C 
BRANCH  14  15
ATOM     15  C   UNL     1       6.646   5.234  15.442  0.00  0.00    +0.000 A 
ATOM     16  C   UNL     1       5.612   4.338  15.170  0.00  0.00    +0.000 A 
ATOM     17  C   UNL     1       5.563   3.716  13.925  0.00  0.00    +0.000 A 
ATOM     18  C   UNL     1       6.547   3.998  12.986  0.00  0.00    +0.000 A 
ATOM     19  C   UNL     1       7.544   4.892  13.335  0.00  0.00    +0.000 A 
ATOM     20  N   UNL     1       7.622   5.510  14.537  0.00  0.00    +0.000 NA
ENDBRANCH  14  15
ENDBRANCH   3  14
TORSDOF 5
ENDMDL
