MODEL 1
REMARK VINA RESULT:      -8.3      0.000      0.000
REMARK  Name = 
REMARK  7 active torsions:
REMARK  status: ('A' for Active; 'I' for Inactive)
REMARK    1  A    between atoms: C_1  and  C_2
REMARK    2  A    between atoms: C_4  and  C_5
REMARK    3  A    between atoms: C_7  and  S_8
REMARK    4  A    between atoms: S_8  and  N_11
REMARK    5  A    between atoms: C_13  and  O_14
REMARK    6  A    between atoms: O_14  and  C_15
REMARK    7  A    between atoms: C_15  and  C_16
REMARK                            x       y       z     vdW  Elec       q    Type
REMARK                         _______ _______ _______ _____ _____    ______ ____
ROOT
ATOM      1  N   UNL     1       3.330   4.720  19.692  0.00  0.00    +0.000 NA
ATOM      2  C   UNL     1       2.488   5.730  19.003  0.00  0.00    +0.000 C 
ATOM      3  C   UNL     1       1.562   5.840  20.234  0.00  0.00    +0.000 C 
ATOM      4  C   UNL     1       2.325   4.612  20.782  0.00  0.00    +0.000 C 
ENDROOT
BRANCH   1   5
ATOM      5  S   UNL     1       4.112   3.430  18.944  0.00  0.00    +0.000 S 
ATOM      6  O   UNL     1       3.108   2.690  18.210  0.00  0.00    +0.000 OA
ATOM      7  O   UNL     1       4.965   2.788  19.922  0.00  0.00    +0.000 OA
BRANCH   5  14
ATOM      8  C   UNL     1       7.696   7.087  17.786  0.00  0.00    +0.000 C 
ATOM      9  C   UNL     1       6.808   5.976  17.307  0.00  0.00    +0.000 A 
ATOM     10  C   UNL     1       6.853   5.529  15.977  0.00  0.00    +0.000 A 
ATOM     11  C   UNL     1       6.040   4.471  15.543  0.00  0.00    +0.000 A 
ATOM     12  C   UNL     1       6.060   4.009  14.115  0.00  0.00    +0.000 C 
ATOM     13  C   UNL     1       5.197   3.837  16.462  0.00  0.00    +0.000 A 
ATOM     14  C   UNL     1       5.155   4.280  17.790  0.00  0.00    +0.000 A 
ATOM     15  C   UNL     1       5.935   5.357  18.209  0.00  0.00    +0.000 A 
ENDBRANCH   5  14
ENDBRANCH   1   5
BRANCH   3  16
ATOM     16  O   UNL     1       1.648   7.046  21.028  0.00  0.00    +0.000 OA
BRANCH  16  17
ATOM     17  C   UNL     1       1.506   8.277  20.319  0.00  0.00    +0.000 C 
BRANCH  17  18
ATOM     18  C   UNL     1       0.639   9.220  21.112  0.00  0.00    +0.000 A 
ATOM     19  C   UNL     1       0.462   9.004  22.494  0.00  0.00    +0.000 A 
ATOM     20  C   UNL     1      -0.335   9.854  23.253  0.00  0.00    +0.000 A 
ATOM     21  C   UNL     1      -0.976  10.917  22.635  0.00  0.00    +0.000 A 
ATOM     22  F   UNL     1      -1.743  11.737  23.365  0.00  0.00    +0.000 F 
ATOM     23  C   UNL     1      -0.842  11.145  21.273  0.00  0.00    +0.000 A 
ATOM     24  C   UNL     1      -0.040  10.293  20.510  0.00  0.00    +0.000 A 
ATOM     25 CL   UNL     1       0.075  10.615  18.815  0.00  0.00    +0.000 Cl
ENDBRANCH  17  18
ENDBRANCH  16  17
ENDBRANCH   3  16
TORSDOF 5
ENDMDL
MODEL 2
REMARK VINA RESULT:      -8.3      0.082      1.734
REMARK  Name = 
REMARK  7 active torsions:
REMARK  status: ('A' for Active; 'I' for Inactive)
REMARK    1  A    between atoms: C_1  and  C_2
REMARK    2  A    between atoms: C_4  and  C_5
REMARK    3  A    between atoms: C_7  and  S_8
REMARK    4  A    between atoms: S_8  and  N_11
REMARK    5  A    between atoms: C_13  and  O_14
REMARK    6  A    between atoms: O_14  and  C_15
REMARK    7  A    between atoms: C_15  and  C_16
REMARK                            x       y       z     vdW  Elec       q    Type
REMARK                         _______ _______ _______ _____ _____    ______ ____
ROOT
ATOM      1  N   UNL     1       3.372   4.729  19.663  0.00  0.00    +0.000 NA
ATOM      2  C   UNL     1       2.429   5.660  18.996  0.00  0.00    +0.000 C 
ATOM      3  C   UNL     1       1.627   5.833  20.304  0.00  0.00    +0.000 C 
ATOM      4  C   UNL     1       2.486   4.672  20.856  0.00  0.00    +0.000 C 
ENDROOT
BRANCH   1   5
ATOM      5  S   UNL     1       4.121   3.410  18.932  0.00  0.00    +0.000 S 
ATOM      6  O   UNL     1       3.105   2.705  18.179  0.00  0.00    +0.000 OA
ATOM      7  O   UNL     1       4.933   2.740  19.927  0.00  0.00    +0.000 OA
BRANCH   5  14
ATOM      8  C   UNL     1       6.122   4.070  14.123  0.00  0.00    +0.000 C 
ATOM      9  C   UNL     1       6.104   4.489  15.565  0.00  0.00    +0.000 A 
ATOM     10  C   UNL     1       6.868   5.576  16.018  0.00  0.00    +0.000 A 
ATOM     11  C   UNL     1       6.824   5.978  17.361  0.00  0.00    +0.000 A 
ATOM     12  C   UNL     1       7.663   7.119  17.859  0.00  0.00    +0.000 C 
ATOM     13  C   UNL     1       5.981   5.303  18.250  0.00  0.00    +0.000 A 
ATOM     14  C   UNL     1       5.215   4.221  17.796  0.00  0.00    +0.000 A 
ATOM     15  C   UNL     1       5.290   3.797  16.470  0.00  0.00    +0.000 A 
ENDBRANCH   5  14
ENDBRANCH   1   5
BRANCH   3  16
ATOM     16  O   UNL     1       1.749   7.097  20.998  0.00  0.00    +0.000 OA
BRANCH  16  17
ATOM     17  C   UNL     1       1.450   8.266  20.234  0.00  0.00    +0.000 C 
BRANCH  17  18
ATOM     18  C   UNL     1       0.615   9.209  21.060  0.00  0.00    +0.000 A 
ATOM     19  C   UNL     1       0.487   8.990  22.447  0.00  0.00    +0.000 A 
ATOM     20  C   UNL     1      -0.280   9.841  23.237  0.00  0.00    +0.000 A 
ATOM     21  C   UNL     1      -0.939  10.908  22.644  0.00  0.00    +0.000 A 
ATOM     22  F   UNL     1      -1.677  11.728  23.403  0.00  0.00    +0.000 F 
ATOM     23  C   UNL     1      -0.854  11.138  21.278  0.00  0.00    +0.000 A 
ATOM     24  C   UNL     1      -0.082  10.286  20.485  0.00  0.00    +0.000 A 
ATOM     25 CL   UNL     1      -0.027  10.611  18.788  0.00  0.00    +0.000 Cl
ENDBRANCH  17  18
ENDBRANCH  16  17
ENDBRANCH   3  16
TORSDOF 5
ENDMDL
MODEL 3
REMARK VINA RESULT:      -8.2      0.966      2.019
REMARK  Name = 
REMARK  7 active torsions:
REMARK  status: ('A' for Active; 'I' for Inactive)
REMARK    1  A    between atoms: C_1  and  C_2
REMARK    2  A    between atoms: C_4  and  C_5
REMARK    3  A    between atoms: C_7  and  S_8
REMARK    4  A    between atoms: S_8  and  N_11
REMARK    5  A    between atoms: C_13  and  O_14
REMARK    6  A    between atoms: O_14  and  C_15
REMARK    7  A    between atoms: C_15  and  C_16
REMARK                            x       y       z     vdW  Elec       q    Type
REMARK                         _______ _______ _______ _____ _____    ______ ____
ROOT
ATOM      1  N   UNL     1       2.385   4.847  18.780  0.00  0.00    +0.000 NA
ATOM      2  C   UNL     1       2.575   5.400  20.145  0.00  0.00    +0.000 C 
ATOM      3  C   UNL     1       2.526   6.843  19.598  0.00  0.00    +0.000 C 
ATOM      4  C   UNL     1       2.588   6.198  18.195  0.00  0.00    +0.000 C 
ENDROOT
BRANCH   1   5
ATOM      5  S   UNL     1       3.061   3.416  18.206  0.00  0.00    +0.000 S 
ATOM      6  O   UNL     1       2.248   2.977  17.091  0.00  0.00    +0.000 OA
ATOM      7  O   UNL     1       3.328   2.554  19.338  0.00  0.00    +0.000 OA
BRANCH   5  14
ATOM      8  C   UNL     1       6.364   4.437  14.254  0.00  0.00    +0.000 C 
ATOM      9  C   UNL     1       6.102   4.450  15.733  0.00  0.00    +0.000 A 
ATOM     10  C   UNL     1       7.028   5.000  16.632  0.00  0.00    +0.000 A 
ATOM     11  C   UNL     1       6.764   5.034  18.010  0.00  0.00    +0.000 A 
ATOM     12  C   UNL     1       7.764   5.591  18.981  0.00  0.00    +0.000 C 
ATOM     13  C   UNL     1       5.544   4.539  18.483  0.00  0.00    +0.000 A 
ATOM     14  C   UNL     1       4.618   3.995  17.585  0.00  0.00    +0.000 A 
ATOM     15  C   UNL     1       4.899   3.926  16.221  0.00  0.00    +0.000 A 
ENDBRANCH   5  14
ENDBRANCH   1   5
BRANCH   3  16
ATOM     16  O   UNL     1       1.343   7.625  19.886  0.00  0.00    +0.000 OA
BRANCH  16  17
ATOM     17  C   UNL     1       1.491   9.043  19.805  0.00  0.00    +0.000 C 
BRANCH  17  18
ATOM     18  C   UNL     1       0.612   9.702  20.836  0.00  0.00    +0.000 A 
ATOM     19  C   UNL     1       0.522   9.147  22.129  0.00  0.00    +0.000 A 
ATOM     20  C   UNL     1      -0.285   9.730  23.101  0.00  0.00    +0.000 A 
ATOM     21  C   UNL     1      -1.022  10.861  22.785  0.00  0.00    +0.000 A 
ATOM     22  F   UNL     1      -1.798  11.423  23.720  0.00  0.00    +0.000 F 
ATOM     23  C   UNL     1      -0.975  11.419  21.515  0.00  0.00    +0.000 A 
ATOM     24  C   UNL     1      -0.164  10.836  20.538  0.00  0.00    +0.000 A 
ATOM     25 CL   UNL     1      -0.159  11.564  18.970  0.00  0.00    +0.000 Cl
ENDBRANCH  17  18
ENDBRANCH  16  17
ENDBRANCH   3  16
TORSDOF 5
ENDMDL
MODEL 4
REMARK VINA RESULT:      -8.2      0.977      1.166
REMARK  Name = 
REMARK  7 active torsions:
REMARK  status: ('A' for Active; 'I' for Inactive)
REMARK    1  A    between atoms: C_1  and  C_2
REMARK    2  A    between atoms: C_4  and  C_5
REMARK    3  A    between atoms: C_7  and  S_8
REMARK    4  A    between atoms: S_8  and  N_11
REMARK    5  A    between atoms: C_13  and  O_14
REMARK    6  A    between atoms: O_14  and  C_15
REMARK    7  A    between atoms: C_15  and  C_16
REMARK                            x       y       z     vdW  Elec       q    Type
REMARK                         _______ _______ _______ _____ _____    ______ ____
ROOT
ATOM      1  N   UNL     1       2.445   4.819  18.843  0.00  0.00    +0.000 NA
ATOM      2  C   UNL     1       2.755   5.379  20.183  0.00  0.00    +0.000 C 
ATOM      3  C   UNL     1       2.586   6.820  19.651  0.00  0.00    +0.000 C 
ATOM      4  C   UNL     1       2.525   6.178  18.246  0.00  0.00    +0.000 C 
ENDROOT
BRANCH   1   5
ATOM      5  S   UNL     1       3.116   3.419  18.193  0.00  0.00    +0.000 S 
ATOM      6  O   UNL     1       2.287   3.027  17.073  0.00  0.00    +0.000 OA
ATOM      7  O   UNL     1       3.405   2.507  19.281  0.00  0.00    +0.000 OA
BRANCH   5  14
ATOM      8  C   UNL     1       7.873   5.519  18.918  0.00  0.00    +0.000 C 
ATOM      9  C   UNL     1       6.843   4.997  17.960  0.00  0.00    +0.000 A 
ATOM     10  C   UNL     1       7.112   4.894  16.586  0.00  0.00    +0.000 A 
ATOM     11  C   UNL     1       6.154   4.378  15.700  0.00  0.00    +0.000 A 
ATOM     12  C   UNL     1       6.423   4.295  14.225  0.00  0.00    +0.000 C 
ATOM     13  C   UNL     1       4.927   3.933  16.203  0.00  0.00    +0.000 A 
ATOM     14  C   UNL     1       4.661   4.032  17.574  0.00  0.00    +0.000 A 
ATOM     15  C   UNL     1       5.599   4.581  18.448  0.00  0.00    +0.000 A 
ENDBRANCH   5  14
ENDBRANCH   1   5
BRANCH   3  16
ATOM     16  O   UNL     1       1.408   7.549  20.067  0.00  0.00    +0.000 OA
BRANCH  16  17
ATOM     17  C   UNL     1       1.384   8.941  19.746  0.00  0.00    +0.000 C 
BRANCH  17  18
ATOM     18  C   UNL     1       0.569   9.682  20.774  0.00  0.00    +0.000 A 
ATOM     19  C   UNL     1       0.223   9.040  21.980  0.00  0.00    +0.000 A 
ATOM     20  C   UNL     1      -0.533   9.695  22.947  0.00  0.00    +0.000 A 
ATOM     21  C   UNL     1      -0.963  10.992  22.709  0.00  0.00    +0.000 A 
ATOM     22  F   UNL     1      -1.690  11.625  23.639  0.00  0.00    +0.000 F 
ATOM     23  C   UNL     1      -0.660  11.645  21.523  0.00  0.00    +0.000 A 
ATOM     24  C   UNL     1       0.100  10.988  20.552  0.00  0.00    +0.000 A 
ATOM     25 CL   UNL     1       0.431  11.844  19.087  0.00  0.00    +0.000 Cl
ENDBRANCH  17  18
ENDBRANCH  16  17
ENDBRANCH   3  16
TORSDOF 5
ENDMDL
MODEL 5
REMARK VINA RESULT:      -8.2      1.643      2.103
REMARK  Name = 
REMARK  7 active torsions:
REMARK  status: ('A' for Active; 'I' for Inactive)
REMARK    1  A    between atoms: C_1  and  C_2
REMARK    2  A    between atoms: C_4  and  C_5
REMARK    3  A    between atoms: C_7  and  S_8
REMARK    4  A    between atoms: S_8  and  N_11
REMARK    5  A    between atoms: C_13  and  O_14
REMARK    6  A    between atoms: O_14  and  C_15
REMARK    7  A    between atoms: C_15  and  C_16
REMARK                            x       y       z     vdW  Elec       q    Type
REMARK                         _______ _______ _______ _____ _____    ______ ____
ROOT
ATOM      1  N   UNL     1       2.427   4.601  18.918  0.00  0.00    +0.000 NA
ATOM      2  C   UNL     1       2.703   5.036  20.310  0.00  0.00    +0.000 C 
ATOM      3  C   UNL     1       2.485   6.515  19.922  0.00  0.00    +0.000 C 
ATOM      4  C   UNL     1       2.462   6.014  18.459  0.00  0.00    +0.000 C 
ENDROOT
BRANCH   1   5
ATOM      5  S   UNL     1       3.157   3.297  18.142  0.00  0.00    +0.000 S 
ATOM      6  O   UNL     1       2.346   2.980  16.985  0.00  0.00    +0.000 OA
ATOM      7  O   UNL     1       3.483   2.300  19.139  0.00  0.00    +0.000 OA
BRANCH   5  14
ATOM      8  C   UNL     1       7.772   5.615  19.085  0.00  0.00    +0.000 C 
ATOM      9  C   UNL     1       6.791   5.092  18.077  0.00  0.00    +0.000 A 
ATOM     10  C   UNL     1       7.092   5.082  16.706  0.00  0.00    +0.000 A 
ATOM     11  C   UNL     1       6.181   4.565  15.772  0.00  0.00    +0.000 A 
ATOM     12  C   UNL     1       6.482   4.581  14.301  0.00  0.00    +0.000 C 
ATOM     13  C   UNL     1       4.973   4.024  16.223  0.00  0.00    +0.000 A 
ATOM     14  C   UNL     1       4.675   4.030  17.591  0.00  0.00    +0.000 A 
ATOM     15  C   UNL     1       5.564   4.580  18.514  0.00  0.00    +0.000 A 
ENDBRANCH   5  14
ENDBRANCH   1   5
BRANCH   3  16
ATOM     16  O   UNL     1       1.276   7.156  20.391  0.00  0.00    +0.000 OA
BRANCH  16  17
ATOM     17  C   UNL     1       1.454   8.317  21.204  0.00  0.00    +0.000 C 
BRANCH  17  18
ATOM     18  C   UNL     1       0.623   9.448  20.657  0.00  0.00    +0.000 A 
ATOM     19  C   UNL     1       0.727   9.790  19.294  0.00  0.00    +0.000 A 
ATOM     20  C   UNL     1      -0.024  10.833  18.760  0.00  0.00    +0.000 A 
ATOM     21  C   UNL     1      -0.872  11.553  19.589  0.00  0.00    +0.000 A 
ATOM     22  F   UNL     1      -1.596  12.556  19.076  0.00  0.00    +0.000 F 
ATOM     23  C   UNL     1      -0.981  11.258  20.940  0.00  0.00    +0.000 A 
ATOM     24  C   UNL     1      -0.228  10.210  21.477  0.00  0.00    +0.000 A 
ATOM     25 CL   UNL     1      -0.390   9.900  23.169  0.00  0.00    +0.000 Cl
ENDBRANCH  17  18
ENDBRANCH  16  17
ENDBRANCH   3  16
TORSDOF 5
ENDMDL
MODEL 6
REMARK VINA RESULT:      -8.2      1.541      2.599
REMARK  Name = 
REMARK  7 active torsions:
REMARK  status: ('A' for Active; 'I' for Inactive)
REMARK    1  A    between atoms: C_1  and  C_2
REMARK    2  A    between atoms: C_4  and  C_5
REMARK    3  A    between atoms: C_7  and  S_8
REMARK    4  A    between atoms: S_8  and  N_11
REMARK    5  A    between atoms: C_13  and  O_14
REMARK    6  A    between atoms: O_14  and  C_15
REMARK    7  A    between atoms: C_15  and  C_16
REMARK                            x       y       z     vdW  Elec       q    Type
REMARK                         _______ _______ _______ _____ _____    ______ ____
ROOT
ATOM      1  N   UNL     1       3.360   4.832  19.603  0.00  0.00    +0.000 NA
ATOM      2  C   UNL     1       2.411   5.755  18.932  0.00  0.00    +0.000 C 
ATOM      3  C   UNL     1       1.633   5.960  20.250  0.00  0.00    +0.000 C 
ATOM      4  C   UNL     1       2.494   4.805  20.811  0.00  0.00    +0.000 C 
ENDROOT
BRANCH   1   5
ATOM      5  S   UNL     1       4.088   3.494  18.887  0.00  0.00    +0.000 S 
ATOM      6  O   UNL     1       3.059   2.786  18.155  0.00  0.00    +0.000 OA
ATOM      7  O   UNL     1       4.903   2.832  19.884  0.00  0.00    +0.000 OA
BRANCH   5  14
ATOM      8  C   UNL     1       6.049   4.054  14.048  0.00  0.00    +0.000 C 
ATOM      9  C   UNL     1       6.049   4.496  15.483  0.00  0.00    +0.000 A 
ATOM     10  C   UNL     1       6.828   5.583  15.911  0.00  0.00    +0.000 A 
ATOM     11  C   UNL     1       6.802   6.008  17.248  0.00  0.00    +0.000 A 
ATOM     12  C   UNL     1       7.657   7.148  17.719  0.00  0.00    +0.000 C 
ATOM     13  C   UNL     1       5.961   5.356  18.155  0.00  0.00    +0.000 A 
ATOM     14  C   UNL     1       5.180   4.274  17.727  0.00  0.00    +0.000 A 
ATOM     15  C   UNL     1       5.238   3.829  16.407  0.00  0.00    +0.000 A 
ENDBRANCH   5  14
ENDBRANCH   1   5
BRANCH   3  16
ATOM     16  O   UNL     1       1.774   7.237  20.916  0.00  0.00    +0.000 OA
BRANCH  16  17
ATOM     17  C   UNL     1       0.559   7.899  21.270  0.00  0.00    +0.000 C 
BRANCH  17  18
ATOM     18  C   UNL     1       0.562   9.296  20.707  0.00  0.00    +0.000 A 
ATOM     19  C   UNL     1       1.071   9.521  19.412  0.00  0.00    +0.000 A 
ATOM     20  C   UNL     1       1.092  10.801  18.866  0.00  0.00    +0.000 A 
ATOM     21  C   UNL     1       0.621  11.868  19.616  0.00  0.00    +0.000 A 
ATOM     22  F   UNL     1       0.640  13.100  19.091  0.00  0.00    +0.000 F 
ATOM     23  C   UNL     1       0.136  11.685  20.904  0.00  0.00    +0.000 A 
ATOM     24  C   UNL     1       0.112  10.400  21.452  0.00  0.00    +0.000 A 
ATOM     25 CL   UNL     1      -0.486  10.235  23.065  0.00  0.00    +0.000 Cl
ENDBRANCH  17  18
ENDBRANCH  16  17
ENDBRANCH   3  16
TORSDOF 5
ENDMDL
MODEL 7
REMARK VINA RESULT:      -8.2      1.612      2.041
REMARK  Name = 
REMARK  7 active torsions:
REMARK  status: ('A' for Active; 'I' for Inactive)
REMARK    1  A    between atoms: C_1  and  C_2
REMARK    2  A    between atoms: C_4  and  C_5
REMARK    3  A    between atoms: C_7  and  S_8
REMARK    4  A    between atoms: S_8  and  N_11
REMARK    5  A    between atoms: C_13  and  O_14
REMARK    6  A    between atoms: O_14  and  C_15
REMARK    7  A    between atoms: C_15  and  C_16
REMARK                            x       y       z     vdW  Elec       q    Type
REMARK                         _______ _______ _______ _____ _____    ______ ____
ROOT
ATOM      1  N   UNL     1       3.357   4.861  19.628  0.00  0.00    +0.000 NA
ATOM      2  C   UNL     1       2.410   5.802  18.978  0.00  0.00    +0.000 C 
ATOM      3  C   UNL     1       1.618   5.959  20.294  0.00  0.00    +0.000 C 
ATOM      4  C   UNL     1       2.478   4.790  20.825  0.00  0.00    +0.000 C 
ENDROOT
BRANCH   1   5
ATOM      5  S   UNL     1       4.099   3.551  18.875  0.00  0.00    +0.000 S 
ATOM      6  O   UNL     1       3.069   2.827  18.162  0.00  0.00    +0.000 OA
ATOM      7  O   UNL     1       4.956   2.898  19.843  0.00  0.00    +0.000 OA
BRANCH   5  14
ATOM      8  C   UNL     1       7.635   7.221  17.609  0.00  0.00    +0.000 C 
ATOM      9  C   UNL     1       6.769   6.078  17.165  0.00  0.00    +0.000 A 
ATOM     10  C   UNL     1       6.835   5.581  15.854  0.00  0.00    +0.000 A 
ATOM     11  C   UNL     1       6.043   4.494  15.454  0.00  0.00    +0.000 A 
ATOM     12  C   UNL     1       6.084   3.978  14.045  0.00  0.00    +0.000 C 
ATOM     13  C   UNL     1       5.202   3.881  16.389  0.00  0.00    +0.000 A 
ATOM     14  C   UNL     1       5.140   4.374  17.698  0.00  0.00    +0.000 A 
ATOM     15  C   UNL     1       5.898   5.479  18.083  0.00  0.00    +0.000 A 
ENDBRANCH   5  14
ENDBRANCH   1   5
BRANCH   3  16
ATOM     16  O   UNL     1       1.745   7.214  21.004  0.00  0.00    +0.000 OA
BRANCH  16  17
ATOM     17  C   UNL     1       0.535   7.945  21.210  0.00  0.00    +0.000 C 
BRANCH  17  18
ATOM     18  C   UNL     1       0.643   9.295  20.549  0.00  0.00    +0.000 A 
ATOM     19  C   UNL     1       1.189   9.392  19.254  0.00  0.00    +0.000 A 
ATOM     20  C   UNL     1       1.305  10.624  18.618  0.00  0.00    +0.000 A 
ATOM     21  C   UNL     1       0.893  11.772  19.280  0.00  0.00    +0.000 A 
ATOM     22  F   UNL     1       1.003  12.958  18.669  0.00  0.00    +0.000 F 
ATOM     23  C   UNL     1       0.372  11.714  20.565  0.00  0.00    +0.000 A 
ATOM     24  C   UNL     1       0.253  10.477  21.203  0.00  0.00    +0.000 A 
ATOM     25 CL   UNL     1      -0.385  10.468  22.809  0.00  0.00    +0.000 Cl
ENDBRANCH  17  18
ENDBRANCH  16  17
ENDBRANCH   3  16
TORSDOF 5
ENDMDL
MODEL 8
REMARK VINA RESULT:      -8.1      1.602      2.635
REMARK  Name = 
REMARK  7 active torsions:
REMARK  status: ('A' for Active; 'I' for Inactive)
REMARK    1  A    between atoms: C_1  and  C_2
REMARK    2  A    between atoms: C_4  and  C_5
REMARK    3  A    between atoms: C_7  and  S_8
REMARK    4  A    between atoms: S_8  and  N_11
REMARK    5  A    between atoms: C_13  and  O_14
REMARK    6  A    between atoms: O_14  and  C_15
REMARK    7  A    between atoms: C_15  and  C_16
REMARK                            x       y       z     vdW  Elec       q    Type
REMARK                         _______ _______ _______ _____ _____    ______ ____
ROOT
ATOM      1  N   UNL     1       2.408   4.849  18.768  0.00  0.00    +0.000 NA
ATOM      2  C   UNL     1       2.493   5.334  20.168  0.00  0.00    +0.000 C 
ATOM      3  C   UNL     1       2.531   6.801  19.688  0.00  0.00    +0.000 C 
ATOM      4  C   UNL     1       2.698   6.218  18.266  0.00  0.00    +0.000 C 
ENDROOT
BRANCH   1   5
ATOM      5  S   UNL     1       3.092   3.425  18.187  0.00  0.00    +0.000 S 
ATOM      6  O   UNL     1       2.303   3.004  17.048  0.00  0.00    +0.000 OA
ATOM      7  O   UNL     1       3.332   2.545  19.312  0.00  0.00    +0.000 OA
BRANCH   5  14
ATOM      8  C   UNL     1       6.499   4.459  14.328  0.00  0.00    +0.000 C 
ATOM      9  C   UNL     1       6.197   4.469  15.799  0.00  0.00    +0.000 A 
ATOM     10  C   UNL     1       7.098   5.020  16.724  0.00  0.00    +0.000 A 
ATOM     11  C   UNL     1       6.796   5.051  18.094  0.00  0.00    +0.000 A 
ATOM     12  C   UNL     1       7.768   5.609  19.092  0.00  0.00    +0.000 C 
ATOM     13  C   UNL     1       5.565   4.553  18.533  0.00  0.00    +0.000 A 
ATOM     14  C   UNL     1       4.664   4.008  17.610  0.00  0.00    +0.000 A 
ATOM     15  C   UNL     1       4.983   3.942  16.254  0.00  0.00    +0.000 A 
ENDBRANCH   5  14
ENDBRANCH   1   5
BRANCH   3  16
ATOM     16  O   UNL     1       1.349   7.606  19.909  0.00  0.00    +0.000 OA
BRANCH  16  17
ATOM     17  C   UNL     1       1.398   8.504  21.018  0.00  0.00    +0.000 C 
BRANCH  17  18
ATOM     18  C   UNL     1       0.518   9.696  20.741  0.00  0.00    +0.000 A 
ATOM     19  C   UNL     1       0.494  10.256  19.448  0.00  0.00    +0.000 A 
ATOM     20  C   UNL     1      -0.304  11.359  19.162  0.00  0.00    +0.000 A 
ATOM     21  C   UNL     1      -1.071  11.922  20.170  0.00  0.00    +0.000 A 
ATOM     22  F   UNL     1      -1.840  12.984  19.896  0.00  0.00    +0.000 F 
ATOM     23  C   UNL     1      -1.053  11.411  21.460  0.00  0.00    +0.000 A 
ATOM     24  C   UNL     1      -0.254  10.302  21.748  0.00  0.00    +0.000 A 
ATOM     25 CL   UNL     1      -0.257   9.720  23.375  0.00  0.00    +0.000 Cl
ENDBRANCH  17  18
ENDBRANCH  16  17
ENDBRANCH   3  16
TORSDOF 5
ENDMDL
MODEL 9
REMARK VINA RESULT:      -8.0      4.514      8.505
REMARK  Name = 
REMARK  7 active torsions:
REMARK  status: ('A' for Active; 'I' for Inactive)
REMARK    1  A    between atoms: C_1  and  C_2
REMARK    2  A    between atoms: C_4  and  C_5
REMARK    3  A    between atoms: C_7  and  S_8
REMARK    4  A    between atoms: S_8  and  N_11
REMARK    5  A    between atoms: C_13  and  O_14
REMARK    6  A    between atoms: O_14  and  C_15
REMARK    7  A    between atoms: C_15  and  C_16
REMARK                            x       y       z     vdW  Elec       q    Type
REMARK                         _______ _______ _______ _____ _____    ______ ____
ROOT
ATOM      1  N   UNL     1       1.244   9.347  18.889  0.00  0.00    +0.000 NA
ATOM      2  C   UNL     1       2.222   8.991  17.831  0.00  0.00    +0.000 C 
ATOM      3  C   UNL     1       2.550   7.659  18.540  0.00  0.00    +0.000 C 
ATOM      4  C   UNL     1       1.717   8.208  19.720  0.00  0.00    +0.000 C 
ENDROOT
BRANCH   1   5
ATOM      5  S   UNL     1       0.932  10.905  19.444  0.00  0.00    +0.000 S 
ATOM      6  O   UNL     1       1.716  11.813  18.633  0.00  0.00    +0.000 OA
ATOM      7  O   UNL     1       1.029  10.900  20.889  0.00  0.00    +0.000 OA
BRANCH   5  14
ATOM      8  C   UNL     1      -3.838  12.944  20.256  0.00  0.00    +0.000 C 
ATOM      9  C   UNL     1      -2.955  12.054  19.429  0.00  0.00    +0.000 A 
ATOM     10  C   UNL     1      -3.433  11.435  18.263  0.00  0.00    +0.000 A 
ATOM     11  C   UNL     1      -2.594  10.627  17.480  0.00  0.00    +0.000 A 
ATOM     12  C   UNL     1      -3.107   9.935  16.250  0.00  0.00    +0.000 C 
ATOM     13  C   UNL     1      -1.256  10.466  17.855  0.00  0.00    +0.000 A 
ATOM     14  C   UNL     1      -0.779  11.088  19.016  0.00  0.00    +0.000 A 
ATOM     15  C   UNL     1      -1.624  11.858  19.814  0.00  0.00    +0.000 A 
ENDBRANCH   5  14
ENDBRANCH   1   5
BRANCH   3  16
ATOM     16  O   UNL     1       2.060   6.442  17.930  0.00  0.00    +0.000 OA
BRANCH  16  17
ATOM     17  C   UNL     1       2.959   5.332  17.931  0.00  0.00    +0.000 C 
BRANCH  17  18
ATOM     18  C   UNL     1       2.611   4.400  19.063  0.00  0.00    +0.000 A 
ATOM     19  C   UNL     1       1.277   4.325  19.514  0.00  0.00    +0.000 A 
ATOM     20  C   UNL     1       0.924   3.478  20.560  0.00  0.00    +0.000 A 
ATOM     21  C   UNL     1       1.904   2.712  21.175  0.00  0.00    +0.000 A 
ATOM     22  F   UNL     1       1.565   1.896  22.181  0.00  0.00    +0.000 F 
ATOM     23  C   UNL     1       3.230   2.780  20.770  0.00  0.00    +0.000 A 
ATOM     24  C   UNL     1       3.585   3.628  19.719  0.00  0.00    +0.000 A 
ATOM     25 CL   UNL     1       5.254   3.685  19.271  0.00  0.00    +0.000 Cl
ENDBRANCH  17  18
ENDBRANCH  16  17
ENDBRANCH   3  16
TORSDOF 5
ENDMDL
