MODEL 1
REMARK VINA RESULT:      -8.2      0.000      0.000
REMARK  Name = 
REMARK  4 active torsions:
REMARK  status: ('A' for Active; 'I' for Inactive)
REMARK    1  A    between atoms: C_2  and  C_3
REMARK    2  A    between atoms: C_3  and  C_4
REMARK    3  A    between atoms: C_6  and  N_7
REMARK    4  A    between atoms: C_21  and  O_22
REMARK                            x       y       z     vdW  Elec       q    Type
REMARK                         _______ _______ _______ _____ _____    ______ ____
ROOT
ATOM      1  C   UNL     1       2.064   7.883  18.182  0.00  0.00    +0.000 C 
ENDROOT
BRANCH   1   3
ATOM      2  O   UNL     1       2.030   7.501  20.524  0.00  0.00    +0.000 OA
ATOM      3  C   UNL     1       1.756   8.283  19.609  0.00  0.00    +0.000 C 
ATOM      4  N   UNL     1       1.121   9.494  19.796  0.00  0.00    +0.000 N 
ATOM      5  C   UNL     1       0.960  10.565  18.799  0.00  0.00    +0.000 C 
ATOM      6  C   UNL     1       0.078  11.650  19.423  0.00  0.00    +0.000 C 
ATOM      7  C   UNL     1      -0.190  11.104  20.787  0.00  0.00    +0.000 A 
ATOM      8  C   UNL     1      -0.996  11.629  21.785  0.00  0.00    +0.000 A 
ATOM      9  C   UNL     1      -1.135  10.939  22.984  0.00  0.00    +0.000 A 
ATOM     10  C   UNL     1      -0.460   9.728  23.185  0.00  0.00    +0.000 A 
ATOM     11  C   UNL     1       0.343   9.191  22.176  0.00  0.00    +0.000 A 
ATOM     12  C   UNL     1       0.459   9.883  20.977  0.00  0.00    +0.000 A 
BRANCH   8  13
ATOM     13  O   UNL     1      -1.689  12.790  21.636  0.00  0.00    +0.000 OA
ATOM     14  H   UNL     1      -1.916  12.907  20.701  0.00  0.00    +0.000 HD
ENDBRANCH   8  13
ENDBRANCH   1   3
BRANCH   1  15
ATOM     15  C   UNL     1       2.409   6.423  17.974  0.00  0.00    +0.000 A 
ATOM     16  N   UNL     1       3.630   6.113  17.672  0.00  0.00    +0.000 NA
ATOM     17  C   UNL     1       3.956   4.784  17.510  0.00  0.00    +0.000 A 
ATOM     18  C   UNL     1       3.020   3.822  17.598  0.00  0.00    +0.000 A 
ATOM     19  C   UNL     1       1.635   4.175  17.905  0.00  0.00    +0.000 A 
ATOM     20  O   UNL     1       0.757   3.322  17.979  0.00  0.00    +0.000 OA
ATOM     21  N   UNL     1       1.417   5.498  18.094  0.00  0.00    +0.000 N 
ATOM     22  H   UNL     1       0.478   5.766  18.378  0.00  0.00    +0.000 HD
BRANCH  17  23
ATOM     23  N   UNL     1       5.267   4.424  17.217  0.00  0.00    +0.000 N 
ATOM     24  C   UNL     1       6.321   4.340  18.239  0.00  0.00    +0.000 C 
ATOM     25  C   UNL     1       7.583   5.038  17.695  0.00  0.00    +0.000 C 
ATOM     26  O   UNL     1       8.011   4.476  16.440  0.00  0.00    +0.000 OA
ATOM     27  C   UNL     1       6.961   4.565  15.460  0.00  0.00    +0.000 C 
ATOM     28  C   UNL     1       5.699   3.837  15.936  0.00  0.00    +0.000 C 
ENDBRANCH  17  23
ENDBRANCH   1  15
TORSDOF 4
ENDMDL
MODEL 2
REMARK VINA RESULT:      -7.8      1.406      1.749
REMARK  Name = 
REMARK  4 active torsions:
REMARK  status: ('A' for Active; 'I' for Inactive)
REMARK    1  A    between atoms: C_2  and  C_3
REMARK    2  A    between atoms: C_3  and  C_4
REMARK    3  A    between atoms: C_6  and  N_7
REMARK    4  A    between atoms: C_21  and  O_22
REMARK                            x       y       z     vdW  Elec       q    Type
REMARK                         _______ _______ _______ _____ _____    ______ ____
ROOT
ATOM      1  C   UNL     1       1.697   8.226  18.762  0.00  0.00    +0.000 C 
ENDROOT
BRANCH   1   3
ATOM      2  O   UNL     1       1.626   8.483  21.120  0.00  0.00    +0.000 OA
ATOM      3  C   UNL     1       1.290   8.949  20.027  0.00  0.00    +0.000 C 
ATOM      4  N   UNL     1       0.504  10.073  19.880  0.00  0.00    +0.000 N 
ATOM      5  C   UNL     1       0.246  10.809  18.631  0.00  0.00    +0.000 C 
ATOM      6  C   UNL     1      -0.787  11.897  18.938  0.00  0.00    +0.000 C 
ATOM      7  C   UNL     1      -1.033  11.705  20.398  0.00  0.00    +0.000 A 
ATOM      8  C   UNL     1      -1.934  12.369  21.217  0.00  0.00    +0.000 A 
ATOM      9  C   UNL     1      -2.029  12.012  22.557  0.00  0.00    +0.000 A 
ATOM     10  C   UNL     1      -1.216  10.998  23.079  0.00  0.00    +0.000 A 
ATOM     11  C   UNL     1      -0.317  10.319  22.253  0.00  0.00    +0.000 A 
ATOM     12  C   UNL     1      -0.244  10.674  20.912  0.00  0.00    +0.000 A 
BRANCH   8  13
ATOM     13  O   UNL     1      -2.760  13.347  20.759  0.00  0.00    +0.000 OA
ATOM     14  H   UNL     1      -3.639  13.232  21.152  0.00  0.00    +0.000 HD
ENDBRANCH   8  13
ENDBRANCH   1   3
BRANCH   1  15
ATOM     15  C   UNL     1       2.555   6.993  18.963  0.00  0.00    +0.000 A 
ATOM     16  N   UNL     1       3.629   6.865  18.250  0.00  0.00    +0.000 NA
ATOM     17  C   UNL     1       4.428   5.760  18.448  0.00  0.00    +0.000 A 
ATOM     18  C   UNL     1       4.077   4.794  19.316  0.00  0.00    +0.000 A 
ATOM     19  C   UNL     1       2.847   4.923  20.096  0.00  0.00    +0.000 A 
ATOM     20  O   UNL     1       2.494   4.055  20.886  0.00  0.00    +0.000 OA
ATOM     21  N   UNL     1       2.151   6.062  19.869  0.00  0.00    +0.000 N 
ATOM     22  H   UNL     1       1.328   6.213  20.448  0.00  0.00    +0.000 HD
BRANCH  17  23
ATOM     23  N   UNL     1       5.602   5.614  17.718  0.00  0.00    +0.000 N 
ATOM     24  C   UNL     1       5.633   5.600  16.247  0.00  0.00    +0.000 C 
ATOM     25  C   UNL     1       6.535   4.436  15.790  0.00  0.00    +0.000 C 
ATOM     26  O   UNL     1       7.859   4.530  16.350  0.00  0.00    +0.000 OA
ATOM     27  C   UNL     1       7.801   4.547  17.788  0.00  0.00    +0.000 C 
ATOM     28  C   UNL     1       6.955   5.722  18.292  0.00  0.00    +0.000 C 
ENDBRANCH  17  23
ENDBRANCH   1  15
TORSDOF 4
ENDMDL
MODEL 3
REMARK VINA RESULT:      -7.7      1.265      2.213
REMARK  Name = 
REMARK  4 active torsions:
REMARK  status: ('A' for Active; 'I' for Inactive)
REMARK    1  A    between atoms: C_2  and  C_3
REMARK    2  A    between atoms: C_3  and  C_4
REMARK    3  A    between atoms: C_6  and  N_7
REMARK    4  A    between atoms: C_21  and  O_22
REMARK                            x       y       z     vdW  Elec       q    Type
REMARK                         _______ _______ _______ _____ _____    ______ ____
ROOT
ATOM      1  C   UNL     1       2.030   6.941  20.511  0.00  0.00    +0.000 C 
ENDROOT
BRANCH   1   3
ATOM      2  O   UNL     1       1.798   8.684  18.916  0.00  0.00    +0.000 OA
ATOM      3  C   UNL     1       1.503   8.281  20.046  0.00  0.00    +0.000 C 
ATOM      4  N   UNL     1       0.761   9.010  20.952  0.00  0.00    +0.000 N 
ATOM      5  C   UNL     1       0.188   8.520  22.217  0.00  0.00    +0.000 C 
ATOM      6  C   UNL     1      -0.432   9.718  22.941  0.00  0.00    +0.000 C 
ATOM      7  C   UNL     1      -0.174  10.840  21.989  0.00  0.00    +0.000 A 
ATOM      8  C   UNL     1      -0.457  12.188  22.145  0.00  0.00    +0.000 A 
ATOM      9  C   UNL     1      -0.102  13.080  21.140  0.00  0.00    +0.000 A 
ATOM     10  C   UNL     1       0.525  12.621  19.974  0.00  0.00    +0.000 A 
ATOM     11  C   UNL     1       0.822  11.264  19.820  0.00  0.00    +0.000 A 
ATOM     12  C   UNL     1       0.477  10.386  20.840  0.00  0.00    +0.000 A 
BRANCH   8  13
ATOM     13  O   UNL     1      -1.046  12.690  23.263  0.00  0.00    +0.000 OA
ATOM     14  H   UNL     1      -1.320  13.605  23.095  0.00  0.00    +0.000 HD
ENDBRANCH   8  13
ENDBRANCH   1   3
BRANCH   1  15
ATOM     15  C   UNL     1       2.410   5.972  19.410  0.00  0.00    +0.000 A 
ATOM     16  N   UNL     1       3.442   6.245  18.675  0.00  0.00    +0.000 NA
ATOM     17  C   UNL     1       3.808   5.354  17.690  0.00  0.00    +0.000 A 
ATOM     18  C   UNL     1       3.080   4.250  17.444  0.00  0.00    +0.000 A 
ATOM     19  C   UNL     1       1.896   3.960  18.251  0.00  0.00    +0.000 A 
ATOM     20  O   UNL     1       1.205   2.969  18.044  0.00  0.00    +0.000 OA
ATOM     21  N   UNL     1       1.639   4.866  19.225  0.00  0.00    +0.000 N 
ATOM     22  H   UNL     1       0.864   4.654  19.847  0.00  0.00    +0.000 HD
BRANCH  17  23
ATOM     23  N   UNL     1       4.930   5.608  16.909  0.00  0.00    +0.000 N 
ATOM     24  C   UNL     1       5.326   4.757  15.776  0.00  0.00    +0.000 C 
ATOM     25  C   UNL     1       6.842   4.496  15.870  0.00  0.00    +0.000 C 
ATOM     26  O   UNL     1       7.598   5.722  15.906  0.00  0.00    +0.000 OA
ATOM     27  C   UNL     1       7.189   6.538  17.018  0.00  0.00    +0.000 C 
ATOM     28  C   UNL     1       5.694   6.868  16.940  0.00  0.00    +0.000 C 
ENDBRANCH  17  23
ENDBRANCH   1  15
TORSDOF 4
ENDMDL
MODEL 4
REMARK VINA RESULT:      -7.6      1.103      2.048
REMARK  Name = 
REMARK  4 active torsions:
REMARK  status: ('A' for Active; 'I' for Inactive)
REMARK    1  A    between atoms: C_2  and  C_3
REMARK    2  A    between atoms: C_3  and  C_4
REMARK    3  A    between atoms: C_6  and  N_7
REMARK    4  A    between atoms: C_21  and  O_22
REMARK                            x       y       z     vdW  Elec       q    Type
REMARK                         _______ _______ _______ _____ _____    ______ ____
ROOT
ATOM      1  C   UNL     1       2.269   6.746  20.237  0.00  0.00    +0.000 C 
ENDROOT
BRANCH   1   3
ATOM      2  O   UNL     1       1.998   8.254  18.424  0.00  0.00    +0.000 OA
ATOM      3  C   UNL     1       1.758   8.027  19.613  0.00  0.00    +0.000 C 
ATOM      4  N   UNL     1       1.095   8.906  20.444  0.00  0.00    +0.000 N 
ATOM      5  C   UNL     1       0.583   8.623  21.796  0.00  0.00    +0.000 C 
ATOM      6  C   UNL     1       0.046   9.935  22.373  0.00  0.00    +0.000 C 
ATOM      7  C   UNL     1       0.282  10.900  21.257  0.00  0.00    +0.000 A 
ATOM      8  C   UNL     1       0.053  12.267  21.234  0.00  0.00    +0.000 A 
ATOM      9  C   UNL     1       0.376  12.993  20.093  0.00  0.00    +0.000 A 
ATOM     10  C   UNL     1       0.918  12.349  18.974  0.00  0.00    +0.000 A 
ATOM     11  C   UNL     1       1.160  10.973  19.000  0.00  0.00    +0.000 A 
ATOM     12  C   UNL     1       0.849  10.263  20.152  0.00  0.00    +0.000 A 
BRANCH   8  13
ATOM     13  O   UNL     1      -0.452  12.945  22.298  0.00  0.00    +0.000 OA
ATOM     14  H   UNL     1       0.227  13.542  22.648  0.00  0.00    +0.000 HD
ENDBRANCH   8  13
ENDBRANCH   1   3
BRANCH   1  15
ATOM     15  C   UNL     1       2.593   5.632  19.263  0.00  0.00    +0.000 A 
ATOM     16  N   UNL     1       3.717   5.681  18.620  0.00  0.00    +0.000 NA
ATOM     17  C   UNL     1       4.030   4.656  17.754  0.00  0.00    +0.000 A 
ATOM     18  C   UNL     1       3.166   3.651  17.523  0.00  0.00    +0.000 A 
ATOM     19  C   UNL     1       1.883   3.614  18.224  0.00  0.00    +0.000 A 
ATOM     20  O   UNL     1       1.070   2.718  18.026  0.00  0.00    +0.000 OA
ATOM     21  N   UNL     1       1.682   4.636  19.089  0.00  0.00    +0.000 N 
ATOM     22  H   UNL     1       0.830   4.600  19.643  0.00  0.00    +0.000 HD
BRANCH  17  23
ATOM     23  N   UNL     1       5.244   4.669  17.075  0.00  0.00    +0.000 N 
ATOM     24  C   UNL     1       6.513   5.049  17.714  0.00  0.00    +0.000 C 
ATOM     25  C   UNL     1       7.263   6.011  16.773  0.00  0.00    +0.000 C 
ATOM     26  O   UNL     1       7.473   5.436  15.469  0.00  0.00    +0.000 OA
ATOM     27  C   UNL     1       6.218   5.069  14.869  0.00  0.00    +0.000 C 
ATOM     28  C   UNL     1       5.458   4.068  15.747  0.00  0.00    +0.000 C 
ENDBRANCH  17  23
ENDBRANCH   1  15
TORSDOF 4
ENDMDL
MODEL 5
REMARK VINA RESULT:      -7.6      3.968      9.252
REMARK  Name = 
REMARK  4 active torsions:
REMARK  status: ('A' for Active; 'I' for Inactive)
REMARK    1  A    between atoms: C_2  and  C_3
REMARK    2  A    between atoms: C_3  and  C_4
REMARK    3  A    between atoms: C_6  and  N_7
REMARK    4  A    between atoms: C_21  and  O_22
REMARK                            x       y       z     vdW  Elec       q    Type
REMARK                         _______ _______ _______ _____ _____    ______ ____
ROOT
ATOM      1  C   UNL     1      -0.106  11.376  18.896  0.00  0.00    +0.000 C 
ENDROOT
BRANCH   1   3
ATOM      2  O   UNL     1       1.628  10.538  17.509  0.00  0.00    +0.000 OA
ATOM      3  C   UNL     1       1.008  10.405  18.568  0.00  0.00    +0.000 C 
ATOM      4  N   UNL     1       1.225   9.377  19.462  0.00  0.00    +0.000 N 
ATOM      5  C   UNL     1       0.691   9.273  20.829  0.00  0.00    +0.000 C 
ATOM      6  C   UNL     1       1.091   7.902  21.381  0.00  0.00    +0.000 C 
ATOM      7  C   UNL     1       1.871   7.315  20.251  0.00  0.00    +0.000 A 
ATOM      8  C   UNL     1       2.431   6.050  20.153  0.00  0.00    +0.000 A 
ATOM      9  C   UNL     1       3.097   5.687  18.988  0.00  0.00    +0.000 A 
ATOM     10  C   UNL     1       3.211   6.594  17.926  0.00  0.00    +0.000 A 
ATOM     11  C   UNL     1       2.638   7.865  18.019  0.00  0.00    +0.000 A 
ATOM     12  C   UNL     1       1.960   8.208  19.182  0.00  0.00    +0.000 A 
BRANCH   8  13
ATOM     13  O   UNL     1       2.333   5.124  21.144  0.00  0.00    +0.000 OA
ATOM     14  H   UNL     1       3.163   4.627  21.199  0.00  0.00    +0.000 HD
ENDBRANCH   8  13
ENDBRANCH   1   3
BRANCH   1  15
ATOM     15  C   UNL     1      -1.423  11.118  18.193  0.00  0.00    +0.000 A 
ATOM     16  N   UNL     1      -2.518  11.496  18.773  0.00  0.00    +0.000 NA
ATOM     17  C   UNL     1      -3.717  11.289  18.126  0.00  0.00    +0.000 A 
ATOM     18  C   UNL     1      -3.768  10.650  16.944  0.00  0.00    +0.000 A 
ATOM     19  C   UNL     1      -2.535  10.192  16.305  0.00  0.00    +0.000 A 
ATOM     20  O   UNL     1      -2.550   9.597  15.234  0.00  0.00    +0.000 OA
ATOM     21  N   UNL     1      -1.403  10.480  16.991  0.00  0.00    +0.000 N 
ATOM     22  H   UNL     1      -0.525  10.237  16.538  0.00  0.00    +0.000 HD
BRANCH  17  23
ATOM     23  N   UNL     1      -4.903  11.715  18.714  0.00  0.00    +0.000 N 
ATOM     24  C   UNL     1      -6.209  11.111  18.407  0.00  0.00    +0.000 C 
ATOM     25  C   UNL     1      -7.229  12.245  18.184  0.00  0.00    +0.000 C 
ATOM     26  O   UNL     1      -7.304  13.132  19.317  0.00  0.00    +0.000 OA
ATOM     27  C   UNL     1      -6.015  13.704  19.599  0.00  0.00    +0.000 C 
ATOM     28  C   UNL     1      -4.976  12.613  19.880  0.00  0.00    +0.000 C 
ENDBRANCH  17  23
ENDBRANCH   1  15
TORSDOF 4
ENDMDL
MODEL 6
REMARK VINA RESULT:      -7.6      1.450      1.549
REMARK  Name = 
REMARK  4 active torsions:
REMARK  status: ('A' for Active; 'I' for Inactive)
REMARK    1  A    between atoms: C_2  and  C_3
REMARK    2  A    between atoms: C_3  and  C_4
REMARK    3  A    between atoms: C_6  and  N_7
REMARK    4  A    between atoms: C_21  and  O_22
REMARK                            x       y       z     vdW  Elec       q    Type
REMARK                         _______ _______ _______ _____ _____    ______ ____
ROOT
ATOM      1  C   UNL     1       1.761   8.224  19.002  0.00  0.00    +0.000 C 
ENDROOT
BRANCH   1   3
ATOM      2  O   UNL     1       1.614   8.533  21.351  0.00  0.00    +0.000 OA
ATOM      3  C   UNL     1       1.303   8.968  20.238  0.00  0.00    +0.000 C 
ATOM      4  N   UNL     1       0.501  10.073  20.042  0.00  0.00    +0.000 N 
ATOM      5  C   UNL     1       0.268  10.776  18.769  0.00  0.00    +0.000 C 
ATOM      6  C   UNL     1      -0.793  11.851  19.020  0.00  0.00    +0.000 C 
ATOM      7  C   UNL     1      -1.080  11.687  20.476  0.00  0.00    +0.000 A 
ATOM      8  C   UNL     1      -2.017  12.353  21.252  0.00  0.00    +0.000 A 
ATOM      9  C   UNL     1      -2.147  12.024  22.596  0.00  0.00    +0.000 A 
ATOM     10  C   UNL     1      -1.332  11.037  23.165  0.00  0.00    +0.000 A 
ATOM     11  C   UNL     1      -0.396  10.357  22.382  0.00  0.00    +0.000 A 
ATOM     12  C   UNL     1      -0.288  10.683  21.037  0.00  0.00    +0.000 A 
BRANCH   8  13
ATOM     13  O   UNL     1      -2.846  13.304  20.747  0.00  0.00    +0.000 OA
ATOM     14  H   UNL     1      -3.669  13.315  21.260  0.00  0.00    +0.000 HD
ENDBRANCH   8  13
ENDBRANCH   1   3
BRANCH   1  15
ATOM     15  C   UNL     1       2.435   6.891  19.256  0.00  0.00    +0.000 A 
ATOM     16  N   UNL     1       3.400   6.527  18.472  0.00  0.00    +0.000 NA
ATOM     17  C   UNL     1       4.035   5.328  18.716  0.00  0.00    +0.000 A 
ATOM     18  C   UNL     1       3.628   4.513  19.705  0.00  0.00    +0.000 A 
ATOM     19  C   UNL     1       2.516   4.909  20.569  0.00  0.00    +0.000 A 
ATOM     20  O   UNL     1       2.114   4.183  21.471  0.00  0.00    +0.000 OA
ATOM     21  N   UNL     1       1.985   6.122  20.285  0.00  0.00    +0.000 N 
ATOM     22  H   UNL     1       1.257   6.455  20.912  0.00  0.00    +0.000 HD
BRANCH  17  23
ATOM     23  N   UNL     1       5.094   4.930  17.908  0.00  0.00    +0.000 N 
ATOM     24  C   UNL     1       6.410   4.549  18.444  0.00  0.00    +0.000 C 
ATOM     25  C   UNL     1       7.499   5.238  17.598  0.00  0.00    +0.000 C 
ATOM     26  O   UNL     1       7.379   4.915  16.200  0.00  0.00    +0.000 OA
ATOM     27  C   UNL     1       6.082   5.292  15.701  0.00  0.00    +0.000 C 
ATOM     28  C   UNL     1       4.966   4.588  16.480  0.00  0.00    +0.000 C 
ENDBRANCH  17  23
ENDBRANCH   1  15
TORSDOF 4
ENDMDL
MODEL 7
REMARK VINA RESULT:      -7.6      1.613      3.155
REMARK  Name = 
REMARK  4 active torsions:
REMARK  status: ('A' for Active; 'I' for Inactive)
REMARK    1  A    between atoms: C_2  and  C_3
REMARK    2  A    between atoms: C_3  and  C_4
REMARK    3  A    between atoms: C_6  and  N_7
REMARK    4  A    between atoms: C_21  and  O_22
REMARK                            x       y       z     vdW  Elec       q    Type
REMARK                         _______ _______ _______ _____ _____    ______ ____
ROOT
ATOM      1  C   UNL     1       1.848   8.631  18.036  0.00  0.00    +0.000 C 
ENDROOT
BRANCH   1   3
ATOM      2  O   UNL     1       1.833   8.046  20.336  0.00  0.00    +0.000 OA
ATOM      3  C   UNL     1       1.538   8.898  19.494  0.00  0.00    +0.000 C 
ATOM      4  N   UNL     1       0.880  10.074  19.788  0.00  0.00    +0.000 N 
ATOM      5  C   UNL     1       0.691  11.225  18.889  0.00  0.00    +0.000 C 
ATOM      6  C   UNL     1      -0.210  12.233  19.608  0.00  0.00    +0.000 C 
ATOM      7  C   UNL     1      -0.460  11.564  20.920  0.00  0.00    +0.000 A 
ATOM      8  C   UNL     1      -1.272  11.983  21.962  0.00  0.00    +0.000 A 
ATOM      9  C   UNL     1      -1.391  11.188  23.097  0.00  0.00    +0.000 A 
ATOM     10  C   UNL     1      -0.689   9.978  23.190  0.00  0.00    +0.000 A 
ATOM     11  C   UNL     1       0.119   9.548  22.135  0.00  0.00    +0.000 A 
ATOM     12  C   UNL     1       0.216  10.345  21.001  0.00  0.00    +0.000 A 
BRANCH   8  13
ATOM     13  O   UNL     1      -1.989  13.137  21.917  0.00  0.00    +0.000 OA
ATOM     14  H   UNL     1      -2.605  13.159  22.665  0.00  0.00    +0.000 HD
ENDBRANCH   8  13
ENDBRANCH   1   3
BRANCH   1  15
ATOM     15  C   UNL     1       2.785   7.470  17.771  0.00  0.00    +0.000 A 
ATOM     16  N   UNL     1       2.365   6.269  18.015  0.00  0.00    +0.000 NA
ATOM     17  C   UNL     1       3.203   5.208  17.749  0.00  0.00    +0.000 A 
ATOM     18  C   UNL     1       4.458   5.406  17.307  0.00  0.00    +0.000 A 
ATOM     19  C   UNL     1       4.943   6.763  17.064  0.00  0.00    +0.000 A 
ATOM     20  O   UNL     1       6.084   6.977  16.673  0.00  0.00    +0.000 OA
ATOM     21  N   UNL     1       4.036   7.739  17.308  0.00  0.00    +0.000 N 
ATOM     22  H   UNL     1       4.321   8.689  17.082  0.00  0.00    +0.000 HD
BRANCH  17  23
ATOM     23  N   UNL     1       2.765   3.907  17.972  0.00  0.00    +0.000 N 
ATOM     24  C   UNL     1       1.370   3.579  18.305  0.00  0.00    +0.000 C 
ATOM     25  C   UNL     1       1.372   2.579  19.478  0.00  0.00    +0.000 C 
ATOM     26  O   UNL     1       2.140   1.398  19.177  0.00  0.00    +0.000 OA
ATOM     27  C   UNL     1       3.498   1.746  18.850  0.00  0.00    +0.000 C 
ATOM     28  C   UNL     1       3.549   2.701  17.652  0.00  0.00    +0.000 C 
ENDBRANCH  17  23
ENDBRANCH   1  15
TORSDOF 4
ENDMDL
MODEL 8
REMARK VINA RESULT:      -7.6      2.737      8.597
REMARK  Name = 
REMARK  4 active torsions:
REMARK  status: ('A' for Active; 'I' for Inactive)
REMARK    1  A    between atoms: C_2  and  C_3
REMARK    2  A    between atoms: C_3  and  C_4
REMARK    3  A    between atoms: C_6  and  N_7
REMARK    4  A    between atoms: C_21  and  O_22
REMARK                            x       y       z     vdW  Elec       q    Type
REMARK                         _______ _______ _______ _____ _____    ______ ____
ROOT
ATOM      1  C   UNL     1       1.802   8.893  19.731  0.00  0.00    +0.000 C 
ENDROOT
BRANCH   1   3
ATOM      2  O   UNL     1       0.982   7.230  21.213  0.00  0.00    +0.000 OA
ATOM      3  C   UNL     1       1.626   7.460  20.185  0.00  0.00    +0.000 C 
ATOM      4  N   UNL     1       2.258   6.486  19.442  0.00  0.00    +0.000 N 
ATOM      5  C   UNL     1       2.852   6.647  18.104  0.00  0.00    +0.000 C 
ATOM      6  C   UNL     1       3.552   5.333  17.745  0.00  0.00    +0.000 C 
ATOM      7  C   UNL     1       3.277   4.483  18.942  0.00  0.00    +0.000 A 
ATOM      8  C   UNL     1       3.725   3.199  19.211  0.00  0.00    +0.000 A 
ATOM      9  C   UNL     1       3.376   2.593  20.412  0.00  0.00    +0.000 A 
ATOM     10  C   UNL     1       2.569   3.267  21.337  0.00  0.00    +0.000 A 
ATOM     11  C   UNL     1       2.126   4.566  21.073  0.00  0.00    +0.000 A 
ATOM     12  C   UNL     1       2.497   5.166  19.877  0.00  0.00    +0.000 A 
BRANCH   8  13
ATOM     13  O   UNL     1       4.526   2.507  18.358  0.00  0.00    +0.000 OA
ATOM     14  H   UNL     1       5.259   3.075  18.076  0.00  0.00    +0.000 HD
ENDBRANCH   8  13
ENDBRANCH   1   3
BRANCH   1  15
ATOM     15  C   UNL     1       0.688   9.842  20.122  0.00  0.00    +0.000 A 
ATOM     16  N   UNL     1      -0.168  10.196  19.216  0.00  0.00    +0.000 NA
ATOM     17  C   UNL     1      -1.200  11.037  19.572  0.00  0.00    +0.000 A 
ATOM     18  C   UNL     1      -1.291  11.539  20.817  0.00  0.00    +0.000 A 
ATOM     19  C   UNL     1      -0.305  11.166  21.830  0.00  0.00    +0.000 A 
ATOM     20  O   UNL     1      -0.354  11.615  22.969  0.00  0.00    +0.000 OA
ATOM     21  N   UNL     1       0.645  10.299  21.403  0.00  0.00    +0.000 N 
ATOM     22  H   UNL     1       1.302   9.967  22.104  0.00  0.00    +0.000 HD
BRANCH  17  23
ATOM     23  N   UNL     1      -2.149  11.407  18.626  0.00  0.00    +0.000 N 
ATOM     24  C   UNL     1      -3.447  12.001  18.985  0.00  0.00    +0.000 C 
ATOM     25  C   UNL     1      -4.547  11.300  18.164  0.00  0.00    +0.000 C 
ATOM     26  O   UNL     1      -4.296  11.380  16.747  0.00  0.00    +0.000 OA
ATOM     27  C   UNL     1      -3.020  10.798  16.425  0.00  0.00    +0.000 C 
ATOM     28  C   UNL     1      -1.886  11.500  17.179  0.00  0.00    +0.000 C 
ENDBRANCH  17  23
ENDBRANCH   1  15
TORSDOF 4
ENDMDL
MODEL 9
REMARK VINA RESULT:      -7.5      1.820      3.037
REMARK  Name = 
REMARK  4 active torsions:
REMARK  status: ('A' for Active; 'I' for Inactive)
REMARK    1  A    between atoms: C_2  and  C_3
REMARK    2  A    between atoms: C_3  and  C_4
REMARK    3  A    between atoms: C_6  and  N_7
REMARK    4  A    between atoms: C_21  and  O_22
REMARK                            x       y       z     vdW  Elec       q    Type
REMARK                         _______ _______ _______ _____ _____    ______ ____
ROOT
ATOM      1  C   UNL     1       2.669   5.349  18.502  0.00  0.00    +0.000 C 
ENDROOT
BRANCH   1   3
ATOM      2  O   UNL     1       2.167   5.832  20.771  0.00  0.00    +0.000 OA
ATOM      3  C   UNL     1       2.283   6.284  19.628  0.00  0.00    +0.000 C 
ATOM      4  N   UNL     1       2.023   7.596  19.290  0.00  0.00    +0.000 N 
ATOM      5  C   UNL     1       2.344   8.257  18.014  0.00  0.00    +0.000 C 
ATOM      6  C   UNL     1       1.746   9.666  18.057  0.00  0.00    +0.000 C 
ATOM      7  C   UNL     1       1.123   9.711  19.413  0.00  0.00    +0.000 A 
ATOM      8  C   UNL     1       0.372  10.726  19.985  0.00  0.00    +0.000 A 
ATOM      9  C   UNL     1      -0.149  10.552  21.263  0.00  0.00    +0.000 A 
ATOM     10  C   UNL     1       0.091   9.367  21.970  0.00  0.00    +0.000 A 
ATOM     11  C   UNL     1       0.838   8.338  21.390  0.00  0.00    +0.000 A 
ATOM     12  C   UNL     1       1.337   8.518  20.107  0.00  0.00    +0.000 A 
BRANCH   8  13
ATOM     13  O   UNL     1       0.092  11.888  19.337  0.00  0.00    +0.000 OA
ATOM     14  H   UNL     1      -0.744  12.247  19.672  0.00  0.00    +0.000 HD
ENDBRANCH   8  13
ENDBRANCH   1   3
BRANCH   1  15
ATOM     15  C   UNL     1       4.157   5.196  18.262  0.00  0.00    +0.000 A 
ATOM     16  N   UNL     1       4.560   4.837  17.084  0.00  0.00    +0.000 NA
ATOM     17  C   UNL     1       5.913   4.724  16.853  0.00  0.00    +0.000 A 
ATOM     18  C   UNL     1       6.806   4.917  17.840  0.00  0.00    +0.000 A 
ATOM     19  C   UNL     1       6.350   5.289  19.178  0.00  0.00    +0.000 A 
ATOM     20  O   UNL     1       7.138   5.460  20.100  0.00  0.00    +0.000 OA
ATOM     21  N   UNL     1       5.008   5.423  19.300  0.00  0.00    +0.000 N 
ATOM     22  H   UNL     1       4.665   5.750  20.200  0.00  0.00    +0.000 HD
BRANCH  17  23
ATOM     23  N   UNL     1       6.372   4.370  15.589  0.00  0.00    +0.000 N 
ATOM     24  C   UNL     1       7.656   4.838  15.044  0.00  0.00    +0.000 C 
ATOM     25  C   UNL     1       7.427   5.308  13.594  0.00  0.00    +0.000 C 
ATOM     26  O   UNL     1       6.846   4.273  12.778  0.00  0.00    +0.000 OA
ATOM     27  C   UNL     1       5.596   3.829  13.335  0.00  0.00    +0.000 C 
ATOM     28  C   UNL     1       5.783   3.302  14.762  0.00  0.00    +0.000 C 
ENDBRANCH  17  23
ENDBRANCH   1  15
TORSDOF 4
ENDMDL
