MODEL 1
REMARK VINA RESULT:      -7.6      0.000      0.000
REMARK  Name = 
REMARK  5 active torsions:
REMARK  status: ('A' for Active; 'I' for Inactive)
REMARK    1  A    between atoms: C_1  and  N_2
REMARK    2  A    between atoms: N_2  and  C_3
REMARK    3  A    between atoms: N_2  and  C_4
REMARK    4  A    between atoms: C_14  and  C_15
REMARK    5  A    between atoms: C_15  and  C_16
REMARK                            x       y       z     vdW  Elec       q    Type
REMARK                         _______ _______ _______ _____ _____    ______ ____
ROOT
ATOM      1  C   UNL     1       1.745   4.422  18.505  0.00  0.00    +0.000 C 
ATOM      2  C   UNL     1       2.245   3.720  17.229  0.00  0.00    +0.000 C 
ATOM      3  C   UNL     1       3.675   3.308  17.529  0.00  0.00    +0.000 C 
ATOM      4  N   UNL     1       4.141   4.311  18.461  0.00  0.00    +0.000 N 
ATOM      5  C   UNL     1       5.469   4.615  18.537  0.00  0.00    +0.000 A 
ATOM      6  N   UNL     1       6.298   4.090  17.617  0.00  0.00    +0.000 NA
ATOM      7  C   UNL     1       7.583   4.484  17.624  0.00  0.00    +0.000 A 
ATOM      8  C   UNL     1       8.095   5.369  18.534  0.00  0.00    +0.000 A 
ATOM      9  C   UNL     1       7.196   5.826  19.462  0.00  0.00    +0.000 A 
ATOM     10  N   UNL     1       5.897   5.467  19.482  0.00  0.00    +0.000 NA
ATOM     11  C   UNL     1       3.053   5.104  19.066  0.00  0.00    +0.000 C 
ENDROOT
BRANCH   1  13
ATOM     12  C   UNL     1       0.734   2.229  18.923  0.00  0.00    +0.000 C 
ATOM     13  N   UNL     1       0.988   3.571  19.458  0.00  0.00    +0.000 NA
ATOM     14  C   UNL     1       1.537   3.483  20.806  0.00  0.00    +0.000 C 
ENDBRANCH   1  13
BRANCH  11  15
ATOM     15  C   UNL     1       3.143   6.599  18.658  0.00  0.00    +0.000 C 
BRANCH  15  16
ATOM     16  C   UNL     1       2.178   7.590  19.278  0.00  0.00    +0.000 A 
ATOM     17  C   UNL     1       1.721   7.492  20.600  0.00  0.00    +0.000 A 
ATOM     18  C   UNL     1       0.910   8.487  21.147  0.00  0.00    +0.000 A 
ATOM     19  C   UNL     1       0.546   9.597  20.387  0.00  0.00    +0.000 A 
ATOM     20  C   UNL     1       0.995   9.713  19.075  0.00  0.00    +0.000 A 
ATOM     21  C   UNL     1       1.811   8.720  18.528  0.00  0.00    +0.000 A 
ENDBRANCH  15  16
ENDBRANCH  11  15
TORSDOF 3
ENDMDL
MODEL 2
REMARK VINA RESULT:      -7.5      1.162      1.353
REMARK  Name = 
REMARK  5 active torsions:
REMARK  status: ('A' for Active; 'I' for Inactive)
REMARK    1  A    between atoms: C_1  and  N_2
REMARK    2  A    between atoms: N_2  and  C_3
REMARK    3  A    between atoms: N_2  and  C_4
REMARK    4  A    between atoms: C_14  and  C_15
REMARK    5  A    between atoms: C_15  and  C_16
REMARK                            x       y       z     vdW  Elec       q    Type
REMARK                         _______ _______ _______ _____ _____    ______ ____
ROOT
ATOM      1  C   UNL     1       1.655   4.791  18.946  0.00  0.00    +0.000 C 
ATOM      2  C   UNL     1       1.453   3.904  17.704  0.00  0.00    +0.000 C 
ATOM      3  C   UNL     1       2.827   3.352  17.373  0.00  0.00    +0.000 C 
ATOM      4  N   UNL     1       3.737   4.380  17.827  0.00  0.00    +0.000 N 
ATOM      5  C   UNL     1       4.961   4.523  17.240  0.00  0.00    +0.000 A 
ATOM      6  N   UNL     1       5.225   3.807  16.133  0.00  0.00    +0.000 NA
ATOM      7  C   UNL     1       6.384   4.037  15.492  0.00  0.00    +0.000 A 
ATOM      8  C   UNL     1       7.318   4.941  15.922  0.00  0.00    +0.000 A 
ATOM      9  C   UNL     1       6.991   5.599  17.079  0.00  0.00    +0.000 A 
ATOM     10  N   UNL     1       5.835   5.408  17.745  0.00  0.00    +0.000 NA
ATOM     11  C   UNL     1       3.113   5.360  18.737  0.00  0.00    +0.000 C 
ENDROOT
BRANCH   1  13
ATOM     12  C   UNL     1       1.042   2.725  20.112  0.00  0.00    +0.000 C 
ATOM     13  N   UNL     1       1.385   4.144  20.254  0.00  0.00    +0.000 NA
ATOM     14  C   UNL     1       2.414   4.316  21.274  0.00  0.00    +0.000 C 
ENDBRANCH   1  13
BRANCH  11  15
ATOM     15  C   UNL     1       3.092   6.782  18.114  0.00  0.00    +0.000 C 
BRANCH  15  16
ATOM     16  C   UNL     1       2.180   7.834  18.715  0.00  0.00    +0.000 A 
ATOM     17  C   UNL     1       1.870   7.891  20.080  0.00  0.00    +0.000 A 
ATOM     18  C   UNL     1       1.103   8.939  20.591  0.00  0.00    +0.000 A 
ATOM     19  C   UNL     1       0.639   9.949  19.751  0.00  0.00    +0.000 A 
ATOM     20  C   UNL     1       0.944   9.911  18.392  0.00  0.00    +0.000 A 
ATOM     21  C   UNL     1       1.715   8.865  17.881  0.00  0.00    +0.000 A 
ENDBRANCH  15  16
ENDBRANCH  11  15
TORSDOF 3
ENDMDL
MODEL 3
REMARK VINA RESULT:      -7.5      1.008      1.387
REMARK  Name = 
REMARK  5 active torsions:
REMARK  status: ('A' for Active; 'I' for Inactive)
REMARK    1  A    between atoms: C_1  and  N_2
REMARK    2  A    between atoms: N_2  and  C_3
REMARK    3  A    between atoms: N_2  and  C_4
REMARK    4  A    between atoms: C_14  and  C_15
REMARK    5  A    between atoms: C_15  and  C_16
REMARK                            x       y       z     vdW  Elec       q    Type
REMARK                         _______ _______ _______ _____ _____    ______ ____
ROOT
ATOM      1  C   UNL     1       1.703   4.277  19.342  0.00  0.00    +0.000 C 
ATOM      2  C   UNL     1       1.427   4.370  17.830  0.00  0.00    +0.000 C 
ATOM      3  C   UNL     1       2.648   3.768  17.159  0.00  0.00    +0.000 C 
ATOM      4  N   UNL     1       3.729   4.053  18.077  0.00  0.00    +0.000 N 
ATOM      5  C   UNL     1       5.008   4.176  17.617  0.00  0.00    +0.000 A 
ATOM      6  N   UNL     1       5.208   4.196  16.288  0.00  0.00    +0.000 NA
ATOM      7  C   UNL     1       6.453   4.435  15.838  0.00  0.00    +0.000 A 
ATOM      8  C   UNL     1       7.527   4.631  16.663  0.00  0.00    +0.000 A 
ATOM      9  C   UNL     1       7.247   4.554  18.002  0.00  0.00    +0.000 A 
ATOM     10  N   UNL     1       6.012   4.330  18.494  0.00  0.00    +0.000 NA
ATOM     11  C   UNL     1       3.270   4.446  19.424  0.00  0.00    +0.000 C 
ENDROOT
BRANCH   1  13
ATOM     12  C   UNL     1       1.348   1.853  19.278  0.00  0.00    +0.000 C 
ATOM     13  N   UNL     1       1.134   3.092  20.033  0.00  0.00    +0.000 NA
ATOM     14  C   UNL     1       1.535   2.914  21.424  0.00  0.00    +0.000 C 
ENDBRANCH   1  13
BRANCH  11  15
ATOM     15  C   UNL     1       3.675   5.907  19.759  0.00  0.00    +0.000 C 
BRANCH  15  16
ATOM     16  C   UNL     1       2.738   7.035  19.377  0.00  0.00    +0.000 A 
ATOM     17  C   UNL     1       1.866   7.650  20.286  0.00  0.00    +0.000 A 
ATOM     18  C   UNL     1       1.096   8.748  19.901  0.00  0.00    +0.000 A 
ATOM     19  C   UNL     1       1.188   9.255  18.606  0.00  0.00    +0.000 A 
ATOM     20  C   UNL     1       2.054   8.660  17.692  0.00  0.00    +0.000 A 
ATOM     21  C   UNL     1       2.828   7.564  18.078  0.00  0.00    +0.000 A 
ENDBRANCH  15  16
ENDBRANCH  11  15
TORSDOF 3
ENDMDL
MODEL 4
REMARK VINA RESULT:      -7.4      0.228      1.074
REMARK  Name = 
REMARK  5 active torsions:
REMARK  status: ('A' for Active; 'I' for Inactive)
REMARK    1  A    between atoms: C_1  and  N_2
REMARK    2  A    between atoms: N_2  and  C_3
REMARK    3  A    between atoms: N_2  and  C_4
REMARK    4  A    between atoms: C_14  and  C_15
REMARK    5  A    between atoms: C_15  and  C_16
REMARK                            x       y       z     vdW  Elec       q    Type
REMARK                         _______ _______ _______ _____ _____    ______ ____
ROOT
ATOM      1  C   UNL     1       1.729   4.294  18.392  0.00  0.00    +0.000 C 
ATOM      2  C   UNL     1       2.285   3.444  17.235  0.00  0.00    +0.000 C 
ATOM      3  C   UNL     1       3.722   3.137  17.613  0.00  0.00    +0.000 C 
ATOM      4  N   UNL     1       4.128   4.277  18.404  0.00  0.00    +0.000 N 
ATOM      5  C   UNL     1       5.441   4.644  18.460  0.00  0.00    +0.000 A 
ATOM      6  N   UNL     1       6.310   4.031  17.636  0.00  0.00    +0.000 NA
ATOM      7  C   UNL     1       7.578   4.475  17.610  0.00  0.00    +0.000 A 
ATOM      8  C   UNL     1       8.036   5.497  18.397  0.00  0.00    +0.000 A 
ATOM      9  C   UNL     1       7.099   6.040  19.237  0.00  0.00    +0.000 A 
ATOM     10  N   UNL     1       5.815   5.635  19.284  0.00  0.00    +0.000 NA
ATOM     11  C   UNL     1       2.996   5.101  18.875  0.00  0.00    +0.000 C 
ENDROOT
BRANCH   1  13
ATOM     12  C   UNL     1       0.702   2.168  19.047  0.00  0.00    +0.000 C 
ATOM     13  N   UNL     1       0.984   3.553  19.440  0.00  0.00    +0.000 NA
ATOM     14  C   UNL     1       1.562   3.591  20.779  0.00  0.00    +0.000 C 
ENDBRANCH   1  13
BRANCH  11  15
ATOM     15  C   UNL     1       3.039   6.527  18.264  0.00  0.00    +0.000 C 
BRANCH  15  16
ATOM     16  C   UNL     1       2.287   7.646  18.959  0.00  0.00    +0.000 A 
ATOM     17  C   UNL     1       1.844   8.799  18.296  0.00  0.00    +0.000 A 
ATOM     18  C   UNL     1       1.073   9.751  18.965  0.00  0.00    +0.000 A 
ATOM     19  C   UNL     1       0.726   9.565  20.301  0.00  0.00    +0.000 A 
ATOM     20  C   UNL     1       1.153   8.422  20.973  0.00  0.00    +0.000 A 
ATOM     21  C   UNL     1       1.920   7.468  20.303  0.00  0.00    +0.000 A 
ENDBRANCH  15  16
ENDBRANCH  11  15
TORSDOF 3
ENDMDL
MODEL 5
REMARK VINA RESULT:      -7.3      2.955      6.941
REMARK  Name = 
REMARK  5 active torsions:
REMARK  status: ('A' for Active; 'I' for Inactive)
REMARK    1  A    between atoms: C_1  and  N_2
REMARK    2  A    between atoms: N_2  and  C_3
REMARK    3  A    between atoms: N_2  and  C_4
REMARK    4  A    between atoms: C_14  and  C_15
REMARK    5  A    between atoms: C_15  and  C_16
REMARK                            x       y       z     vdW  Elec       q    Type
REMARK                         _______ _______ _______ _____ _____    ______ ____
ROOT
ATOM      1  C   UNL     1       6.266   6.020  16.639  0.00  0.00    +0.000 C 
ATOM      2  C   UNL     1       5.060   6.961  16.806  0.00  0.00    +0.000 C 
ATOM      3  C   UNL     1       4.219   6.349  17.911  0.00  0.00    +0.000 C 
ATOM      4  N   UNL     1       4.471   4.929  17.798  0.00  0.00    +0.000 N 
ATOM      5  C   UNL     1       3.532   4.028  18.210  0.00  0.00    +0.000 A 
ATOM      6  N   UNL     1       2.317   4.488  18.559  0.00  0.00    +0.000 NA
ATOM      7  C   UNL     1       1.360   3.591  18.852  0.00  0.00    +0.000 A 
ATOM      8  C   UNL     1       1.567   2.238  18.839  0.00  0.00    +0.000 A 
ATOM      9  C   UNL     1       2.841   1.853  18.513  0.00  0.00    +0.000 A 
ATOM     10  N   UNL     1       3.825   2.719  18.200  0.00  0.00    +0.000 NA
ATOM     11  C   UNL     1       5.657   4.604  16.981  0.00  0.00    +0.000 C 
ENDROOT
BRANCH   1  13
ATOM     12  C   UNL     1       7.614   7.854  17.545  0.00  0.00    +0.000 C 
ATOM     13  N   UNL     1       7.494   6.402  17.381  0.00  0.00    +0.000 NA
ATOM     14  C   UNL     1       7.701   5.729  18.658  0.00  0.00    +0.000 C 
ENDBRANCH   1  13
BRANCH  11  15
ATOM     15  C   UNL     1       5.267   3.820  15.699  0.00  0.00    +0.000 C 
BRANCH  15  16
ATOM     16  C   UNL     1       5.993   4.122  14.403  0.00  0.00    +0.000 A 
ATOM     17  C   UNL     1       7.143   4.921  14.336  0.00  0.00    +0.000 A 
ATOM     18  C   UNL     1       7.825   5.085  13.130  0.00  0.00    +0.000 A 
ATOM     19  C   UNL     1       7.375   4.452  11.973  0.00  0.00    +0.000 A 
ATOM     20  C   UNL     1       6.237   3.650  12.023  0.00  0.00    +0.000 A 
ATOM     21  C   UNL     1       5.557   3.481  13.231  0.00  0.00    +0.000 A 
ENDBRANCH  15  16
ENDBRANCH  11  15
TORSDOF 3
ENDMDL
MODEL 6
REMARK VINA RESULT:      -7.3      1.162      1.645
REMARK  Name = 
REMARK  5 active torsions:
REMARK  status: ('A' for Active; 'I' for Inactive)
REMARK    1  A    between atoms: C_1  and  N_2
REMARK    2  A    between atoms: N_2  and  C_3
REMARK    3  A    between atoms: N_2  and  C_4
REMARK    4  A    between atoms: C_14  and  C_15
REMARK    5  A    between atoms: C_15  and  C_16
REMARK                            x       y       z     vdW  Elec       q    Type
REMARK                         _______ _______ _______ _____ _____    ______ ____
ROOT
ATOM      1  C   UNL     1       1.594   4.705  18.931  0.00  0.00    +0.000 C 
ATOM      2  C   UNL     1       1.541   3.704  17.763  0.00  0.00    +0.000 C 
ATOM      3  C   UNL     1       2.981   3.287  17.523  0.00  0.00    +0.000 C 
ATOM      4  N   UNL     1       3.752   4.446  17.915  0.00  0.00    +0.000 N 
ATOM      5  C   UNL     1       4.975   4.681  17.357  0.00  0.00    +0.000 A 
ATOM      6  N   UNL     1       5.361   3.913  16.323  0.00  0.00    +0.000 NA
ATOM      7  C   UNL     1       6.512   4.222  15.700  0.00  0.00    +0.000 A 
ATOM      8  C   UNL     1       7.321   5.258  16.082  0.00  0.00    +0.000 A 
ATOM      9  C   UNL     1       6.876   5.966  17.168  0.00  0.00    +0.000 A 
ATOM     10  N   UNL     1       5.723   5.698  17.812  0.00  0.00    +0.000 NA
ATOM     11  C   UNL     1       2.985   5.419  18.720  0.00  0.00    +0.000 C 
ENDROOT
BRANCH   1  13
ATOM     12  C   UNL     1       0.959   2.724  20.227  0.00  0.00    +0.000 C 
ATOM     13  N   UNL     1       1.345   4.138  20.281  0.00  0.00    +0.000 NA
ATOM     14  C   UNL     1       2.408   4.336  21.259  0.00  0.00    +0.000 C 
ENDBRANCH   1  13
BRANCH  11  15
ATOM     15  C   UNL     1       2.832   6.774  17.979  0.00  0.00    +0.000 C 
BRANCH  15  16
ATOM     16  C   UNL     1       2.168   7.933  18.697  0.00  0.00    +0.000 A 
ATOM     17  C   UNL     1       1.718   9.086  18.040  0.00  0.00    +0.000 A 
ATOM     18  C   UNL     1       1.027  10.078  18.738  0.00  0.00    +0.000 A 
ATOM     19  C   UNL     1       0.770   9.933  20.100  0.00  0.00    +0.000 A 
ATOM     20  C   UNL     1       1.206   8.791  20.767  0.00  0.00    +0.000 A 
ATOM     21  C   UNL     1       1.892   7.796  20.068  0.00  0.00    +0.000 A 
ENDBRANCH  15  16
ENDBRANCH  11  15
TORSDOF 3
ENDMDL
MODEL 7
REMARK VINA RESULT:      -7.2      1.993      5.361
REMARK  Name = 
REMARK  5 active torsions:
REMARK  status: ('A' for Active; 'I' for Inactive)
REMARK    1  A    between atoms: C_1  and  N_2
REMARK    2  A    between atoms: N_2  and  C_3
REMARK    3  A    between atoms: N_2  and  C_4
REMARK    4  A    between atoms: C_14  and  C_15
REMARK    5  A    between atoms: C_15  and  C_16
REMARK                            x       y       z     vdW  Elec       q    Type
REMARK                         _______ _______ _______ _____ _____    ______ ____
ROOT
ATOM      1  C   UNL     1       5.303   4.573  16.474  0.00  0.00    +0.000 C 
ATOM      2  C   UNL     1       5.041   5.603  15.360  0.00  0.00    +0.000 C 
ATOM      3  C   UNL     1       4.758   6.910  16.077  0.00  0.00    +0.000 C 
ATOM      4  N   UNL     1       4.163   6.503  17.330  0.00  0.00    +0.000 N 
ATOM      5  C   UNL     1       3.297   7.332  17.983  0.00  0.00    +0.000 A 
ATOM      6  N   UNL     1       2.887   8.448  17.355  0.00  0.00    +0.000 NA
ATOM      7  C   UNL     1       1.947   9.201  17.951  0.00  0.00    +0.000 A 
ATOM      8  C   UNL     1       1.407   8.905  19.174  0.00  0.00    +0.000 A 
ATOM      9  C   UNL     1       1.908   7.774  19.765  0.00  0.00    +0.000 A 
ATOM     10  N   UNL     1       2.840   6.985  19.196  0.00  0.00    +0.000 NA
ATOM     11  C   UNL     1       4.368   5.074  17.643  0.00  0.00    +0.000 C 
ENDROOT
BRANCH   1  13
ATOM     12  C   UNL     1       7.639   4.803  15.769  0.00  0.00    +0.000 C 
ATOM     13  N   UNL     1       6.728   4.347  16.825  0.00  0.00    +0.000 NA
ATOM     14  C   UNL     1       7.154   4.866  18.120  0.00  0.00    +0.000 C 
ENDBRANCH   1  13
BRANCH  11  15
ATOM     15  C   UNL     1       3.023   4.300  17.678  0.00  0.00    +0.000 C 
BRANCH  15  16
ATOM     16  C   UNL     1       2.570   3.673  18.982  0.00  0.00    +0.000 A 
ATOM     17  C   UNL     1       3.457   3.118  19.915  0.00  0.00    +0.000 A 
ATOM     18  C   UNL     1       2.991   2.643  21.142  0.00  0.00    +0.000 A 
ATOM     19  C   UNL     1       1.637   2.719  21.460  0.00  0.00    +0.000 A 
ATOM     20  C   UNL     1       0.743   3.273  20.547  0.00  0.00    +0.000 A 
ATOM     21  C   UNL     1       1.209   3.753  19.322  0.00  0.00    +0.000 A 
ENDBRANCH  15  16
ENDBRANCH  11  15
TORSDOF 3
ENDMDL
MODEL 8
REMARK VINA RESULT:      -7.1      1.980      5.411
REMARK  Name = 
REMARK  5 active torsions:
REMARK  status: ('A' for Active; 'I' for Inactive)
REMARK    1  A    between atoms: C_1  and  N_2
REMARK    2  A    between atoms: N_2  and  C_3
REMARK    3  A    between atoms: N_2  and  C_4
REMARK    4  A    between atoms: C_14  and  C_15
REMARK    5  A    between atoms: C_15  and  C_16
REMARK                            x       y       z     vdW  Elec       q    Type
REMARK                         _______ _______ _______ _____ _____    ______ ____
ROOT
ATOM      1  C   UNL     1       5.025   4.871  17.186  0.00  0.00    +0.000 C 
ATOM      2  C   UNL     1       4.972   5.808  15.966  0.00  0.00    +0.000 C 
ATOM      3  C   UNL     1       4.671   7.186  16.526  0.00  0.00    +0.000 C 
ATOM      4  N   UNL     1       3.891   6.919  17.714  0.00  0.00    +0.000 N 
ATOM      5  C   UNL     1       2.995   7.841  18.172  0.00  0.00    +0.000 A 
ATOM      6  N   UNL     1       2.736   8.913  17.403  0.00  0.00    +0.000 NA
ATOM      7  C   UNL     1       1.768   9.758  17.800  0.00  0.00    +0.000 A 
ATOM      8  C   UNL     1       1.055   9.597  18.957  0.00  0.00    +0.000 A 
ATOM      9  C   UNL     1       1.407   8.502  19.703  0.00  0.00    +0.000 A 
ATOM     10  N   UNL     1       2.361   7.624  19.334  0.00  0.00    +0.000 NA
ATOM     11  C   UNL     1       3.973   5.516  18.170  0.00  0.00    +0.000 C 
ENDROOT
BRANCH   1  13
ATOM     12  C   UNL     1       7.423   4.672  16.722  0.00  0.00    +0.000 C 
ATOM     13  N   UNL     1       6.375   4.614  17.747  0.00  0.00    +0.000 NA
ATOM     14  C   UNL     1       6.750   5.425  18.900  0.00  0.00    +0.000 C 
ENDBRANCH   1  13
BRANCH  11  15
ATOM     15  C   UNL     1       2.593   4.809  18.083  0.00  0.00    +0.000 C 
BRANCH  15  16
ATOM     16  C   UNL     1       2.085   4.040  19.287  0.00  0.00    +0.000 A 
ATOM     17  C   UNL     1       1.242   2.925  19.185  0.00  0.00    +0.000 A 
ATOM     18  C   UNL     1       0.885   2.198  20.321  0.00  0.00    +0.000 A 
ATOM     19  C   UNL     1       1.366   2.568  21.575  0.00  0.00    +0.000 A 
ATOM     20  C   UNL     1       2.209   3.670  21.694  0.00  0.00    +0.000 A 
ATOM     21  C   UNL     1       2.571   4.394  20.557  0.00  0.00    +0.000 A 
ENDBRANCH  15  16
ENDBRANCH  11  15
TORSDOF 3
ENDMDL
MODEL 9
REMARK VINA RESULT:      -7.1      2.945      6.952
REMARK  Name = 
REMARK  5 active torsions:
REMARK  status: ('A' for Active; 'I' for Inactive)
REMARK    1  A    between atoms: C_1  and  N_2
REMARK    2  A    between atoms: N_2  and  C_3
REMARK    3  A    between atoms: N_2  and  C_4
REMARK    4  A    between atoms: C_14  and  C_15
REMARK    5  A    between atoms: C_15  and  C_16
REMARK                            x       y       z     vdW  Elec       q    Type
REMARK                         _______ _______ _______ _____ _____    ______ ____
ROOT
ATOM      1  C   UNL     1       6.165   6.116  16.673  0.00  0.00    +0.000 C 
ATOM      2  C   UNL     1       5.033   7.076  17.080  0.00  0.00    +0.000 C 
ATOM      3  C   UNL     1       4.269   6.358  18.177  0.00  0.00    +0.000 C 
ATOM      4  N   UNL     1       4.432   4.957  17.858  0.00  0.00    +0.000 N 
ATOM      5  C   UNL     1       3.489   4.048  18.244  0.00  0.00    +0.000 A 
ATOM      6  N   UNL     1       2.339   4.508  18.770  0.00  0.00    +0.000 NA
ATOM      7  C   UNL     1       1.367   3.619  19.040  0.00  0.00    +0.000 A 
ATOM      8  C   UNL     1       1.498   2.272  18.833  0.00  0.00    +0.000 A 
ATOM      9  C   UNL     1       2.713   1.882  18.333  0.00  0.00    +0.000 A 
ATOM     10  N   UNL     1       3.709   2.741  18.036  0.00  0.00    +0.000 NA
ATOM     11  C   UNL     1       5.516   4.694  16.890  0.00  0.00    +0.000 C 
ENDROOT
BRANCH   1  13
ATOM     12  C   UNL     1       7.725   7.767  17.594  0.00  0.00    +0.000 C 
ATOM     13  N   UNL     1       7.477   6.346  17.330  0.00  0.00    +0.000 NA
ATOM     14  C   UNL     1       7.735   5.555  18.528  0.00  0.00    +0.000 C 
ENDBRANCH   1  13
BRANCH  11  15
ATOM     15  C   UNL     1       4.964   4.104  15.565  0.00  0.00    +0.000 C 
BRANCH  15  16
ATOM     16  C   UNL     1       5.843   4.125  14.329  0.00  0.00    +0.000 A 
ATOM     17  C   UNL     1       5.506   3.470  13.137  0.00  0.00    +0.000 A 
ATOM     18  C   UNL     1       6.306   3.605  12.001  0.00  0.00    +0.000 A 
ATOM     19  C   UNL     1       7.450   4.400  12.035  0.00  0.00    +0.000 A 
ATOM     20  C   UNL     1       7.796   5.063  13.210  0.00  0.00    +0.000 A 
ATOM     21  C   UNL     1       6.994   4.932  14.345  0.00  0.00    +0.000 A 
ENDBRANCH  15  16
ENDBRANCH  11  15
TORSDOF 3
ENDMDL
