MODEL 1
REMARK VINA RESULT:      -6.8      0.000      0.000
REMARK  Name = 
REMARK  14 active torsions:
REMARK  status: ('A' for Active; 'I' for Inactive)
REMARK    1  A    between atoms: C_1  and  C_2
REMARK    2  A    between atoms: C_2  and  C_3
REMARK    3  A    between atoms: C_3  and  C_4
REMARK    4  A    between atoms: C_4  and  C_5
REMARK    5  A    between atoms: C_5  and  N_6
REMARK    6  A    between atoms: C_5  and  C_8
REMARK    7  A    between atoms: N_6  and  C_7
REMARK    8  A    between atoms: N_10  and  C_11
REMARK    9  A    between atoms: C_11  and  C_12
REMARK   10  A    between atoms: C_11  and  C_16
REMARK   11  A    between atoms: C_12  and  C_13
REMARK   12  A    between atoms: C_13  and  C_14
REMARK   13  A    between atoms: C_14  and  C_15
REMARK   14  A    between atoms: N_18  and  C_19
REMARK                            x       y       z     vdW  Elec       q    Type
REMARK                         _______ _______ _______ _____ _____    ______ ____
ROOT
ATOM      1  C   UNL     1       4.423   3.910  16.942  0.00  0.00    +0.000 C 
ATOM      2  O   UNL     1       4.280   5.131  16.964  0.00  0.00    +0.000 OA
ATOM      3  N   UNL     1       5.526   3.307  16.386  0.00  0.00    +0.000 N 
ATOM      4  H   UNL     1       5.682   2.324  16.595  0.00  0.00    +0.000 HD
ENDROOT
BRANCH   1   5
ATOM      5  C   UNL     1       3.394   2.910  17.522  0.00  0.00    +0.000 C 
BRANCH   5   6
ATOM      6  N   UNL     1       4.029   2.126  18.618  0.00  0.00    +0.000 NA
ATOM      7  C   UNL     1       4.593   2.968  19.674  0.00  0.00    +0.000 C 
ATOM      8  H   UNL     1       3.318   1.525  19.034  0.00  0.00    +0.000 HD
ENDBRANCH   5   6
BRANCH   5   9
ATOM      9  C   UNL     1       2.077   3.564  17.966  0.00  0.00    +0.000 C 
BRANCH   9  10
ATOM     10  C   UNL     1       1.140   2.633  18.745  0.00  0.00    +0.000 C 
BRANCH  10  12
ATOM     11  C   UNL     1       1.440   4.618  20.283  0.00  0.00    +0.000 C 
ATOM     12  C   UNL     1       0.782   3.262  20.094  0.00  0.00    +0.000 C 
ENDBRANCH  10  12
ENDBRANCH   9  10
ENDBRANCH   5   9
ENDBRANCH   1   5
BRANCH   3  13
ATOM     13  C   UNL     1       6.630   4.084  15.838  0.00  0.00    +0.000 C 
BRANCH  13  14
ATOM     14  C   UNL     1       7.208   4.931  16.983  0.00  0.00    +0.000 C 
ATOM     15  O   UNL     1       7.635   4.432  18.021  0.00  0.00    +0.000 OA
ATOM     16  N   UNL     1       7.216   6.288  16.728  0.00  0.00    +0.000 N 
ATOM     17  C   UNL     1       7.702   7.256  17.679  0.00  0.00    +0.000 C 
ATOM     18  H   UNL     1       6.942   6.620  15.812  0.00  0.00    +0.000 HD
ENDBRANCH  13  14
BRANCH  13  19
ATOM     19  C   UNL     1       6.167   4.973  14.672  0.00  0.00    +0.000 C 
BRANCH  19  20
ATOM     20  C   UNL     1       5.440   4.157  13.596  0.00  0.00    +0.000 C 
BRANCH  20  21
ATOM     21  C   UNL     1       6.387   3.590  12.542  0.00  0.00    +0.000 C 
ATOM     22  C   UNL     1       5.698   2.496  11.739  0.00  0.00    +0.000 C 
ENDBRANCH  20  21
ENDBRANCH  19  20
ENDBRANCH  13  19
ENDBRANCH   3  13
TORSDOF 10
ENDMDL
MODEL 2
REMARK VINA RESULT:      -6.7      1.781      3.524
REMARK  Name = 
REMARK  14 active torsions:
REMARK  status: ('A' for Active; 'I' for Inactive)
REMARK    1  A    between atoms: C_1  and  C_2
REMARK    2  A    between atoms: C_2  and  C_3
REMARK    3  A    between atoms: C_3  and  C_4
REMARK    4  A    between atoms: C_4  and  C_5
REMARK    5  A    between atoms: C_5  and  N_6
REMARK    6  A    between atoms: C_5  and  C_8
REMARK    7  A    between atoms: N_6  and  C_7
REMARK    8  A    between atoms: N_10  and  C_11
REMARK    9  A    between atoms: C_11  and  C_12
REMARK   10  A    between atoms: C_11  and  C_16
REMARK   11  A    between atoms: C_12  and  C_13
REMARK   12  A    between atoms: C_13  and  C_14
REMARK   13  A    between atoms: C_14  and  C_15
REMARK   14  A    between atoms: N_18  and  C_19
REMARK                            x       y       z     vdW  Elec       q    Type
REMARK                         _______ _______ _______ _____ _____    ______ ____
ROOT
ATOM      1  C   UNL     1       4.147   4.422  17.231  0.00  0.00    +0.000 C 
ATOM      2  O   UNL     1       3.780   5.594  17.173  0.00  0.00    +0.000 OA
ATOM      3  N   UNL     1       5.401   4.022  16.837  0.00  0.00    +0.000 N 
ATOM      4  H   UNL     1       5.708   3.093  17.112  0.00  0.00    +0.000 HD
ENDROOT
BRANCH   1   5
ATOM      5  C   UNL     1       3.256   3.263  17.742  0.00  0.00    +0.000 C 
BRANCH   5   6
ATOM      6  N   UNL     1       4.019   2.453  18.733  0.00  0.00    +0.000 NA
ATOM      7  C   UNL     1       3.633   1.041  18.738  0.00  0.00    +0.000 C 
ATOM      8  H   UNL     1       5.010   2.512  18.500  0.00  0.00    +0.000 HD
ENDBRANCH   5   6
BRANCH   5   9
ATOM      9  C   UNL     1       1.897   3.722  18.292  0.00  0.00    +0.000 C 
BRANCH   9  10
ATOM     10  C   UNL     1       1.958   4.336  19.695  0.00  0.00    +0.000 C 
BRANCH  10  12
ATOM     11  C   UNL     1       1.689   2.641  21.552  0.00  0.00    +0.000 C 
ATOM     12  C   UNL     1       0.980   3.612  20.625  0.00  0.00    +0.000 C 
ENDBRANCH  10  12
ENDBRANCH   9  10
ENDBRANCH   5   9
ENDBRANCH   1   5
BRANCH   3  13
ATOM     13  C   UNL     1       6.401   4.977  16.377  0.00  0.00    +0.000 C 
BRANCH  13  14
ATOM     14  C   UNL     1       6.770   4.596  14.935  0.00  0.00    +0.000 C 
ATOM     15  O   UNL     1       6.321   3.594  14.382  0.00  0.00    +0.000 OA
ATOM     16  N   UNL     1       7.631   5.484  14.322  0.00  0.00    +0.000 N 
ATOM     17  C   UNL     1       8.112   5.300  12.976  0.00  0.00    +0.000 C 
ATOM     18  H   UNL     1       7.882   6.339  14.802  0.00  0.00    +0.000 HD
ENDBRANCH  13  14
BRANCH  13  19
ATOM     19  C   UNL     1       7.641   4.972  17.284  0.00  0.00    +0.000 C 
BRANCH  19  20
ATOM     20  C   UNL     1       7.677   6.205  18.196  0.00  0.00    +0.000 C 
BRANCH  20  21
ATOM     21  C   UNL     1       7.411   7.506  17.444  0.00  0.00    +0.000 C 
ATOM     22  C   UNL     1       8.221   8.645  18.045  0.00  0.00    +0.000 C 
ENDBRANCH  20  21
ENDBRANCH  19  20
ENDBRANCH  13  19
ENDBRANCH   3  13
TORSDOF 10
ENDMDL
MODEL 3
REMARK VINA RESULT:      -6.5      1.750      2.031
REMARK  Name = 
REMARK  14 active torsions:
REMARK  status: ('A' for Active; 'I' for Inactive)
REMARK    1  A    between atoms: C_1  and  C_2
REMARK    2  A    between atoms: C_2  and  C_3
REMARK    3  A    between atoms: C_3  and  C_4
REMARK    4  A    between atoms: C_4  and  C_5
REMARK    5  A    between atoms: C_5  and  N_6
REMARK    6  A    between atoms: C_5  and  C_8
REMARK    7  A    between atoms: N_6  and  C_7
REMARK    8  A    between atoms: N_10  and  C_11
REMARK    9  A    between atoms: C_11  and  C_12
REMARK   10  A    between atoms: C_11  and  C_16
REMARK   11  A    between atoms: C_12  and  C_13
REMARK   12  A    between atoms: C_13  and  C_14
REMARK   13  A    between atoms: C_14  and  C_15
REMARK   14  A    between atoms: N_18  and  C_19
REMARK                            x       y       z     vdW  Elec       q    Type
REMARK                         _______ _______ _______ _____ _____    ______ ____
ROOT
ATOM      1  C   UNL     1       3.857   4.059  17.634  0.00  0.00    +0.000 C 
ATOM      2  O   UNL     1       4.035   2.873  17.364  0.00  0.00    +0.000 OA
ATOM      3  N   UNL     1       4.732   5.044  17.242  0.00  0.00    +0.000 N 
ATOM      4  H   UNL     1       4.417   6.008  17.306  0.00  0.00    +0.000 HD
ENDROOT
BRANCH   1   5
ATOM      5  C   UNL     1       2.647   4.589  18.441  0.00  0.00    +0.000 C 
BRANCH   5   6
ATOM      6  N   UNL     1       2.500   6.053  18.210  0.00  0.00    +0.000 NA
ATOM      7  C   UNL     1       2.464   6.829  19.451  0.00  0.00    +0.000 C 
ATOM      8  H   UNL     1       3.296   6.371  17.657  0.00  0.00    +0.000 HD
ENDBRANCH   5   6
BRANCH   5   9
ATOM      9  C   UNL     1       1.341   3.826  18.173  0.00  0.00    +0.000 C 
BRANCH   9  10
ATOM     10  C   UNL     1       0.920   2.877  19.301  0.00  0.00    +0.000 C 
BRANCH  10  12
ATOM     11  C   UNL     1       1.594   2.616  21.724  0.00  0.00    +0.000 C 
ATOM     12  C   UNL     1       1.086   3.569  20.656  0.00  0.00    +0.000 C 
ENDBRANCH  10  12
ENDBRANCH   9  10
ENDBRANCH   5   9
ENDBRANCH   1   5
BRANCH   3  13
ATOM     13  C   UNL     1       5.903   4.748  16.427  0.00  0.00    +0.000 C 
BRANCH  13  14
ATOM     14  C   UNL     1       6.995   5.759  16.809  0.00  0.00    +0.000 C 
ATOM     15  O   UNL     1       7.708   6.308  15.972  0.00  0.00    +0.000 OA
ATOM     16  N   UNL     1       7.087   6.000  18.166  0.00  0.00    +0.000 N 
ATOM     17  C   UNL     1       8.057   6.902  18.733  0.00  0.00    +0.000 C 
ATOM     18  H   UNL     1       6.402   5.588  18.788  0.00  0.00    +0.000 HD
ENDBRANCH  13  14
BRANCH  13  19
ATOM     19  C   UNL     1       5.578   4.826  14.927  0.00  0.00    +0.000 C 
BRANCH  19  20
ATOM     20  C   UNL     1       6.135   3.617  14.165  0.00  0.00    +0.000 C 
BRANCH  20  21
ATOM     21  C   UNL     1       5.730   3.606  12.694  0.00  0.00    +0.000 C 
ATOM     22  C   UNL     1       6.949   3.789  11.802  0.00  0.00    +0.000 C 
ENDBRANCH  20  21
ENDBRANCH  19  20
ENDBRANCH  13  19
ENDBRANCH   3  13
TORSDOF 10
ENDMDL
MODEL 4
REMARK VINA RESULT:      -6.5      1.342      1.617
REMARK  Name = 
REMARK  14 active torsions:
REMARK  status: ('A' for Active; 'I' for Inactive)
REMARK    1  A    between atoms: C_1  and  C_2
REMARK    2  A    between atoms: C_2  and  C_3
REMARK    3  A    between atoms: C_3  and  C_4
REMARK    4  A    between atoms: C_4  and  C_5
REMARK    5  A    between atoms: C_5  and  N_6
REMARK    6  A    between atoms: C_5  and  C_8
REMARK    7  A    between atoms: N_6  and  C_7
REMARK    8  A    between atoms: N_10  and  C_11
REMARK    9  A    between atoms: C_11  and  C_12
REMARK   10  A    between atoms: C_11  and  C_16
REMARK   11  A    between atoms: C_12  and  C_13
REMARK   12  A    between atoms: C_13  and  C_14
REMARK   13  A    between atoms: C_14  and  C_15
REMARK   14  A    between atoms: N_18  and  C_19
REMARK                            x       y       z     vdW  Elec       q    Type
REMARK                         _______ _______ _______ _____ _____    ______ ____
ROOT
ATOM      1  C   UNL     1       4.049   3.843  17.540  0.00  0.00    +0.000 C 
ATOM      2  O   UNL     1       4.679   3.933  18.592  0.00  0.00    +0.000 OA
ATOM      3  N   UNL     1       4.622   4.089  16.315  0.00  0.00    +0.000 N 
ATOM      4  H   UNL     1       4.114   3.788  15.487  0.00  0.00    +0.000 HD
ENDROOT
BRANCH   1   5
ATOM      5  C   UNL     1       2.554   3.452  17.460  0.00  0.00    +0.000 C 
BRANCH   5   6
ATOM      6  N   UNL     1       2.406   1.997  17.750  0.00  0.00    +0.000 NA
ATOM      7  C   UNL     1       3.587   1.418  18.392  0.00  0.00    +0.000 C 
ATOM      8  H   UNL     1       1.610   1.875  18.376  0.00  0.00    +0.000 HD
ENDBRANCH   5   6
BRANCH   5   9
ATOM      9  C   UNL     1       1.639   4.313  18.342  0.00  0.00    +0.000 C 
BRANCH   9  10
ATOM     10  C   UNL     1       0.951   3.547  19.478  0.00  0.00    +0.000 C 
BRANCH  10  12
ATOM     11  C   UNL     1       1.723   2.638  21.707  0.00  0.00    +0.000 C 
ATOM     12  C   UNL     1       1.636   3.860  20.810  0.00  0.00    +0.000 C 
ENDBRANCH  10  12
ENDBRANCH   9  10
ENDBRANCH   5   9
ENDBRANCH   1   5
BRANCH   3  13
ATOM     13  C   UNL     1       6.035   4.418  16.182  0.00  0.00    +0.000 C 
BRANCH  13  14
ATOM     14  C   UNL     1       6.178   5.930  16.418  0.00  0.00    +0.000 C 
ATOM     15  O   UNL     1       5.397   6.749  15.939  0.00  0.00    +0.000 OA
ATOM     16  N   UNL     1       7.246   6.274  17.223  0.00  0.00    +0.000 N 
ATOM     17  C   UNL     1       7.564   7.640  17.553  0.00  0.00    +0.000 C 
ATOM     18  H   UNL     1       7.788   5.542  17.664  0.00  0.00    +0.000 HD
ENDBRANCH  13  14
BRANCH  13  19
ATOM     19  C   UNL     1       6.577   4.021  14.800  0.00  0.00    +0.000 C 
BRANCH  19  20
ATOM     20  C   UNL     1       5.464   3.992  13.745  0.00  0.00    +0.000 C 
BRANCH  20  21
ATOM     21  C   UNL     1       5.911   3.359  12.430  0.00  0.00    +0.000 C 
ATOM     22  C   UNL     1       7.177   4.029  11.917  0.00  0.00    +0.000 C 
ENDBRANCH  20  21
ENDBRANCH  19  20
ENDBRANCH  13  19
ENDBRANCH   3  13
TORSDOF 10
ENDMDL
MODEL 5
REMARK VINA RESULT:      -6.4      1.344      1.644
REMARK  Name = 
REMARK  14 active torsions:
REMARK  status: ('A' for Active; 'I' for Inactive)
REMARK    1  A    between atoms: C_1  and  C_2
REMARK    2  A    between atoms: C_2  and  C_3
REMARK    3  A    between atoms: C_3  and  C_4
REMARK    4  A    between atoms: C_4  and  C_5
REMARK    5  A    between atoms: C_5  and  N_6
REMARK    6  A    between atoms: C_5  and  C_8
REMARK    7  A    between atoms: N_6  and  C_7
REMARK    8  A    between atoms: N_10  and  C_11
REMARK    9  A    between atoms: C_11  and  C_12
REMARK   10  A    between atoms: C_11  and  C_16
REMARK   11  A    between atoms: C_12  and  C_13
REMARK   12  A    between atoms: C_13  and  C_14
REMARK   13  A    between atoms: C_14  and  C_15
REMARK   14  A    between atoms: N_18  and  C_19
REMARK                            x       y       z     vdW  Elec       q    Type
REMARK                         _______ _______ _______ _____ _____    ______ ____
ROOT
ATOM      1  C   UNL     1       4.266   4.265  17.837  0.00  0.00    +0.000 C 
ATOM      2  O   UNL     1       5.035   3.689  18.604  0.00  0.00    +0.000 OA
ATOM      3  N   UNL     1       4.658   4.705  16.595  0.00  0.00    +0.000 N 
ATOM      4  H   UNL     1       3.930   4.971  15.937  0.00  0.00    +0.000 HD
ENDROOT
BRANCH   1   5
ATOM      5  C   UNL     1       2.785   4.569  18.165  0.00  0.00    +0.000 C 
BRANCH   5   6
ATOM      6  N   UNL     1       1.912   3.571  17.485  0.00  0.00    +0.000 NA
ATOM      7  C   UNL     1       2.351   2.190  17.691  0.00  0.00    +0.000 C 
ATOM      8  H   UNL     1       0.967   3.664  17.859  0.00  0.00    +0.000 HD
ENDBRANCH   5   6
BRANCH   5   9
ATOM      9  C   UNL     1       2.490   4.665  19.670  0.00  0.00    +0.000 C 
BRANCH   9  10
ATOM     10  C   UNL     1       1.095   4.175  20.073  0.00  0.00    +0.000 C 
BRANCH  10  12
ATOM     11  C   UNL     1       2.629   2.675  21.411  0.00  0.00    +0.000 C 
ATOM     12  C   UNL     1       1.206   3.173  21.225  0.00  0.00    +0.000 C 
ENDBRANCH  10  12
ENDBRANCH   9  10
ENDBRANCH   5   9
ENDBRANCH   1   5
BRANCH   3  13
ATOM     13  C   UNL     1       6.001   4.464  16.085  0.00  0.00    +0.000 C 
BRANCH  13  14
ATOM     14  C   UNL     1       6.964   5.352  16.889  0.00  0.00    +0.000 C 
ATOM     15  O   UNL     1       7.890   4.890  17.551  0.00  0.00    +0.000 OA
ATOM     16  N   UNL     1       6.701   6.703  16.783  0.00  0.00    +0.000 N 
ATOM     17  C   UNL     1       7.476   7.704  17.472  0.00  0.00    +0.000 C 
ATOM     18  H   UNL     1       5.985   7.018  16.141  0.00  0.00    +0.000 HD
ENDBRANCH  13  14
BRANCH  13  19
ATOM     19  C   UNL     1       6.094   4.767  14.581  0.00  0.00    +0.000 C 
BRANCH  19  20
ATOM     20  C   UNL     1       6.144   3.480  13.748  0.00  0.00    +0.000 C 
BRANCH  20  21
ATOM     21  C   UNL     1       5.997   3.738  12.251  0.00  0.00    +0.000 C 
ATOM     22  C   UNL     1       4.648   3.239  11.754  0.00  0.00    +0.000 C 
ENDBRANCH  20  21
ENDBRANCH  19  20
ENDBRANCH  13  19
ENDBRANCH   3  13
TORSDOF 10
ENDMDL
MODEL 6
REMARK VINA RESULT:      -6.4      1.419      2.028
REMARK  Name = 
REMARK  14 active torsions:
REMARK  status: ('A' for Active; 'I' for Inactive)
REMARK    1  A    between atoms: C_1  and  C_2
REMARK    2  A    between atoms: C_2  and  C_3
REMARK    3  A    between atoms: C_3  and  C_4
REMARK    4  A    between atoms: C_4  and  C_5
REMARK    5  A    between atoms: C_5  and  N_6
REMARK    6  A    between atoms: C_5  and  C_8
REMARK    7  A    between atoms: N_6  and  C_7
REMARK    8  A    between atoms: N_10  and  C_11
REMARK    9  A    between atoms: C_11  and  C_12
REMARK   10  A    between atoms: C_11  and  C_16
REMARK   11  A    between atoms: C_12  and  C_13
REMARK   12  A    between atoms: C_13  and  C_14
REMARK   13  A    between atoms: C_14  and  C_15
REMARK   14  A    between atoms: N_18  and  C_19
REMARK                            x       y       z     vdW  Elec       q    Type
REMARK                         _______ _______ _______ _____ _____    ______ ____
ROOT
ATOM      1  C   UNL     1       5.457   4.466  18.864  0.00  0.00    +0.000 C 
ATOM      2  O   UNL     1       6.148   5.106  19.654  0.00  0.00    +0.000 OA
ATOM      3  N   UNL     1       5.780   4.343  17.534  0.00  0.00    +0.000 N 
ATOM      4  H   UNL     1       5.295   3.632  16.994  0.00  0.00    +0.000 HD
ENDROOT
BRANCH   1   5
ATOM      5  C   UNL     1       4.153   3.731  19.258  0.00  0.00    +0.000 C 
BRANCH   5   6
ATOM      6  N   UNL     1       4.452   2.295  19.519  0.00  0.00    +0.000 NA
ATOM      7  C   UNL     1       3.793   1.390  18.576  0.00  0.00    +0.000 C 
ATOM      8  H   UNL     1       5.460   2.159  19.440  0.00  0.00    +0.000 HD
ENDBRANCH   5   6
BRANCH   5   9
ATOM      9  C   UNL     1       3.400   4.387  20.425  0.00  0.00    +0.000 C 
BRANCH   9  10
ATOM     10  C   UNL     1       1.940   4.739  20.117  0.00  0.00    +0.000 C 
BRANCH  10  12
ATOM     11  C   UNL     1       0.567   2.838  19.171  0.00  0.00    +0.000 C 
ATOM     12  C   UNL     1       1.037   3.543  20.431  0.00  0.00    +0.000 C 
ENDBRANCH  10  12
ENDBRANCH   9  10
ENDBRANCH   5   9
ENDBRANCH   1   5
BRANCH   3  13
ATOM     13  C   UNL     1       7.001   4.920  16.985  0.00  0.00    +0.000 C 
BRANCH  13  14
ATOM     14  C   UNL     1       6.834   6.448  17.002  0.00  0.00    +0.000 C 
ATOM     15  O   UNL     1       5.905   7.016  16.432  0.00  0.00    +0.000 OA
ATOM     16  N   UNL     1       7.807   7.111  17.722  0.00  0.00    +0.000 N 
ATOM     17  C   UNL     1       7.841   8.546  17.848  0.00  0.00    +0.000 C 
ATOM     18  H   UNL     1       8.485   6.573  18.248  0.00  0.00    +0.000 HD
ENDBRANCH  13  14
BRANCH  13  19
ATOM     19  C   UNL     1       7.273   4.409  15.562  0.00  0.00    +0.000 C 
BRANCH  19  20
ATOM     20  C   UNL     1       6.061   3.663  14.989  0.00  0.00    +0.000 C 
BRANCH  20  21
ATOM     21  C   UNL     1       5.594   4.230  13.652  0.00  0.00    +0.000 C 
ATOM     22  C   UNL     1       6.209   3.453  12.497  0.00  0.00    +0.000 C 
ENDBRANCH  20  21
ENDBRANCH  19  20
ENDBRANCH  13  19
ENDBRANCH   3  13
TORSDOF 10
ENDMDL
MODEL 7
REMARK VINA RESULT:      -6.4      2.405      6.514
REMARK  Name = 
REMARK  14 active torsions:
REMARK  status: ('A' for Active; 'I' for Inactive)
REMARK    1  A    between atoms: C_1  and  C_2
REMARK    2  A    between atoms: C_2  and  C_3
REMARK    3  A    between atoms: C_3  and  C_4
REMARK    4  A    between atoms: C_4  and  C_5
REMARK    5  A    between atoms: C_5  and  N_6
REMARK    6  A    between atoms: C_5  and  C_8
REMARK    7  A    between atoms: N_6  and  C_7
REMARK    8  A    between atoms: N_10  and  C_11
REMARK    9  A    between atoms: C_11  and  C_12
REMARK   10  A    between atoms: C_11  and  C_16
REMARK   11  A    between atoms: C_12  and  C_13
REMARK   12  A    between atoms: C_13  and  C_14
REMARK   13  A    between atoms: C_14  and  C_15
REMARK   14  A    between atoms: N_18  and  C_19
REMARK                            x       y       z     vdW  Elec       q    Type
REMARK                         _______ _______ _______ _____ _____    ______ ____
ROOT
ATOM      1  C   UNL     1       5.275   4.754  18.030  0.00  0.00    +0.000 C 
ATOM      2  O   UNL     1       4.768   3.747  17.538  0.00  0.00    +0.000 OA
ATOM      3  N   UNL     1       4.572   5.612  18.840  0.00  0.00    +0.000 N 
ATOM      4  H   UNL     1       5.102   6.291  19.380  0.00  0.00    +0.000 HD
ENDROOT
BRANCH   1   5
ATOM      5  C   UNL     1       6.746   5.179  17.799  0.00  0.00    +0.000 C 
BRANCH   5   6
ATOM      6  N   UNL     1       7.373   4.271  16.798  0.00  0.00    +0.000 NA
ATOM      7  C   UNL     1       7.119   4.678  15.415  0.00  0.00    +0.000 C 
ATOM      8  H   UNL     1       8.382   4.273  16.952  0.00  0.00    +0.000 HD
ENDBRANCH   5   6
BRANCH   5   9
ATOM      9  C   UNL     1       6.911   6.659  17.422  0.00  0.00    +0.000 C 
BRANCH   9  10
ATOM     10  C   UNL     1       7.987   7.399  18.224  0.00  0.00    +0.000 C 
BRANCH  10  12
ATOM     11  C   UNL     1       8.881   9.706  18.747  0.00  0.00    +0.000 C 
ATOM     12  C   UNL     1       8.031   8.871  17.805  0.00  0.00    +0.000 C 
ENDBRANCH  10  12
ENDBRANCH   9  10
ENDBRANCH   5   9
ENDBRANCH   1   5
BRANCH   3  13
ATOM     13  C   UNL     1       3.189   5.352  19.217  0.00  0.00    +0.000 C 
BRANCH  13  14
ATOM     14  C   UNL     1       2.479   6.711  19.326  0.00  0.00    +0.000 C 
ATOM     15  O   UNL     1       2.333   7.457  18.361  0.00  0.00    +0.000 OA
ATOM     16  N   UNL     1       2.015   7.001  20.593  0.00  0.00    +0.000 N 
ATOM     17  C   UNL     1       1.336   8.232  20.911  0.00  0.00    +0.000 C 
ATOM     18  H   UNL     1       2.082   6.297  21.317  0.00  0.00    +0.000 HD
ENDBRANCH  13  14
BRANCH  13  19
ATOM     19  C   UNL     1       3.104   4.575  20.540  0.00  0.00    +0.000 C 
BRANCH  19  20
ATOM     20  C   UNL     1       2.647   3.128  20.317  0.00  0.00    +0.000 C 
BRANCH  20  21
ATOM     21  C   UNL     1       1.128   2.986  20.270  0.00  0.00    +0.000 C 
ATOM     22  C   UNL     1       0.677   2.529  18.891  0.00  0.00    +0.000 C 
ENDBRANCH  20  21
ENDBRANCH  19  20
ENDBRANCH  13  19
ENDBRANCH   3  13
TORSDOF 10
ENDMDL
MODEL 8
REMARK VINA RESULT:      -6.3      2.595      6.250
REMARK  Name = 
REMARK  14 active torsions:
REMARK  status: ('A' for Active; 'I' for Inactive)
REMARK    1  A    between atoms: C_1  and  C_2
REMARK    2  A    between atoms: C_2  and  C_3
REMARK    3  A    between atoms: C_3  and  C_4
REMARK    4  A    between atoms: C_4  and  C_5
REMARK    5  A    between atoms: C_5  and  N_6
REMARK    6  A    between atoms: C_5  and  C_8
REMARK    7  A    between atoms: N_6  and  C_7
REMARK    8  A    between atoms: N_10  and  C_11
REMARK    9  A    between atoms: C_11  and  C_12
REMARK   10  A    between atoms: C_11  and  C_16
REMARK   11  A    between atoms: C_12  and  C_13
REMARK   12  A    between atoms: C_13  and  C_14
REMARK   13  A    between atoms: C_14  and  C_15
REMARK   14  A    between atoms: N_18  and  C_19
REMARK                            x       y       z     vdW  Elec       q    Type
REMARK                         _______ _______ _______ _____ _____    ______ ____
ROOT
ATOM      1  C   UNL     1       5.684   4.974  18.754  0.00  0.00    +0.000 C 
ATOM      2  O   UNL     1       6.231   5.074  19.850  0.00  0.00    +0.000 OA
ATOM      3  N   UNL     1       4.318   5.009  18.606  0.00  0.00    +0.000 N 
ATOM      4  H   UNL     1       3.948   5.139  17.668  0.00  0.00    +0.000 HD
ENDROOT
BRANCH   1   5
ATOM      5  C   UNL     1       6.449   4.792  17.421  0.00  0.00    +0.000 C 
BRANCH   5   6
ATOM      6  N   UNL     1       5.882   3.631  16.679  0.00  0.00    +0.000 NA
ATOM      7  C   UNL     1       6.048   3.740  15.228  0.00  0.00    +0.000 C 
ATOM      8  H   UNL     1       6.361   2.786  16.992  0.00  0.00    +0.000 HD
ENDBRANCH   5   6
BRANCH   5   9
ATOM      9  C   UNL     1       6.502   6.061  16.558  0.00  0.00    +0.000 C 
BRANCH   9  10
ATOM     10  C   UNL     1       6.520   7.369  17.357  0.00  0.00    +0.000 C 
BRANCH  10  12
ATOM     11  C   UNL     1       8.193   9.163  17.967  0.00  0.00    +0.000 C 
ATOM     12  C   UNL     1       7.943   7.671  17.832  0.00  0.00    +0.000 C 
ENDBRANCH  10  12
ENDBRANCH   9  10
ENDBRANCH   5   9
ENDBRANCH   1   5
BRANCH   3  13
ATOM     13  C   UNL     1       3.430   5.228  19.741  0.00  0.00    +0.000 C 
BRANCH  13  14
ATOM     14  C   UNL     1       2.429   4.062  19.771  0.00  0.00    +0.000 C 
ATOM     15  O   UNL     1       1.557   3.963  20.631  0.00  0.00    +0.000 OA
ATOM     16  N   UNL     1       2.592   3.155  18.742  0.00  0.00    +0.000 N 
ATOM     17  C   UNL     1       1.767   1.982  18.599  0.00  0.00    +0.000 C 
ATOM     18  H   UNL     1       3.266   3.352  18.013  0.00  0.00    +0.000 HD
ENDBRANCH  13  14
BRANCH  13  19
ATOM     19  C   UNL     1       2.703   6.577  19.633  0.00  0.00    +0.000 C 
BRANCH  19  20
ATOM     20  C   UNL     1       2.378   6.928  18.176  0.00  0.00    +0.000 C 
BRANCH  20  21
ATOM     21  C   UNL     1       2.812   8.342  17.796  0.00  0.00    +0.000 C 
ATOM     22  C   UNL     1       1.625   9.293  17.833  0.00  0.00    +0.000 C 
ENDBRANCH  20  21
ENDBRANCH  19  20
ENDBRANCH  13  19
ENDBRANCH   3  13
TORSDOF 10
ENDMDL
MODEL 9
REMARK VINA RESULT:      -6.3      1.950      2.378
REMARK  Name = 
REMARK  14 active torsions:
REMARK  status: ('A' for Active; 'I' for Inactive)
REMARK    1  A    between atoms: C_1  and  C_2
REMARK    2  A    between atoms: C_2  and  C_3
REMARK    3  A    between atoms: C_3  and  C_4
REMARK    4  A    between atoms: C_4  and  C_5
REMARK    5  A    between atoms: C_5  and  N_6
REMARK    6  A    between atoms: C_5  and  C_8
REMARK    7  A    between atoms: N_6  and  C_7
REMARK    8  A    between atoms: N_10  and  C_11
REMARK    9  A    between atoms: C_11  and  C_12
REMARK   10  A    between atoms: C_11  and  C_16
REMARK   11  A    between atoms: C_12  and  C_13
REMARK   12  A    between atoms: C_13  and  C_14
REMARK   13  A    between atoms: C_14  and  C_15
REMARK   14  A    between atoms: N_18  and  C_19
REMARK                            x       y       z     vdW  Elec       q    Type
REMARK                         _______ _______ _______ _____ _____    ______ ____
ROOT
ATOM      1  C   UNL     1       4.496   5.147  18.755  0.00  0.00    +0.000 C 
ATOM      2  O   UNL     1       5.033   4.925  19.838  0.00  0.00    +0.000 OA
ATOM      3  N   UNL     1       5.203   5.180  17.576  0.00  0.00    +0.000 N 
ATOM      4  H   UNL     1       4.674   5.151  16.708  0.00  0.00    +0.000 HD
ENDROOT
BRANCH   1   5
ATOM      5  C   UNL     1       2.983   5.418  18.580  0.00  0.00    +0.000 C 
BRANCH   5   6
ATOM      6  N   UNL     1       2.783   6.804  18.072  0.00  0.00    +0.000 NA
ATOM      7  C   UNL     1       2.292   7.726  19.098  0.00  0.00    +0.000 C 
ATOM      8  H   UNL     1       3.680   7.153  17.733  0.00  0.00    +0.000 HD
ENDBRANCH   5   6
BRANCH   5   9
ATOM      9  C   UNL     1       2.262   4.374  17.714  0.00  0.00    +0.000 C 
BRANCH   9  10
ATOM     10  C   UNL     1       1.571   3.260  18.509  0.00  0.00    +0.000 C 
BRANCH  10  12
ATOM     11  C   UNL     1       1.559   2.830  21.001  0.00  0.00    +0.000 C 
ATOM     12  C   UNL     1       1.157   3.782  19.888  0.00  0.00    +0.000 C 
ENDBRANCH  10  12
ENDBRANCH   9  10
ENDBRANCH   5   9
ENDBRANCH   1   5
BRANCH   3  13
ATOM     13  C   UNL     1       6.631   4.896  17.530  0.00  0.00    +0.000 C 
BRANCH  13  14
ATOM     14  C   UNL     1       7.363   6.131  18.080  0.00  0.00    +0.000 C 
ATOM     15  O   UNL     1       8.000   6.106  19.130  0.00  0.00    +0.000 OA
ATOM     16  N   UNL     1       7.248   7.252  17.283  0.00  0.00    +0.000 N 
ATOM     17  C   UNL     1       7.846   8.518  17.628  0.00  0.00    +0.000 C 
ATOM     18  H   UNL     1       6.791   7.174  16.383  0.00  0.00    +0.000 HD
ENDBRANCH  13  14
BRANCH  13  19
ATOM     19  C   UNL     1       7.094   4.571  16.101  0.00  0.00    +0.000 C 
BRANCH  19  20
ATOM     20  C   UNL     1       5.906   4.448  15.138  0.00  0.00    +0.000 C 
BRANCH  20  21
ATOM     21  C   UNL     1       6.325   4.028  13.732  0.00  0.00    +0.000 C 
ATOM     22  C   UNL     1       5.109   3.627  12.911  0.00  0.00    +0.000 C 
ENDBRANCH  20  21
ENDBRANCH  19  20
ENDBRANCH  13  19
ENDBRANCH   3  13
TORSDOF 10
ENDMDL
