MODEL 1
REMARK VINA RESULT:      -8.3      0.000      0.000
REMARK  Name = 
REMARK  8 active torsions:
REMARK  status: ('A' for Active; 'I' for Inactive)
REMARK    1  A    between atoms: C_1  and  C_2
REMARK    2  A    between atoms: C_2  and  N_3
REMARK    3  A    between atoms: N_3  and  C_4
REMARK    4  A    between atoms: N_3  and  C_6
REMARK    5  A    between atoms: C_4  and  C_5
REMARK    6  A    between atoms: C_10  and  C_11
REMARK    7  A    between atoms: C_20  and  N_21
REMARK    8  A    between atoms: C_22  and  C_24
REMARK                            x       y       z     vdW  Elec       q    Type
REMARK                         _______ _______ _______ _____ _____    ______ ____
ROOT
ATOM      1  C   UNL     1       0.709  10.409  19.232  0.00  0.00    +0.000 A 
ATOM      2  C   UNL     1       1.495   9.381  18.640  0.00  0.00    +0.000 A 
ATOM      3  C   UNL     1       1.726   8.181  19.330  0.00  0.00    +0.000 A 
ATOM      4  N   UNL     1       2.395   7.037  18.989  0.00  0.00    +0.000 N 
ATOM      5  C   UNL     1       2.292   6.144  20.029  0.00  0.00    +0.000 A 
ATOM      6  N   UNL     1       1.602   6.677  21.019  0.00  0.00    +0.000 NA
ATOM      7  C   UNL     1       1.252   7.939  20.605  0.00  0.00    +0.000 A 
ATOM      8  C   UNL     1       0.509   8.940  21.238  0.00  0.00    +0.000 A 
ATOM      9  C   UNL     1       0.217  10.143  20.544  0.00  0.00    +0.000 A 
ATOM     10  H   UNL     1       2.871   6.870  18.115  0.00  0.00    +0.000 HD
ENDROOT
BRANCH   5  11
ATOM     11  C   UNL     1       2.925   4.778  19.968  0.00  0.00    +0.000 C 
ATOM     12  C   UNL     1       2.238   3.793  20.922  0.00  0.00    +0.000 C 
ATOM     13  C   UNL     1       0.880   3.308  20.416  0.00  0.00    +0.000 C 
ATOM     14  C   UNL     1       0.955   2.762  18.994  0.00  0.00    +0.000 C 
ATOM     15  C   UNL     1       1.625   3.731  18.025  0.00  0.00    +0.000 C 
ATOM     16  C   UNL     1       2.977   4.221  18.540  0.00  0.00    +0.000 C 
ENDBRANCH   5  11
BRANCH   9  17
ATOM     17  N   UNL     1      -0.697  11.020  21.171  0.00  0.00    +0.000 N 
ATOM     18  C   UNL     1      -0.731  11.171  22.549  0.00  0.00    +0.000 C 
ATOM     19  O   UNL     1      -0.045  10.546  23.351  0.00  0.00    +0.000 OA
ATOM     20  H   UNL     1      -1.028  11.777  20.588  0.00  0.00    +0.000 HD
BRANCH  18  21
ATOM     21  C   UNL     1      -1.601  12.263  23.065  0.00  0.00    +0.000 A 
ATOM     22  C   UNL     1      -2.929  12.036  23.442  0.00  0.00    +0.000 A 
ATOM     23  C   UNL     1      -3.695  13.089  23.957  0.00  0.00    +0.000 A 
ATOM     24  C   UNL     1      -3.134  14.360  24.090  0.00  0.00    +0.000 A 
ATOM     25 BR   UNL     1      -4.169  15.772  24.806  0.00  0.00    +0.000 Br
ATOM     26  C   UNL     1      -1.815  14.593  23.718  0.00  0.00    +0.000 A 
ATOM     27  C   UNL     1      -1.046  13.544  23.206  0.00  0.00    +0.000 A 
ENDBRANCH  18  21
ENDBRANCH   9  17
BRANCH   1  28
ATOM     28  N   UNL     1       0.457  11.617  18.505  0.00  0.00    +0.000 N 
BRANCH  28  30
ATOM     29  C   UNL     1      -1.769  10.751  17.680  0.00  0.00    +0.000 C 
ATOM     30  C   UNL     1      -0.916  11.947  18.055  0.00  0.00    +0.000 C 
ENDBRANCH  28  30
BRANCH  28  31
ATOM     31  C   UNL     1       1.325  12.767  18.872  0.00  0.00    +0.000 C 
ATOM     32  C   UNL     1       2.634  12.882  18.108  0.00  0.00    +0.000 C 
ENDBRANCH  28  31
ENDBRANCH   1  28
TORSDOF 6
ENDMDL
MODEL 2
REMARK VINA RESULT:      -8.3      1.053      1.424
REMARK  Name = 
REMARK  8 active torsions:
REMARK  status: ('A' for Active; 'I' for Inactive)
REMARK    1  A    between atoms: C_1  and  C_2
REMARK    2  A    between atoms: C_2  and  N_3
REMARK    3  A    between atoms: N_3  and  C_4
REMARK    4  A    between atoms: N_3  and  C_6
REMARK    5  A    between atoms: C_4  and  C_5
REMARK    6  A    between atoms: C_10  and  C_11
REMARK    7  A    between atoms: C_20  and  N_21
REMARK    8  A    between atoms: C_22  and  C_24
REMARK                            x       y       z     vdW  Elec       q    Type
REMARK                         _______ _______ _______ _____ _____    ______ ____
ROOT
ATOM      1  C   UNL     1       0.294  10.845  19.144  0.00  0.00    +0.000 A 
ATOM      2  C   UNL     1       1.146   9.903  18.502  0.00  0.00    +0.000 A 
ATOM      3  C   UNL     1       1.519   8.722  19.162  0.00  0.00    +0.000 A 
ATOM      4  N   UNL     1       2.276   7.650  18.774  0.00  0.00    +0.000 N 
ATOM      5  C   UNL     1       2.305   6.739  19.804  0.00  0.00    +0.000 A 
ATOM      6  N   UNL     1       1.613   7.193  20.831  0.00  0.00    +0.000 NA
ATOM      7  C   UNL     1       1.128   8.422  20.453  0.00  0.00    +0.000 A 
ATOM      8  C   UNL     1       0.323   9.341  21.134  0.00  0.00    +0.000 A 
ATOM      9  C   UNL     1      -0.111  10.519  20.472  0.00  0.00    +0.000 A 
ATOM     10  H   UNL     1       2.725   7.539  17.878  0.00  0.00    +0.000 HD
ENDROOT
BRANCH   5  11
ATOM     11  C   UNL     1       3.059   5.440  19.694  0.00  0.00    +0.000 C 
ATOM     12  C   UNL     1       2.500   4.379  20.649  0.00  0.00    +0.000 C 
ATOM     13  C   UNL     1       1.176   3.778  20.177  0.00  0.00    +0.000 C 
ATOM     14  C   UNL     1       1.253   3.266  18.743  0.00  0.00    +0.000 C 
ATOM     15  C   UNL     1       1.796   4.310  17.773  0.00  0.00    +0.000 C 
ATOM     16  C   UNL     1       3.114   4.916  18.253  0.00  0.00    +0.000 C 
ENDBRANCH   5  11
BRANCH   9  17
ATOM     17  N   UNL     1      -1.074  11.299  21.152  0.00  0.00    +0.000 N 
ATOM     18  C   UNL     1      -0.713  12.414  21.894  0.00  0.00    +0.000 C 
ATOM     19  O   UNL     1       0.435  12.800  22.087  0.00  0.00    +0.000 OA
ATOM     20  H   UNL     1      -2.008  11.247  20.772  0.00  0.00    +0.000 HD
BRANCH  18  21
ATOM     21  C   UNL     1      -1.835  13.254  22.396  0.00  0.00    +0.000 A 
ATOM     22  C   UNL     1      -1.817  14.650  22.291  0.00  0.00    +0.000 A 
ATOM     23  C   UNL     1      -2.913  15.394  22.744  0.00  0.00    +0.000 A 
ATOM     24  C   UNL     1      -4.017  14.744  23.300  0.00  0.00    +0.000 A 
ATOM     25 BR   UNL     1      -5.502  15.755  23.890  0.00  0.00    +0.000 Br
ATOM     26  C   UNL     1      -4.042  13.358  23.405  0.00  0.00    +0.000 A 
ATOM     27  C   UNL     1      -2.950  12.611  22.952  0.00  0.00    +0.000 A 
ENDBRANCH  18  21
ENDBRANCH   9  17
BRANCH   1  28
ATOM     28  N   UNL     1      -0.102  12.033  18.447  0.00  0.00    +0.000 N 
BRANCH  28  30
ATOM     29  C   UNL     1      -2.261  11.166  17.459  0.00  0.00    +0.000 C 
ATOM     30  C   UNL     1      -1.535  12.292  18.168  0.00  0.00    +0.000 C 
ENDBRANCH  28  30
BRANCH  28  31
ATOM     31  C   UNL     1       0.747  13.225  18.701  0.00  0.00    +0.000 C 
ATOM     32  C   UNL     1       0.006  14.536  18.910  0.00  0.00    +0.000 C 
ENDBRANCH  28  31
ENDBRANCH   1  28
TORSDOF 6
ENDMDL
MODEL 3
REMARK VINA RESULT:      -8.2      1.179      2.001
REMARK  Name = 
REMARK  8 active torsions:
REMARK  status: ('A' for Active; 'I' for Inactive)
REMARK    1  A    between atoms: C_1  and  C_2
REMARK    2  A    between atoms: C_2  and  N_3
REMARK    3  A    between atoms: N_3  and  C_4
REMARK    4  A    between atoms: N_3  and  C_6
REMARK    5  A    between atoms: C_4  and  C_5
REMARK    6  A    between atoms: C_10  and  C_11
REMARK    7  A    between atoms: C_20  and  N_21
REMARK    8  A    between atoms: C_22  and  C_24
REMARK                            x       y       z     vdW  Elec       q    Type
REMARK                         _______ _______ _______ _____ _____    ______ ____
ROOT
ATOM      1  C   UNL     1       0.073  11.007  19.304  0.00  0.00    +0.000 A 
ATOM      2  C   UNL     1       0.833  10.040  18.588  0.00  0.00    +0.000 A 
ATOM      3  C   UNL     1       1.334   8.906  19.245  0.00  0.00    +0.000 A 
ATOM      4  N   UNL     1       2.044   7.823  18.802  0.00  0.00    +0.000 N 
ATOM      5  C   UNL     1       2.258   6.976  19.863  0.00  0.00    +0.000 A 
ATOM      6  N   UNL     1       1.728   7.480  20.961  0.00  0.00    +0.000 NA
ATOM      7  C   UNL     1       1.160   8.677  20.597  0.00  0.00    +0.000 A 
ATOM      8  C   UNL     1       0.453   9.623  21.345  0.00  0.00    +0.000 A 
ATOM      9  C   UNL     1      -0.108  10.754  20.696  0.00  0.00    +0.000 A 
ATOM     10  H   UNL     1       2.348   7.666  17.852  0.00  0.00    +0.000 HD
ENDROOT
BRANCH   5  11
ATOM     11  C   UNL     1       3.015   5.683  19.706  0.00  0.00    +0.000 C 
ATOM     12  C   UNL     1       2.496   4.604  20.664  0.00  0.00    +0.000 C 
ATOM     13  C   UNL     1       1.159   4.002  20.229  0.00  0.00    +0.000 C 
ATOM     14  C   UNL     1       1.189   3.513  18.786  0.00  0.00    +0.000 C 
ATOM     15  C   UNL     1       1.692   4.575  17.813  0.00  0.00    +0.000 C 
ATOM     16  C   UNL     1       3.022   5.181  18.256  0.00  0.00    +0.000 C 
ENDBRANCH   5  11
BRANCH   9  17
ATOM     17  N   UNL     1      -0.968  11.559  21.477  0.00  0.00    +0.000 N 
ATOM     18  C   UNL     1      -0.525  12.731  22.073  0.00  0.00    +0.000 C 
ATOM     19  O   UNL     1       0.626  13.153  22.043  0.00  0.00    +0.000 OA
ATOM     20  H   UNL     1      -1.951  11.461  21.265  0.00  0.00    +0.000 HD
BRANCH  18  21
ATOM     21  C   UNL     1      -1.573  13.580  22.701  0.00  0.00    +0.000 A 
ATOM     22  C   UNL     1      -1.253  14.618  23.584  0.00  0.00    +0.000 A 
ATOM     23  C   UNL     1      -2.274  15.414  24.120  0.00  0.00    +0.000 A 
ATOM     24  C   UNL     1      -3.604  15.169  23.774  0.00  0.00    +0.000 A 
ATOM     25 BR   UNL     1      -4.974  16.262  24.485  0.00  0.00    +0.000 Br
ATOM     26  C   UNL     1      -3.929  14.141  22.896  0.00  0.00    +0.000 A 
ATOM     27  C   UNL     1      -2.913  13.346  22.358  0.00  0.00    +0.000 A 
ENDBRANCH  18  21
ENDBRANCH   9  17
BRANCH   1  28
ATOM     28  N   UNL     1      -0.457  12.146  18.615  0.00  0.00    +0.000 N 
BRANCH  28  30
ATOM     29  C   UNL     1      -0.102  14.642  18.798  0.00  0.00    +0.000 C 
ATOM     30  C   UNL     1       0.415  13.304  18.305  0.00  0.00    +0.000 C 
ENDBRANCH  28  30
BRANCH  28  31
ATOM     31  C   UNL     1      -1.528  11.845  17.630  0.00  0.00    +0.000 C 
ATOM     32  C   UNL     1      -2.914  11.609  18.208  0.00  0.00    +0.000 C 
ENDBRANCH  28  31
ENDBRANCH   1  28
TORSDOF 6
ENDMDL
MODEL 4
REMARK VINA RESULT:      -8.1      4.216      8.459
REMARK  Name = 
REMARK  8 active torsions:
REMARK  status: ('A' for Active; 'I' for Inactive)
REMARK    1  A    between atoms: C_1  and  C_2
REMARK    2  A    between atoms: C_2  and  N_3
REMARK    3  A    between atoms: N_3  and  C_4
REMARK    4  A    between atoms: N_3  and  C_6
REMARK    5  A    between atoms: C_4  and  C_5
REMARK    6  A    between atoms: C_10  and  C_11
REMARK    7  A    between atoms: C_20  and  N_21
REMARK    8  A    between atoms: C_22  and  C_24
REMARK                            x       y       z     vdW  Elec       q    Type
REMARK                         _______ _______ _______ _____ _____    ______ ____
ROOT
ATOM      1  C   UNL     1      -0.209  12.006  19.101  0.00  0.00    +0.000 A 
ATOM      2  C   UNL     1      -1.395  12.747  19.366  0.00  0.00    +0.000 A 
ATOM      3  C   UNL     1      -2.644  12.253  18.959  0.00  0.00    +0.000 A 
ATOM      4  N   UNL     1      -3.918  12.728  19.116  0.00  0.00    +0.000 N 
ATOM      5  C   UNL     1      -4.791  11.832  18.547  0.00  0.00    +0.000 A 
ATOM      6  N   UNL     1      -4.127  10.820  18.023  0.00  0.00    +0.000 NA
ATOM      7  C   UNL     1      -2.798  11.069  18.263  0.00  0.00    +0.000 A 
ATOM      8  C   UNL     1      -1.653  10.331  17.947  0.00  0.00    +0.000 A 
ATOM      9  C   UNL     1      -0.382  10.782  18.390  0.00  0.00    +0.000 A 
ATOM     10  H   UNL     1      -4.174  13.584  19.585  0.00  0.00    +0.000 HD
ENDROOT
BRANCH   5  11
ATOM     11  C   UNL     1      -6.280  12.063  18.552  0.00  0.00    +0.000 C 
ATOM     12  C   UNL     1      -7.057  10.744  18.460  0.00  0.00    +0.000 C 
ATOM     13  C   UNL     1      -7.064   9.955  19.769  0.00  0.00    +0.000 C 
ATOM     14  C   UNL     1      -7.521  10.801  20.952  0.00  0.00    +0.000 C 
ATOM     15  C   UNL     1      -6.753  12.114  21.068  0.00  0.00    +0.000 C 
ATOM     16  C   UNL     1      -6.739  12.895  19.756  0.00  0.00    +0.000 C 
ENDBRANCH   5  11
BRANCH   9  17
ATOM     17  N   UNL     1       0.698   9.889  18.203  0.00  0.00    +0.000 N 
ATOM     18  C   UNL     1       1.142   9.062  19.224  0.00  0.00    +0.000 C 
ATOM     19  O   UNL     1       0.709   9.052  20.372  0.00  0.00    +0.000 OA
ATOM     20  H   UNL     1       0.860   9.613  17.245  0.00  0.00    +0.000 HD
BRANCH  18  21
ATOM     21  C   UNL     1       2.152   8.038  18.842  0.00  0.00    +0.000 A 
ATOM     22  C   UNL     1       2.945   8.173  17.696  0.00  0.00    +0.000 A 
ATOM     23  C   UNL     1       3.907   7.200  17.399  0.00  0.00    +0.000 A 
ATOM     24  C   UNL     1       4.073   6.101  18.244  0.00  0.00    +0.000 A 
ATOM     25 BR   UNL     1       5.390   4.803  17.848  0.00  0.00    +0.000 Br
ATOM     26  C   UNL     1       3.291   5.962  19.385  0.00  0.00    +0.000 A 
ATOM     27  C   UNL     1       2.330   6.932  19.686  0.00  0.00    +0.000 A 
ENDBRANCH  18  21
ENDBRANCH   9  17
BRANCH   1  28
ATOM     28  N   UNL     1       1.056  12.509  19.547  0.00  0.00    +0.000 N 
BRANCH  28  30
ATOM     29  C   UNL     1       2.942  12.568  17.865  0.00  0.00    +0.000 C 
ATOM     30  C   UNL     1       1.893  13.336  18.645  0.00  0.00    +0.000 C 
ENDBRANCH  28  30
BRANCH  28  31
ATOM     31  C   UNL     1       1.131  12.832  20.996  0.00  0.00    +0.000 C 
ATOM     32  C   UNL     1       1.615  14.231  21.340  0.00  0.00    +0.000 C 
ENDBRANCH  28  31
ENDBRANCH   1  28
TORSDOF 6
ENDMDL
MODEL 5
REMARK VINA RESULT:      -8.0      1.026      1.664
REMARK  Name = 
REMARK  8 active torsions:
REMARK  status: ('A' for Active; 'I' for Inactive)
REMARK    1  A    between atoms: C_1  and  C_2
REMARK    2  A    between atoms: C_2  and  N_3
REMARK    3  A    between atoms: N_3  and  C_4
REMARK    4  A    between atoms: N_3  and  C_6
REMARK    5  A    between atoms: C_4  and  C_5
REMARK    6  A    between atoms: C_10  and  C_11
REMARK    7  A    between atoms: C_20  and  N_21
REMARK    8  A    between atoms: C_22  and  C_24
REMARK                            x       y       z     vdW  Elec       q    Type
REMARK                         _______ _______ _______ _____ _____    ______ ____
ROOT
ATOM      1  C   UNL     1       1.041   9.738  19.264  0.00  0.00    +0.000 A 
ATOM      2  C   UNL     1       1.870   8.777  18.618  0.00  0.00    +0.000 A 
ATOM      3  C   UNL     1       2.137   7.545  19.235  0.00  0.00    +0.000 A 
ATOM      4  N   UNL     1       2.851   6.449  18.831  0.00  0.00    +0.000 N 
ATOM      5  C   UNL     1       2.770   5.489  19.812  0.00  0.00    +0.000 A 
ATOM      6  N   UNL     1       2.050   5.934  20.825  0.00  0.00    +0.000 NA
ATOM      7  C   UNL     1       1.659   7.207  20.486  0.00  0.00    +0.000 A 
ATOM      8  C   UNL     1       0.874   8.139  21.172  0.00  0.00    +0.000 A 
ATOM      9  C   UNL     1       0.546   9.372  20.551  0.00  0.00    +0.000 A 
ATOM     10  H   UNL     1       3.341   6.355  17.954  0.00  0.00    +0.000 HD
ENDROOT
BRANCH   5  11
ATOM     11  C   UNL     1       3.452   4.154  19.673  0.00  0.00    +0.000 C 
ATOM     12  C   UNL     1       2.823   3.099  20.592  0.00  0.00    +0.000 C 
ATOM     13  C   UNL     1       1.474   2.586  20.089  0.00  0.00    +0.000 C 
ATOM     14  C   UNL     1       1.540   2.111  18.641  0.00  0.00    +0.000 C 
ATOM     15  C   UNL     1       2.153   3.150  17.707  0.00  0.00    +0.000 C 
ATOM     16  C   UNL     1       3.496   3.667  18.219  0.00  0.00    +0.000 C 
ENDBRANCH   5  11
BRANCH   9  17
ATOM     17  N   UNL     1      -0.406  10.175  21.219  0.00  0.00    +0.000 N 
ATOM     18  C   UNL     1      -0.076  11.424  21.725  0.00  0.00    +0.000 C 
ATOM     19  O   UNL     1       1.042  11.927  21.705  0.00  0.00    +0.000 OA
ATOM     20  H   UNL     1      -1.368   9.985  20.977  0.00  0.00    +0.000 HD
BRANCH  18  21
ATOM     21  C   UNL     1      -1.211  12.244  22.231  0.00  0.00    +0.000 A 
ATOM     22  C   UNL     1      -2.154  11.729  23.127  0.00  0.00    +0.000 A 
ATOM     23  C   UNL     1      -3.183  12.552  23.602  0.00  0.00    +0.000 A 
ATOM     24  C   UNL     1      -3.264  13.880  23.181  0.00  0.00    +0.000 A 
ATOM     25 BR   UNL     1      -4.642  14.992  23.845  0.00  0.00    +0.000 Br
ATOM     26  C   UNL     1      -2.329  14.399  22.293  0.00  0.00    +0.000 A 
ATOM     27  C   UNL     1      -1.300  13.581  21.817  0.00  0.00    +0.000 A 
ENDBRANCH  18  21
ENDBRANCH   9  17
BRANCH   1  28
ATOM     28  N   UNL     1       0.753  10.980  18.611  0.00  0.00    +0.000 N 
BRANCH  28  30
ATOM     29  C   UNL     1       2.145  13.085  18.741  0.00  0.00    +0.000 C 
ATOM     30  C   UNL     1       1.848  11.785  18.020  0.00  0.00    +0.000 C 
ENDBRANCH  28  30
BRANCH  28  31
ATOM     31  C   UNL     1      -0.558  11.036  17.913  0.00  0.00    +0.000 C 
ATOM     32  C   UNL     1      -1.475  12.180  18.314  0.00  0.00    +0.000 C 
ENDBRANCH  28  31
ENDBRANCH   1  28
TORSDOF 6
ENDMDL
MODEL 6
REMARK VINA RESULT:      -7.9      0.680      1.156
REMARK  Name = 
REMARK  8 active torsions:
REMARK  status: ('A' for Active; 'I' for Inactive)
REMARK    1  A    between atoms: C_1  and  C_2
REMARK    2  A    between atoms: C_2  and  N_3
REMARK    3  A    between atoms: N_3  and  C_4
REMARK    4  A    between atoms: N_3  and  C_6
REMARK    5  A    between atoms: C_4  and  C_5
REMARK    6  A    between atoms: C_10  and  C_11
REMARK    7  A    between atoms: C_20  and  N_21
REMARK    8  A    between atoms: C_22  and  C_24
REMARK                            x       y       z     vdW  Elec       q    Type
REMARK                         _______ _______ _______ _____ _____    ______ ____
ROOT
ATOM      1  C   UNL     1       0.905  10.407  19.425  0.00  0.00    +0.000 A 
ATOM      2  C   UNL     1       1.794   9.424  18.906  0.00  0.00    +0.000 A 
ATOM      3  C   UNL     1       1.870   8.155  19.501  0.00  0.00    +0.000 A 
ATOM      4  N   UNL     1       2.592   7.035  19.190  0.00  0.00    +0.000 N 
ATOM      5  C   UNL     1       2.271   6.045  20.089  0.00  0.00    +0.000 A 
ATOM      6  N   UNL     1       1.390   6.493  20.963  0.00  0.00    +0.000 NA
ATOM      7  C   UNL     1       1.140   7.799  20.619  0.00  0.00    +0.000 A 
ATOM      8  C   UNL     1       0.284   8.750  21.184  0.00  0.00    +0.000 A 
ATOM      9  C   UNL     1       0.149  10.024  20.572  0.00  0.00    +0.000 A 
ATOM     10  H   UNL     1       3.239   6.945  18.422  0.00  0.00    +0.000 HD
ENDROOT
BRANCH   5  11
ATOM     11  C   UNL     1       2.897   4.677  20.019  0.00  0.00    +0.000 C 
ATOM     12  C   UNL     1       2.154   3.669  20.905  0.00  0.00    +0.000 C 
ATOM     13  C   UNL     1       0.822   3.211  20.313  0.00  0.00    +0.000 C 
ATOM     14  C   UNL     1       0.969   2.707  18.881  0.00  0.00    +0.000 C 
ATOM     15  C   UNL     1       1.696   3.699  17.979  0.00  0.00    +0.000 C 
ATOM     16  C   UNL     1       3.021   4.163  18.579  0.00  0.00    +0.000 C 
ENDBRANCH   5  11
BRANCH   9  17
ATOM     17  N   UNL     1      -0.873  10.857  21.083  0.00  0.00    +0.000 N 
ATOM     18  C   UNL     1      -0.915  11.219  22.421  0.00  0.00    +0.000 C 
ATOM     19  O   UNL     1      -0.140  10.828  23.288  0.00  0.00    +0.000 OA
ATOM     20  H   UNL     1      -1.311  11.459  20.400  0.00  0.00    +0.000 HD
BRANCH  18  21
ATOM     21  C   UNL     1      -1.923  12.250  22.787  0.00  0.00    +0.000 A 
ATOM     22  C   UNL     1      -1.877  13.548  22.264  0.00  0.00    +0.000 A 
ATOM     23  C   UNL     1      -2.871  14.472  22.611  0.00  0.00    +0.000 A 
ATOM     24  C   UNL     1      -3.901  14.097  23.475  0.00  0.00    +0.000 A 
ATOM     25 BR   UNL     1      -5.252  15.344  23.921  0.00  0.00    +0.000 Br
ATOM     26  C   UNL     1      -3.954  12.810  23.997  0.00  0.00    +0.000 A 
ATOM     27  C   UNL     1      -2.965  11.884  23.652  0.00  0.00    +0.000 A 
ENDBRANCH  18  21
ENDBRANCH   9  17
BRANCH   1  28
ATOM     28  N   UNL     1       0.816  11.689  18.791  0.00  0.00    +0.000 N 
BRANCH  28  30
ATOM     29  C   UNL     1      -0.665  13.733  18.657  0.00  0.00    +0.000 C 
ATOM     30  C   UNL     1      -0.505  12.245  18.412  0.00  0.00    +0.000 C 
ENDBRANCH  28  30
BRANCH  28  31
ATOM     31  C   UNL     1       1.851  12.671  19.205  0.00  0.00    +0.000 C 
ATOM     32  C   UNL     1       2.824  13.107  18.121  0.00  0.00    +0.000 C 
ENDBRANCH  28  31
ENDBRANCH   1  28
TORSDOF 6
ENDMDL
MODEL 7
REMARK VINA RESULT:      -7.9      4.219      8.480
REMARK  Name = 
REMARK  8 active torsions:
REMARK  status: ('A' for Active; 'I' for Inactive)
REMARK    1  A    between atoms: C_1  and  C_2
REMARK    2  A    between atoms: C_2  and  N_3
REMARK    3  A    between atoms: N_3  and  C_4
REMARK    4  A    between atoms: N_3  and  C_6
REMARK    5  A    between atoms: C_4  and  C_5
REMARK    6  A    between atoms: C_10  and  C_11
REMARK    7  A    between atoms: C_20  and  N_21
REMARK    8  A    between atoms: C_22  and  C_24
REMARK                            x       y       z     vdW  Elec       q    Type
REMARK                         _______ _______ _______ _____ _____    ______ ____
ROOT
ATOM      1  C   UNL     1      -0.170  11.845  18.853  0.00  0.00    +0.000 A 
ATOM      2  C   UNL     1      -1.367  12.590  19.051  0.00  0.00    +0.000 A 
ATOM      3  C   UNL     1      -2.605  12.056  18.659  0.00  0.00    +0.000 A 
ATOM      4  N   UNL     1      -3.885  12.528  18.765  0.00  0.00    +0.000 N 
ATOM      5  C   UNL     1      -4.742  11.587  18.245  0.00  0.00    +0.000 A 
ATOM      6  N   UNL     1      -4.060  10.549  17.800  0.00  0.00    +0.000 NA
ATOM      7  C   UNL     1      -2.737  10.828  18.042  0.00  0.00    +0.000 A 
ATOM      8  C   UNL     1      -1.581  10.081  17.793  0.00  0.00    +0.000 A 
ATOM      9  C   UNL     1      -0.322  10.573  18.224  0.00  0.00    +0.000 A 
ATOM     10  H   UNL     1      -4.156  13.411  19.171  0.00  0.00    +0.000 HD
ENDROOT
BRANCH   5  11
ATOM     11  C   UNL     1      -6.232  11.803  18.212  0.00  0.00    +0.000 C 
ATOM     12  C   UNL     1      -6.998  10.514  18.533  0.00  0.00    +0.000 C 
ATOM     13  C   UNL     1      -6.972  10.150  20.017  0.00  0.00    +0.000 C 
ATOM     14  C   UNL     1      -7.415  11.309  20.904  0.00  0.00    +0.000 C 
ATOM     15  C   UNL     1      -6.658  12.600  20.609  0.00  0.00    +0.000 C 
ATOM     16  C   UNL     1      -6.677  12.954  19.123  0.00  0.00    +0.000 C 
ENDBRANCH   5  11
BRANCH   9  17
ATOM     17  N   UNL     1       0.769   9.681  18.114  0.00  0.00    +0.000 N 
ATOM     18  C   UNL     1       1.203   8.927  19.193  0.00  0.00    +0.000 C 
ATOM     19  O   UNL     1       0.750   8.987  20.332  0.00  0.00    +0.000 OA
ATOM     20  H   UNL     1       0.950   9.345  17.179  0.00  0.00    +0.000 HD
BRANCH  18  21
ATOM     21  C   UNL     1       2.229   7.890  18.895  0.00  0.00    +0.000 A 
ATOM     22  C   UNL     1       2.399   6.763  19.707  0.00  0.00    +0.000 A 
ATOM     23  C   UNL     1       3.353   5.797  19.363  0.00  0.00    +0.000 A 
ATOM     24  C   UNL     1       4.130   5.961  18.215  0.00  0.00    +0.000 A 
ATOM     25 BR   UNL     1       5.401   4.642  17.746  0.00  0.00    +0.000 Br
ATOM     26  C   UNL     1       3.965   7.077  17.403  0.00  0.00    +0.000 A 
ATOM     27  C   UNL     1       3.012   8.043  17.742  0.00  0.00    +0.000 A 
ENDBRANCH  18  21
ENDBRANCH   9  17
BRANCH   1  28
ATOM     28  N   UNL     1       1.083  12.389  19.283  0.00  0.00    +0.000 N 
BRANCH  28  30
ATOM     29  C   UNL     1       2.128  14.656  18.889  0.00  0.00    +0.000 C 
ATOM     30  C   UNL     1       1.875  13.253  18.375  0.00  0.00    +0.000 C 
ENDBRANCH  28  30
BRANCH  28  31
ATOM     31  C   UNL     1       1.171  12.701  20.734  0.00  0.00    +0.000 C 
ATOM     32  C   UNL     1       0.101  12.074  21.614  0.00  0.00    +0.000 C 
ENDBRANCH  28  31
ENDBRANCH   1  28
TORSDOF 6
ENDMDL
MODEL 8
REMARK VINA RESULT:      -7.9      1.061      1.101
REMARK  Name = 
REMARK  8 active torsions:
REMARK  status: ('A' for Active; 'I' for Inactive)
REMARK    1  A    between atoms: C_1  and  C_2
REMARK    2  A    between atoms: C_2  and  N_3
REMARK    3  A    between atoms: N_3  and  C_4
REMARK    4  A    between atoms: N_3  and  C_6
REMARK    5  A    between atoms: C_4  and  C_5
REMARK    6  A    between atoms: C_10  and  C_11
REMARK    7  A    between atoms: C_20  and  N_21
REMARK    8  A    between atoms: C_22  and  C_24
REMARK                            x       y       z     vdW  Elec       q    Type
REMARK                         _______ _______ _______ _____ _____    ______ ____
ROOT
ATOM      1  C   UNL     1       0.074  10.892  19.072  0.00  0.00    +0.000 A 
ATOM      2  C   UNL     1       0.823   9.913  18.360  0.00  0.00    +0.000 A 
ATOM      3  C   UNL     1       1.362   8.806  19.035  0.00  0.00    +0.000 A 
ATOM      4  N   UNL     1       2.073   7.720  18.601  0.00  0.00    +0.000 N 
ATOM      5  C   UNL     1       2.334   6.909  19.680  0.00  0.00    +0.000 A 
ATOM      6  N   UNL     1       1.834   7.441  20.779  0.00  0.00    +0.000 NA
ATOM      7  C   UNL     1       1.238   8.618  20.398  0.00  0.00    +0.000 A 
ATOM      8  C   UNL     1       0.543   9.578  21.141  0.00  0.00    +0.000 A 
ATOM      9  C   UNL     1      -0.056  10.680  20.477  0.00  0.00    +0.000 A 
ATOM     10  H   UNL     1       2.345   7.537  17.647  0.00  0.00    +0.000 HD
ENDROOT
BRANCH   5  11
ATOM     11  C   UNL     1       3.104   5.622  19.537  0.00  0.00    +0.000 C 
ATOM     12  C   UNL     1       2.664   4.582  20.575  0.00  0.00    +0.000 C 
ATOM     13  C   UNL     1       1.315   3.940  20.254  0.00  0.00    +0.000 C 
ATOM     14  C   UNL     1       1.264   3.382  18.835  0.00  0.00    +0.000 C 
ATOM     15  C   UNL     1       1.688   4.404  17.785  0.00  0.00    +0.000 C 
ATOM     16  C   UNL     1       3.031   5.051  18.115  0.00  0.00    +0.000 C 
ENDBRANCH   5  11
BRANCH   9  17
ATOM     17  N   UNL     1      -0.900  11.498  21.261  0.00  0.00    +0.000 N 
ATOM     18  C   UNL     1      -0.420  12.624  21.914  0.00  0.00    +0.000 C 
ATOM     19  O   UNL     1       0.751  12.990  21.934  0.00  0.00    +0.000 OA
ATOM     20  H   UNL     1      -1.879  11.457  21.016  0.00  0.00    +0.000 HD
BRANCH  18  21
ATOM     21  C   UNL     1      -1.445  13.501  22.542  0.00  0.00    +0.000 A 
ATOM     22  C   UNL     1      -2.653  12.994  23.032  0.00  0.00    +0.000 A 
ATOM     23  C   UNL     1      -3.570  13.855  23.649  0.00  0.00    +0.000 A 
ATOM     24  C   UNL     1      -3.277  15.214  23.770  0.00  0.00    +0.000 A 
ATOM     25 BR   UNL     1      -4.510  16.367  24.623  0.00  0.00    +0.000 Br
ATOM     26  C   UNL     1      -2.078  15.725  23.287  0.00  0.00    +0.000 A 
ATOM     27  C   UNL     1      -1.159  14.869  22.673  0.00  0.00    +0.000 A 
ENDBRANCH  18  21
ENDBRANCH   9  17
BRANCH   1  28
ATOM     28  N   UNL     1      -0.495  12.001  18.366  0.00  0.00    +0.000 N 
BRANCH  28  30
ATOM     29  C   UNL     1      -2.484  11.439  16.912  0.00  0.00    +0.000 C 
ATOM     30  C   UNL     1      -1.962  12.093  18.176  0.00  0.00    +0.000 C 
ENDBRANCH  28  30
BRANCH  28  31
ATOM     31  C   UNL     1       0.232  13.287  18.523  0.00  0.00    +0.000 C 
ATOM     32  C   UNL     1       1.734  13.233  18.297  0.00  0.00    +0.000 C 
ENDBRANCH  28  31
ENDBRANCH   1  28
TORSDOF 6
ENDMDL
MODEL 9
REMARK VINA RESULT:      -7.8      0.988      1.707
REMARK  Name = 
REMARK  8 active torsions:
REMARK  status: ('A' for Active; 'I' for Inactive)
REMARK    1  A    between atoms: C_1  and  C_2
REMARK    2  A    between atoms: C_2  and  N_3
REMARK    3  A    between atoms: N_3  and  C_4
REMARK    4  A    between atoms: N_3  and  C_6
REMARK    5  A    between atoms: C_4  and  C_5
REMARK    6  A    between atoms: C_10  and  C_11
REMARK    7  A    between atoms: C_20  and  N_21
REMARK    8  A    between atoms: C_22  and  C_24
REMARK                            x       y       z     vdW  Elec       q    Type
REMARK                         _______ _______ _______ _____ _____    ______ ____
ROOT
ATOM      1  C   UNL     1       0.383  10.718  19.828  0.00  0.00    +0.000 A 
ATOM      2  C   UNL     1       1.356   9.854  19.252  0.00  0.00    +0.000 A 
ATOM      3  C   UNL     1       1.541   8.559  19.760  0.00  0.00    +0.000 A 
ATOM      4  N   UNL     1       2.359   7.529  19.381  0.00  0.00    +0.000 N 
ATOM      5  C   UNL     1       2.122   6.456  20.206  0.00  0.00    +0.000 A 
ATOM      6  N   UNL     1       1.202   6.765  21.101  0.00  0.00    +0.000 NA
ATOM      7  C   UNL     1       0.840   8.064  20.843  0.00  0.00    +0.000 A 
ATOM      8  C   UNL     1      -0.098   8.896  21.463  0.00  0.00    +0.000 A 
ATOM      9  C   UNL     1      -0.342  10.192  20.939  0.00  0.00    +0.000 A 
ATOM     10  H   UNL     1       3.014   7.549  18.614  0.00  0.00    +0.000 HD
ENDROOT
BRANCH   5  11
ATOM     11  C   UNL     1       2.865   5.155  20.050  0.00  0.00    +0.000 C 
ATOM     12  C   UNL     1       2.254   4.046  20.915  0.00  0.00    +0.000 C 
ATOM     13  C   UNL     1       0.945   3.493  20.351  0.00  0.00    +0.000 C 
ATOM     14  C   UNL     1       1.078   3.067  18.893  0.00  0.00    +0.000 C 
ATOM     15  C   UNL     1       1.675   4.160  18.012  0.00  0.00    +0.000 C 
ATOM     16  C   UNL     1       2.977   4.717  18.584  0.00  0.00    +0.000 C 
ENDBRANCH   5  11
BRANCH   9  17
ATOM     17  N   UNL     1      -1.434  10.896  21.494  0.00  0.00    +0.000 N 
ATOM     18  C   UNL     1      -1.248  11.932  22.397  0.00  0.00    +0.000 C 
ATOM     19  O   UNL     1      -0.166  12.302  22.843  0.00  0.00    +0.000 OA
ATOM     20  H   UNL     1      -2.278  10.878  20.939  0.00  0.00    +0.000 HD
BRANCH  18  21
ATOM     21  C   UNL     1      -2.463  12.714  22.754  0.00  0.00    +0.000 A 
ATOM     22  C   UNL     1      -3.345  12.293  23.756  0.00  0.00    +0.000 A 
ATOM     23  C   UNL     1      -4.455  13.082  24.081  0.00  0.00    +0.000 A 
ATOM     24  C   UNL     1      -4.679  14.283  23.406  0.00  0.00    +0.000 A 
ATOM     25 BR   UNL     1      -6.168  15.355  23.865  0.00  0.00    +0.000 Br
ATOM     26  C   UNL     1      -3.805  14.709  22.411  0.00  0.00    +0.000 A 
ATOM     27  C   UNL     1      -2.695  13.924  22.085  0.00  0.00    +0.000 A 
ENDBRANCH  18  21
ENDBRANCH   9  17
BRANCH   1  28
ATOM     28  N   UNL     1       0.184  12.027  19.281  0.00  0.00    +0.000 N 
BRANCH  28  30
ATOM     29  C   UNL     1       2.066  13.307  18.182  0.00  0.00    +0.000 C 
ATOM     30  C   UNL     1       1.233  13.065  19.425  0.00  0.00    +0.000 C 
ENDBRANCH  28  30
BRANCH  28  31
ATOM     31  C   UNL     1      -0.623  12.074  18.034  0.00  0.00    +0.000 C 
ATOM     32  C   UNL     1      -2.129  11.973  18.214  0.00  0.00    +0.000 C 
ENDBRANCH  28  31
ENDBRANCH   1  28
TORSDOF 6
ENDMDL
