MODEL 1
REMARK VINA RESULT:      -8.5      0.000      0.000
REMARK  Name = 
REMARK  6 active torsions:
REMARK  status: ('A' for Active; 'I' for Inactive)
REMARK    1  A    between atoms: C_1  and  C_2
REMARK    2  A    between atoms: N_4  and  C_5
REMARK    3  A    between atoms: C_8  and  N_9
REMARK    4  A    between atoms: N_13  and  C_14
REMARK    5  A    between atoms: C_14  and  C_15
REMARK    6  A    between atoms: C_24  and  C_25
REMARK                            x       y       z     vdW  Elec       q    Type
REMARK                         _______ _______ _______ _____ _____    ______ ____
ROOT
ATOM      1  N   UNL     1       2.055   6.468  20.902  0.00  0.00    +0.000 N 
ATOM      2  C   UNL     1       2.429   5.419  20.142  0.00  0.00    +0.000 A 
ATOM      3  N   UNL     1       2.478   4.187  20.739  0.00  0.00    +0.000 NA
ATOM      4  C   UNL     1       2.779   3.375  19.750  0.00  0.00    +0.000 A 
ATOM      5  N   UNL     1       2.936   4.096  18.611  0.00  0.00    +0.000 N 
ATOM      6  N   UNL     1       2.725   5.399  18.840  0.00  0.00    +0.000 NA
ATOM      7  H   UNL     1       1.886   6.238  21.872  0.00  0.00    +0.000 HD
ENDROOT
BRANCH   1  11
ATOM      8  C   UNL     1       0.918  10.384  19.725  0.00  0.00    +0.000 A 
ATOM      9  C   UNL     1       1.439   9.471  18.793  0.00  0.00    +0.000 A 
ATOM     10  C   UNL     1       1.777   8.167  19.186  0.00  0.00    +0.000 A 
ATOM     11  C   UNL     1       1.592   7.738  20.505  0.00  0.00    +0.000 A 
ATOM     12  C   UNL     1       0.992   8.633  21.396  0.00  0.00    +0.000 A 
ATOM     13  C   UNL     1       0.658   9.945  21.032  0.00  0.00    +0.000 A 
BRANCH   8  17
ATOM     14  C   UNL     1       1.409  15.276  18.813  0.00  0.00    +0.000 C 
ATOM     15  C   UNL     1       0.918  13.885  18.918  0.00  0.00    +0.000 A 
ATOM     16  C   UNL     1       1.587  12.776  19.381  0.00  0.00    +0.000 A 
ATOM     17  N   UNL     1       0.698  11.729  19.321  0.00  0.00    +0.000 N 
ATOM     18  C   UNL     1      -0.441  12.248  18.745  0.00  0.00    +0.000 A 
ATOM     19  N   UNL     1      -0.344  13.540  18.513  0.00  0.00    +0.000 NA
ENDBRANCH   8  17
BRANCH  13  20
ATOM     20  C   UNL     1      -0.007  10.726  22.035  0.00  0.00    +0.000 C 
ATOM     21  N   UNL     1      -0.543  11.380  22.833  0.00  0.00    +0.000 NA
ENDBRANCH  13  20
ENDBRANCH   1  11
BRANCH   5  22
ATOM     22  C   UNL     1       3.346   3.637  17.296  0.00  0.00    +0.000 C 
BRANCH  22  23
ATOM     23  C   UNL     1       4.751   4.070  16.957  0.00  0.00    +0.000 A 
ATOM     24  C   UNL     1       5.214   4.050  15.631  0.00  0.00    +0.000 A 
ATOM     25  C   UNL     1       6.523   4.429  15.324  0.00  0.00    +0.000 A 
ATOM     26  C   UNL     1       7.382   4.849  16.339  0.00  0.00    +0.000 A 
ATOM     27  C   UNL     1       6.923   4.902  17.652  0.00  0.00    +0.000 A 
ATOM     28 CL   UNL     1       7.975   5.438  18.905  0.00  0.00    +0.000 Cl
ATOM     29  C   UNL     1       5.617   4.520  17.965  0.00  0.00    +0.000 A 
ENDBRANCH  22  23
ENDBRANCH   5  22
TORSDOF 5
ENDMDL
MODEL 2
REMARK VINA RESULT:      -8.4      1.014      1.359
REMARK  Name = 
REMARK  6 active torsions:
REMARK  status: ('A' for Active; 'I' for Inactive)
REMARK    1  A    between atoms: C_1  and  C_2
REMARK    2  A    between atoms: N_4  and  C_5
REMARK    3  A    between atoms: C_8  and  N_9
REMARK    4  A    between atoms: N_13  and  C_14
REMARK    5  A    between atoms: C_14  and  C_15
REMARK    6  A    between atoms: C_24  and  C_25
REMARK                            x       y       z     vdW  Elec       q    Type
REMARK                         _______ _______ _______ _____ _____    ______ ____
ROOT
ATOM      1  N   UNL     1       2.104   6.487  20.892  0.00  0.00    +0.000 N 
ATOM      2  C   UNL     1       2.486   5.439  20.133  0.00  0.00    +0.000 A 
ATOM      3  N   UNL     1       2.550   4.210  20.734  0.00  0.00    +0.000 NA
ATOM      4  C   UNL     1       2.855   3.398  19.746  0.00  0.00    +0.000 A 
ATOM      5  N   UNL     1       3.000   4.116  18.604  0.00  0.00    +0.000 N 
ATOM      6  N   UNL     1       2.777   5.418  18.830  0.00  0.00    +0.000 NA
ATOM      7  H   UNL     1       1.942   6.259  21.863  0.00  0.00    +0.000 HD
ENDROOT
BRANCH   1  11
ATOM      8  C   UNL     1       0.922  10.386  19.706  0.00  0.00    +0.000 A 
ATOM      9  C   UNL     1       1.444   9.474  18.774  0.00  0.00    +0.000 A 
ATOM     10  C   UNL     1       1.797   8.175  19.170  0.00  0.00    +0.000 A 
ATOM     11  C   UNL     1       1.627   7.751  20.492  0.00  0.00    +0.000 A 
ATOM     12  C   UNL     1       1.026   8.644  21.384  0.00  0.00    +0.000 A 
ATOM     13  C   UNL     1       0.677   9.951  21.017  0.00  0.00    +0.000 A 
BRANCH   8  17
ATOM     14  C   UNL     1       1.333  15.292  18.829  0.00  0.00    +0.000 C 
ATOM     15  C   UNL     1       0.872  13.890  18.910  0.00  0.00    +0.000 A 
ATOM     16  C   UNL     1       1.548  12.796  19.397  0.00  0.00    +0.000 A 
ATOM     17  N   UNL     1       0.686  11.728  19.298  0.00  0.00    +0.000 N 
ATOM     18  C   UNL     1      -0.440  12.222  18.678  0.00  0.00    +0.000 A 
ATOM     19  N   UNL     1      -0.365  13.517  18.454  0.00  0.00    +0.000 NA
ENDBRANCH   8  17
BRANCH  13  20
ATOM     20  C   UNL     1       0.013  10.731  22.022  0.00  0.00    +0.000 C 
ATOM     21  N   UNL     1      -0.540  11.342  22.843  0.00  0.00    +0.000 NA
ENDBRANCH  13  20
ENDBRANCH   1  11
BRANCH   5  22
ATOM     22  C   UNL     1       3.409   3.657  17.289  0.00  0.00    +0.000 C 
BRANCH  22  23
ATOM     23  C   UNL     1       4.827   4.057  16.965  0.00  0.00    +0.000 A 
ATOM     24  C   UNL     1       5.771   4.265  17.985  0.00  0.00    +0.000 A 
ATOM     25  C   UNL     1       7.076   4.658  17.681  0.00  0.00    +0.000 A 
ATOM     26  C   UNL     1       7.460   4.832  16.353  0.00  0.00    +0.000 A 
ATOM     27  C   UNL     1       6.541   4.598  15.333  0.00  0.00    +0.000 A 
ATOM     28 CL   UNL     1       7.017   4.794  13.691  0.00  0.00    +0.000 Cl
ATOM     29  C   UNL     1       5.233   4.209  15.631  0.00  0.00    +0.000 A 
ENDBRANCH  22  23
ENDBRANCH   5  22
TORSDOF 5
ENDMDL
MODEL 3
REMARK VINA RESULT:      -8.4      6.299      7.332
REMARK  Name = 
REMARK  6 active torsions:
REMARK  status: ('A' for Active; 'I' for Inactive)
REMARK    1  A    between atoms: C_1  and  C_2
REMARK    2  A    between atoms: N_4  and  C_5
REMARK    3  A    between atoms: C_8  and  N_9
REMARK    4  A    between atoms: N_13  and  C_14
REMARK    5  A    between atoms: C_14  and  C_15
REMARK    6  A    between atoms: C_24  and  C_25
REMARK                            x       y       z     vdW  Elec       q    Type
REMARK                         _______ _______ _______ _____ _____    ______ ____
ROOT
ATOM      1  N   UNL     1       8.992   8.538  19.010  0.00  0.00    +0.000 N 
ATOM      2  C   UNL     1       8.178   7.604  18.478  0.00  0.00    +0.000 A 
ATOM      3  N   UNL     1       8.207   6.348  19.026  0.00  0.00    +0.000 NA
ATOM      4  C   UNL     1       7.266   5.703  18.372  0.00  0.00    +0.000 A 
ATOM      5  N   UNL     1       6.717   6.529  17.446  0.00  0.00    +0.000 N 
ATOM      6  N   UNL     1       7.288   7.741  17.491  0.00  0.00    +0.000 NA
ATOM      7  H   UNL     1       9.588   8.195  19.752  0.00  0.00    +0.000 HD
ENDROOT
BRANCH   1  11
ATOM      8  C   UNL     1       9.062  12.755  18.550  0.00  0.00    +0.000 A 
ATOM      9  C   UNL     1       8.649  11.920  17.499  0.00  0.00    +0.000 A 
ATOM     10  C   UNL     1       8.594  10.529  17.675  0.00  0.00    +0.000 A 
ATOM     11  C   UNL     1       8.934   9.940  18.898  0.00  0.00    +0.000 A 
ATOM     12  C   UNL     1       9.258  10.794  19.956  0.00  0.00    +0.000 A 
ATOM     13  C   UNL     1       9.333  12.186  19.803  0.00  0.00    +0.000 A 
BRANCH   8  17
ATOM     14  C   UNL     1      10.898  17.261  17.393  0.00  0.00    +0.000 C 
ATOM     15  C   UNL     1      10.030  16.131  17.789  0.00  0.00    +0.000 A 
ATOM     16  C   UNL     1      10.338  14.792  17.831  0.00  0.00    +0.000 A 
ATOM     17  N   UNL     1       9.218  14.147  18.302  0.00  0.00    +0.000 N 
ATOM     18  C   UNL     1       8.262  15.129  18.442  0.00  0.00    +0.000 A 
ATOM     19  N   UNL     1       8.727  16.328  18.163  0.00  0.00    +0.000 NA
ENDBRANCH   8  17
BRANCH  13  20
ATOM     20  C   UNL     1       9.618  12.935  20.993  0.00  0.00    +0.000 C 
ATOM     21  N   UNL     1       9.834  13.562  21.949  0.00  0.00    +0.000 NA
ENDBRANCH  13  20
ENDBRANCH   1  11
BRANCH   5  22
ATOM     22  C   UNL     1       5.706   6.229  16.448  0.00  0.00    +0.000 C 
BRANCH  22  23
ATOM     23  C   UNL     1       4.438   5.696  17.069  0.00  0.00    +0.000 A 
ATOM     24  C   UNL     1       3.544   6.551  17.736  0.00  0.00    +0.000 A 
ATOM     25  C   UNL     1       2.384   6.049  18.330  0.00  0.00    +0.000 A 
ATOM     26  C   UNL     1       2.094   4.688  18.252  0.00  0.00    +0.000 A 
ATOM     27  C   UNL     1       2.958   3.837  17.567  0.00  0.00    +0.000 A 
ATOM     28 CL   UNL     1       2.594   2.159  17.452  0.00  0.00    +0.000 Cl
ATOM     29  C   UNL     1       4.122   4.332  16.974  0.00  0.00    +0.000 A 
ENDBRANCH  22  23
ENDBRANCH   5  22
TORSDOF 5
ENDMDL
MODEL 4
REMARK VINA RESULT:      -8.3      3.712      8.957
REMARK  Name = 
REMARK  6 active torsions:
REMARK  status: ('A' for Active; 'I' for Inactive)
REMARK    1  A    between atoms: C_1  and  C_2
REMARK    2  A    between atoms: N_4  and  C_5
REMARK    3  A    between atoms: C_8  and  N_9
REMARK    4  A    between atoms: N_13  and  C_14
REMARK    5  A    between atoms: C_14  and  C_15
REMARK    6  A    between atoms: C_24  and  C_25
REMARK                            x       y       z     vdW  Elec       q    Type
REMARK                         _______ _______ _______ _____ _____    ______ ____
ROOT
ATOM      1  N   UNL     1       1.572   7.278  20.539  0.00  0.00    +0.000 N 
ATOM      2  C   UNL     1       0.869   8.428  20.502  0.00  0.00    +0.000 A 
ATOM      3  N   UNL     1       0.205   8.804  21.640  0.00  0.00    +0.000 NA
ATOM      4  C   UNL     1      -0.299   9.978  21.331  0.00  0.00    +0.000 A 
ATOM      5  N   UNL     1       0.021  10.280  20.047  0.00  0.00    +0.000 N 
ATOM      6  N   UNL     1       0.758   9.304  19.499  0.00  0.00    +0.000 NA
ATOM      7  H   UNL     1       1.500   6.776  21.413  0.00  0.00    +0.000 HD
ENDROOT
BRANCH   1  11
ATOM      8  C   UNL     1       4.459   5.848  17.778  0.00  0.00    +0.000 A 
ATOM      9  C   UNL     1       3.893   7.125  17.635  0.00  0.00    +0.000 A 
ATOM     10  C   UNL     1       2.967   7.602  18.575  0.00  0.00    +0.000 A 
ATOM     11  C   UNL     1       2.595   6.830  19.680  0.00  0.00    +0.000 A 
ATOM     12  C   UNL     1       3.234   5.598  19.851  0.00  0.00    +0.000 A 
ATOM     13  C   UNL     1       4.152   5.093  18.920  0.00  0.00    +0.000 A 
BRANCH   8  17
ATOM     14  C   UNL     1       6.220   3.726  13.606  0.00  0.00    +0.000 C 
ATOM     15  C   UNL     1       6.075   4.416  14.905  0.00  0.00    +0.000 A 
ATOM     16  C   UNL     1       4.919   4.772  15.559  0.00  0.00    +0.000 A 
ATOM     17  N   UNL     1       5.302   5.350  16.747  0.00  0.00    +0.000 N 
ATOM     18  C   UNL     1       6.679   5.385  16.709  0.00  0.00    +0.000 A 
ATOM     19  N   UNL     1       7.169   4.814  15.629  0.00  0.00    +0.000 NA
ENDBRANCH   8  17
BRANCH  13  20
ATOM     20  C   UNL     1       4.772   3.845  19.261  0.00  0.00    +0.000 C 
ATOM     21  N   UNL     1       5.253   2.820  19.527  0.00  0.00    +0.000 NA
ENDBRANCH  13  20
ENDBRANCH   1  11
BRANCH   5  22
ATOM     22  C   UNL     1      -0.383  11.428  19.257  0.00  0.00    +0.000 C 
BRANCH  22  23
ATOM     23  C   UNL     1      -1.632  11.153  18.455  0.00  0.00    +0.000 A 
ATOM     24  C   UNL     1      -1.615  10.255  17.375  0.00  0.00    +0.000 A 
ATOM     25  C   UNL     1      -2.767  10.022  16.621  0.00  0.00    +0.000 A 
ATOM     26  C   UNL     1      -3.956  10.672  16.947  0.00  0.00    +0.000 A 
ATOM     27  C   UNL     1      -3.991  11.540  18.035  0.00  0.00    +0.000 A 
ATOM     28 CL   UNL     1      -5.462  12.330  18.452  0.00  0.00    +0.000 Cl
ATOM     29  C   UNL     1      -2.841  11.780  18.790  0.00  0.00    +0.000 A 
ENDBRANCH  22  23
ENDBRANCH   5  22
TORSDOF 5
ENDMDL
MODEL 5
REMARK VINA RESULT:      -8.3      3.630      9.075
REMARK  Name = 
REMARK  6 active torsions:
REMARK  status: ('A' for Active; 'I' for Inactive)
REMARK    1  A    between atoms: C_1  and  C_2
REMARK    2  A    between atoms: N_4  and  C_5
REMARK    3  A    between atoms: C_8  and  N_9
REMARK    4  A    between atoms: N_13  and  C_14
REMARK    5  A    between atoms: C_14  and  C_15
REMARK    6  A    between atoms: C_24  and  C_25
REMARK                            x       y       z     vdW  Elec       q    Type
REMARK                         _______ _______ _______ _____ _____    ______ ____
ROOT
ATOM      1  N   UNL     1       2.128   6.922  20.190  0.00  0.00    +0.000 N 
ATOM      2  C   UNL     1       1.485   8.106  20.143  0.00  0.00    +0.000 A 
ATOM      3  N   UNL     1       0.994   8.609  21.319  0.00  0.00    +0.000 NA
ATOM      4  C   UNL     1       0.513   9.784  20.977  0.00  0.00    +0.000 A 
ATOM      5  N   UNL     1       0.680   9.964  19.642  0.00  0.00    +0.000 N 
ATOM      6  N   UNL     1       1.289   8.906  19.091  0.00  0.00    +0.000 NA
ATOM      7  H   UNL     1       2.144   6.494  21.106  0.00  0.00    +0.000 HD
ENDROOT
BRANCH   1  11
ATOM      8  C   UNL     1       4.599   5.258  17.167  0.00  0.00    +0.000 A 
ATOM      9  C   UNL     1       4.634   6.632  17.455  0.00  0.00    +0.000 A 
ATOM     10  C   UNL     1       3.840   7.165  18.482  0.00  0.00    +0.000 A 
ATOM     11  C   UNL     1       3.007   6.346  19.252  0.00  0.00    +0.000 A 
ATOM     12  C   UNL     1       3.051   4.970  19.007  0.00  0.00    +0.000 A 
ATOM     13  C   UNL     1       3.825   4.414  17.979  0.00  0.00    +0.000 A 
BRANCH   8  17
ATOM     14  C   UNL     1       5.905   3.546  12.654  0.00  0.00    +0.000 C 
ATOM     15  C   UNL     1       5.898   4.019  14.055  0.00  0.00    +0.000 A 
ATOM     16  C   UNL     1       4.840   4.503  14.788  0.00  0.00    +0.000 A 
ATOM     17  N   UNL     1       5.325   4.771  16.047  0.00  0.00    +0.000 N 
ATOM     18  C   UNL     1       6.676   4.509  15.982  0.00  0.00    +0.000 A 
ATOM     19  N   UNL     1       7.042   4.037  14.808  0.00  0.00    +0.000 NA
ENDBRANCH   8  17
BRANCH  13  20
ATOM     20  C   UNL     1       3.816   2.983  17.889  0.00  0.00    +0.000 C 
ATOM     21  N   UNL     1       3.820   1.824  17.792  0.00  0.00    +0.000 NA
ENDBRANCH  13  20
ENDBRANCH   1  11
BRANCH   5  22
ATOM     22  C   UNL     1       0.235  11.070  18.813  0.00  0.00    +0.000 C 
BRANCH  22  23
ATOM     23  C   UNL     1      -1.197  10.903  18.366  0.00  0.00    +0.000 A 
ATOM     24  C   UNL     1      -1.534  10.002  17.342  0.00  0.00    +0.000 A 
ATOM     25  C   UNL     1      -2.857   9.868  16.914  0.00  0.00    +0.000 A 
ATOM     26  C   UNL     1      -3.863  10.621  17.516  0.00  0.00    +0.000 A 
ATOM     27  C   UNL     1      -3.544  11.494  18.553  0.00  0.00    +0.000 A 
ATOM     28 CL   UNL     1      -4.786  12.412  19.311  0.00  0.00    +0.000 Cl
ATOM     29  C   UNL     1      -2.222  11.636  18.982  0.00  0.00    +0.000 A 
ENDBRANCH  22  23
ENDBRANCH   5  22
TORSDOF 5
ENDMDL
MODEL 6
REMARK VINA RESULT:      -8.3      3.421      8.983
REMARK  Name = 
REMARK  6 active torsions:
REMARK  status: ('A' for Active; 'I' for Inactive)
REMARK    1  A    between atoms: C_1  and  C_2
REMARK    2  A    between atoms: N_4  and  C_5
REMARK    3  A    between atoms: C_8  and  N_9
REMARK    4  A    between atoms: N_13  and  C_14
REMARK    5  A    between atoms: C_14  and  C_15
REMARK    6  A    between atoms: C_24  and  C_25
REMARK                            x       y       z     vdW  Elec       q    Type
REMARK                         _______ _______ _______ _____ _____    ______ ____
ROOT
ATOM      1  N   UNL     1       1.532   7.572  20.296  0.00  0.00    +0.000 N 
ATOM      2  C   UNL     1       0.823   8.716  20.221  0.00  0.00    +0.000 A 
ATOM      3  N   UNL     1       0.147   9.120  21.342  0.00  0.00    +0.000 NA
ATOM      4  C   UNL     1      -0.361  10.282  20.995  0.00  0.00    +0.000 A 
ATOM      5  N   UNL     1      -0.030  10.549  19.707  0.00  0.00    +0.000 N 
ATOM      6  N   UNL     1       0.717   9.563  19.193  0.00  0.00    +0.000 NA
ATOM      7  H   UNL     1       1.455   7.093  21.184  0.00  0.00    +0.000 HD
ENDROOT
BRANCH   1  11
ATOM      8  C   UNL     1       4.452   6.078  17.603  0.00  0.00    +0.000 A 
ATOM      9  C   UNL     1       3.872   7.343  17.413  0.00  0.00    +0.000 A 
ATOM     10  C   UNL     1       2.936   7.842  18.331  0.00  0.00    +0.000 A 
ATOM     11  C   UNL     1       2.565   7.105  19.460  0.00  0.00    +0.000 A 
ATOM     12  C   UNL     1       3.217   5.887  19.677  0.00  0.00    +0.000 A 
ATOM     13  C   UNL     1       4.146   5.360  18.769  0.00  0.00    +0.000 A 
BRANCH   8  17
ATOM     14  C   UNL     1       6.271   3.744  13.573  0.00  0.00    +0.000 C 
ATOM     15  C   UNL     1       6.105   4.527  14.816  0.00  0.00    +0.000 A 
ATOM     16  C   UNL     1       4.940   4.858  15.467  0.00  0.00    +0.000 A 
ATOM     17  N   UNL     1       5.307   5.554  16.595  0.00  0.00    +0.000 N 
ATOM     18  C   UNL     1       6.677   5.676  16.521  0.00  0.00    +0.000 A 
ATOM     19  N   UNL     1       7.183   5.052  15.479  0.00  0.00    +0.000 NA
ENDBRANCH   8  17
BRANCH  13  20
ATOM     20  C   UNL     1       4.776   4.131  19.157  0.00  0.00    +0.000 C 
ATOM     21  N   UNL     1       5.300   3.148  19.491  0.00  0.00    +0.000 NA
ENDBRANCH  13  20
ENDBRANCH   1  11
BRANCH   5  22
ATOM     22  C   UNL     1      -0.433  11.673  18.881  0.00  0.00    +0.000 C 
BRANCH  22  23
ATOM     23  C   UNL     1      -1.810  11.479  18.293  0.00  0.00    +0.000 A 
ATOM     24  C   UNL     1      -2.958  11.885  18.991  0.00  0.00    +0.000 A 
ATOM     25  C   UNL     1      -4.231  11.682  18.454  0.00  0.00    +0.000 A 
ATOM     26  C   UNL     1      -4.372  11.084  17.203  0.00  0.00    +0.000 A 
ATOM     27  C   UNL     1      -3.238  10.706  16.489  0.00  0.00    +0.000 A 
ATOM     28 CL   UNL     1      -3.406   9.984  14.935  0.00  0.00    +0.000 Cl
ATOM     29  C   UNL     1      -1.963  10.903  17.023  0.00  0.00    +0.000 A 
ENDBRANCH  22  23
ENDBRANCH   5  22
TORSDOF 5
ENDMDL
MODEL 7
REMARK VINA RESULT:      -8.2      1.566      2.021
REMARK  Name = 
REMARK  6 active torsions:
REMARK  status: ('A' for Active; 'I' for Inactive)
REMARK    1  A    between atoms: C_1  and  C_2
REMARK    2  A    between atoms: N_4  and  C_5
REMARK    3  A    between atoms: C_8  and  N_9
REMARK    4  A    between atoms: N_13  and  C_14
REMARK    5  A    between atoms: C_14  and  C_15
REMARK    6  A    between atoms: C_24  and  C_25
REMARK                            x       y       z     vdW  Elec       q    Type
REMARK                         _______ _______ _______ _____ _____    ______ ____
ROOT
ATOM      1  N   UNL     1       2.568   5.930  20.166  0.00  0.00    +0.000 N 
ATOM      2  C   UNL     1       3.646   5.316  19.638  0.00  0.00    +0.000 A 
ATOM      3  N   UNL     1       3.731   3.955  19.773  0.00  0.00    +0.000 NA
ATOM      4  C   UNL     1       4.815   3.644  19.097  0.00  0.00    +0.000 A 
ATOM      5  N   UNL     1       5.377   4.777  18.606  0.00  0.00    +0.000 N 
ATOM      6  N   UNL     1       4.653   5.853  18.944  0.00  0.00    +0.000 NA
ATOM      7  H   UNL     1       1.937   5.311  20.657  0.00  0.00    +0.000 HD
ENDROOT
BRANCH   1  11
ATOM      8  C   UNL     1       1.264   9.886  19.356  0.00  0.00    +0.000 A 
ATOM      9  C   UNL     1       1.722   9.050  18.324  0.00  0.00    +0.000 A 
ATOM     10  C   UNL     1       2.115   7.732  18.599  0.00  0.00    +0.000 A 
ATOM     11  C   UNL     1       2.050   7.212  19.896  0.00  0.00    +0.000 A 
ATOM     12  C   UNL     1       1.510   8.031  20.892  0.00  0.00    +0.000 A 
ATOM     13  C   UNL     1       1.122   9.356  20.647  0.00  0.00    +0.000 A 
BRANCH   8  17
ATOM     14  C   UNL     1       1.627  14.814  18.586  0.00  0.00    +0.000 C 
ATOM     15  C   UNL     1       1.149  13.421  18.723  0.00  0.00    +0.000 A 
ATOM     16  C   UNL     1       1.882  12.290  18.995  0.00  0.00    +0.000 A 
ATOM     17  N   UNL     1       0.985  11.250  19.064  0.00  0.00    +0.000 N 
ATOM     18  C   UNL     1      -0.238  11.799  18.747  0.00  0.00    +0.000 A 
ATOM     19  N   UNL     1      -0.172  13.100  18.559  0.00  0.00    +0.000 NA
ENDBRANCH   8  17
BRANCH  13  20
ATOM     20  C   UNL     1       0.529  10.052  21.753  0.00  0.00    +0.000 C 
ATOM     21  N   UNL     1       0.039  10.593  22.657  0.00  0.00    +0.000 NA
ENDBRANCH  13  20
ENDBRANCH   1  11
BRANCH   5  22
ATOM     22  C   UNL     1       6.619   4.929  17.870  0.00  0.00    +0.000 C 
BRANCH  22  23
ATOM     23  C   UNL     1       6.439   4.673  16.394  0.00  0.00    +0.000 A 
ATOM     24  C   UNL     1       5.350   3.924  15.918  0.00  0.00    +0.000 A 
ATOM     25  C   UNL     1       5.200   3.669  14.553  0.00  0.00    +0.000 A 
ATOM     26  C   UNL     1       6.129   4.172  13.644  0.00  0.00    +0.000 A 
ATOM     27  C   UNL     1       7.195   4.941  14.103  0.00  0.00    +0.000 A 
ATOM     28 CL   UNL     1       8.334   5.580  12.982  0.00  0.00    +0.000 Cl
ATOM     29  C   UNL     1       7.353   5.196  15.467  0.00  0.00    +0.000 A 
ENDBRANCH  22  23
ENDBRANCH   5  22
TORSDOF 5
ENDMDL
MODEL 8
REMARK VINA RESULT:      -8.2      3.183      8.978
REMARK  Name = 
REMARK  6 active torsions:
REMARK  status: ('A' for Active; 'I' for Inactive)
REMARK    1  A    between atoms: C_1  and  C_2
REMARK    2  A    between atoms: N_4  and  C_5
REMARK    3  A    between atoms: C_8  and  N_9
REMARK    4  A    between atoms: N_13  and  C_14
REMARK    5  A    between atoms: C_14  and  C_15
REMARK    6  A    between atoms: C_24  and  C_25
REMARK                            x       y       z     vdW  Elec       q    Type
REMARK                         _______ _______ _______ _____ _____    ______ ____
ROOT
ATOM      1  N   UNL     1       2.049   6.783  20.311  0.00  0.00    +0.000 N 
ATOM      2  C   UNL     1       1.491   8.011  20.341  0.00  0.00    +0.000 A 
ATOM      3  N   UNL     1       0.961   8.438  21.530  0.00  0.00    +0.000 NA
ATOM      4  C   UNL     1       0.583   9.672  21.275  0.00  0.00    +0.000 A 
ATOM      5  N   UNL     1       0.845   9.960  19.975  0.00  0.00    +0.000 N 
ATOM      6  N   UNL     1       1.416   8.915  19.361  0.00  0.00    +0.000 NA
ATOM      7  H   UNL     1       1.979   6.274  21.181  0.00  0.00    +0.000 HD
ENDROOT
BRANCH   1  11
ATOM      8  C   UNL     1       4.573   5.202  17.289  0.00  0.00    +0.000 A 
ATOM      9  C   UNL     1       4.602   6.568  17.614  0.00  0.00    +0.000 A 
ATOM     10  C   UNL     1       3.790   7.073  18.640  0.00  0.00    +0.000 A 
ATOM     11  C   UNL     1       2.944   6.234  19.373  0.00  0.00    +0.000 A 
ATOM     12  C   UNL     1       2.995   4.865  19.093  0.00  0.00    +0.000 A 
ATOM     13  C   UNL     1       3.787   4.337  18.064  0.00  0.00    +0.000 A 
BRANCH   8  17
ATOM     14  C   UNL     1       5.957   3.597  12.759  0.00  0.00    +0.000 C 
ATOM     15  C   UNL     1       5.927   4.041  14.170  0.00  0.00    +0.000 A 
ATOM     16  C   UNL     1       4.854   4.499  14.897  0.00  0.00    +0.000 A 
ATOM     17  N   UNL     1       5.320   4.745  16.168  0.00  0.00    +0.000 N 
ATOM     18  C   UNL     1       6.674   4.498  16.116  0.00  0.00    +0.000 A 
ATOM     19  N   UNL     1       7.061   4.055  14.938  0.00  0.00    +0.000 NA
ENDBRANCH   8  17
BRANCH  13  20
ATOM     20  C   UNL     1       3.781   2.908  17.936  0.00  0.00    +0.000 C 
ATOM     21  N   UNL     1       3.754   1.749  17.845  0.00  0.00    +0.000 NA
ENDBRANCH  13  20
ENDBRANCH   1  11
BRANCH   5  22
ATOM     22  C   UNL     1       0.529  11.167  19.232  0.00  0.00    +0.000 C 
BRANCH  22  23
ATOM     23  C   UNL     1      -0.895  11.167  18.732  0.00  0.00    +0.000 A 
ATOM     24  C   UNL     1      -1.896  11.892  19.400  0.00  0.00    +0.000 A 
ATOM     25  C   UNL     1      -3.217  11.869  18.947  0.00  0.00    +0.000 A 
ATOM     26  C   UNL     1      -3.552  11.135  17.811  0.00  0.00    +0.000 A 
ATOM     27  C   UNL     1      -2.561  10.438  17.124  0.00  0.00    +0.000 A 
ATOM     28 CL   UNL     1      -2.967   9.545  15.710  0.00  0.00    +0.000 Cl
ATOM     29  C   UNL     1      -1.239  10.453  17.574  0.00  0.00    +0.000 A 
ENDBRANCH  22  23
ENDBRANCH   5  22
TORSDOF 5
ENDMDL
MODEL 9
REMARK VINA RESULT:      -8.2      3.048      4.517
REMARK  Name = 
REMARK  6 active torsions:
REMARK  status: ('A' for Active; 'I' for Inactive)
REMARK    1  A    between atoms: C_1  and  C_2
REMARK    2  A    between atoms: N_4  and  C_5
REMARK    3  A    between atoms: C_8  and  N_9
REMARK    4  A    between atoms: N_13  and  C_14
REMARK    5  A    between atoms: C_14  and  C_15
REMARK    6  A    between atoms: C_24  and  C_25
REMARK                            x       y       z     vdW  Elec       q    Type
REMARK                         _______ _______ _______ _____ _____    ______ ____
ROOT
ATOM      1  N   UNL     1       1.199   9.611  17.972  0.00  0.00    +0.000 N 
ATOM      2  C   UNL     1       2.068   8.581  18.031  0.00  0.00    +0.000 A 
ATOM      3  N   UNL     1       2.932   8.418  16.980  0.00  0.00    +0.000 NA
ATOM      4  C   UNL     1       3.693   7.415  17.359  0.00  0.00    +0.000 A 
ATOM      5  N   UNL     1       3.280   6.973  18.573  0.00  0.00    +0.000 N 
ATOM      6  N   UNL     1       2.243   7.697  19.016  0.00  0.00    +0.000 NA
ATOM      7  H   UNL     1       1.247  10.146  17.114  0.00  0.00    +0.000 HD
ENDROOT
BRANCH   1  11
ATOM      8  C   UNL     1      -0.839  11.639  21.092  0.00  0.00    +0.000 A 
ATOM      9  C   UNL     1      -1.042  11.991  19.748  0.00  0.00    +0.000 A 
ATOM     10  C   UNL     1      -0.392  11.288  18.722  0.00  0.00    +0.000 A 
ATOM     11  C   UNL     1       0.462  10.217  19.007  0.00  0.00    +0.000 A 
ATOM     12  C   UNL     1       0.584   9.828  20.345  0.00  0.00    +0.000 A 
ATOM     13  C   UNL     1      -0.045  10.521  21.389  0.00  0.00    +0.000 A 
BRANCH   8  17
ATOM     14  C   UNL     1      -1.652  15.079  24.629  0.00  0.00    +0.000 C 
ATOM     15  C   UNL     1      -1.777  13.964  23.666  0.00  0.00    +0.000 A 
ATOM     16  C   UNL     1      -0.863  13.538  22.732  0.00  0.00    +0.000 A 
ATOM     17  N   UNL     1      -1.420  12.445  22.110  0.00  0.00    +0.000 N 
ATOM     18  C   UNL     1      -2.682  12.320  22.649  0.00  0.00    +0.000 A 
ATOM     19  N   UNL     1      -2.913  13.203  23.598  0.00  0.00    +0.000 NA
ENDBRANCH   8  17
BRANCH  13  20
ATOM     20  C   UNL     1       0.124   9.968  22.702  0.00  0.00    +0.000 C 
ATOM     21  N   UNL     1       0.260   9.543  23.776  0.00  0.00    +0.000 NA
ENDBRANCH  13  20
ENDBRANCH   1  11
BRANCH   5  22
ATOM     22  C   UNL     1       3.769   5.842  19.341  0.00  0.00    +0.000 C 
BRANCH  22  23
ATOM     23  C   UNL     1       2.765   4.716  19.393  0.00  0.00    +0.000 A 
ATOM     24  C   UNL     1       2.157   4.235  18.222  0.00  0.00    +0.000 A 
ATOM     25  C   UNL     1       1.211   3.209  18.277  0.00  0.00    +0.000 A 
ATOM     26  C   UNL     1       0.872   2.639  19.503  0.00  0.00    +0.000 A 
ATOM     27  C   UNL     1       1.491   3.089  20.667  0.00  0.00    +0.000 A 
ATOM     28 CL   UNL     1       1.089   2.375  22.180  0.00  0.00    +0.000 Cl
ATOM     29  C   UNL     1       2.435   4.117  20.618  0.00  0.00    +0.000 A 
ENDBRANCH  22  23
ENDBRANCH   5  22
TORSDOF 5
ENDMDL
