MODEL 1
REMARK VINA RESULT:      -8.4      0.000      0.000
REMARK  Name = 
REMARK  3 active torsions:
REMARK  status: ('A' for Active; 'I' for Inactive)
REMARK    1  A    between atoms: C_4  and  C_5
REMARK    2  A    between atoms: C_5  and  C_14
REMARK    3  A    between atoms: N_6  and  N_7
REMARK                            x       y       z     vdW  Elec       q    Type
REMARK                         _______ _______ _______ _____ _____    ______ ____
ROOT
ATOM      1  C   UNL     1       6.229   4.306  16.062  0.00  0.00    +0.000 C 
ATOM      2  N   UNL     1       5.383   3.377  16.441  0.00  0.00    +0.000 NA
ENDROOT
BRANCH   2   3
ATOM      3  N   UNL     1       5.078   3.284  17.763  0.00  0.00    +0.000 N 
ATOM      4  C   UNL     1       3.819   3.675  18.232  0.00  0.00    +0.000 A 
ATOM      5  C   UNL     1       2.683   3.586  17.431  0.00  0.00    +0.000 A 
ATOM      6  C   UNL     1       1.448   3.973  17.947  0.00  0.00    +0.000 A 
ATOM      7  C   UNL     1       1.378   4.451  19.248  0.00  0.00    +0.000 A 
ATOM      8  C   UNL     1       2.550   4.507  19.980  0.00  0.00    +0.000 A 
ATOM      9  N   UNL     1       3.757   4.122  19.508  0.00  0.00    +0.000 NA
ATOM     10  H   UNL     1       5.789   3.428  18.482  0.00  0.00    +0.000 HD
ENDBRANCH   2   3
BRANCH   1  14
ATOM     11  C   UNL     1       7.105   4.381  11.838  0.00  0.00    +0.000 A 
ATOM     12  C   UNL     1       6.081   3.578  12.335  0.00  0.00    +0.000 A 
ATOM     13  C   UNL     1       5.798   3.570  13.703  0.00  0.00    +0.000 A 
ATOM     14  C   UNL     1       6.539   4.368  14.589  0.00  0.00    +0.000 A 
ATOM     15  C   UNL     1       7.580   5.157  14.079  0.00  0.00    +0.000 A 
ATOM     16  C   UNL     1       7.855   5.169  12.709  0.00  0.00    +0.000 A 
ENDBRANCH   1  14
BRANCH   1  17
ATOM     17  C   UNL     1       6.900   5.306  16.969  0.00  0.00    +0.000 A 
ATOM     18  N   UNL     1       6.823   6.610  16.638  0.00  0.00    +0.000 NA
ATOM     19  C   UNL     1       7.420   7.471  17.483  0.00  0.00    +0.000 A 
ATOM     20  C   UNL     1       8.082   7.082  18.624  0.00  0.00    +0.000 A 
ATOM     21  C   UNL     1       8.094   5.731  18.876  0.00  0.00    +0.000 A 
ATOM     22  N   UNL     1       7.504   4.824  18.078  0.00  0.00    +0.000 NA
ENDBRANCH   1  17
TORSDOF 3
ENDMDL
MODEL 2
REMARK VINA RESULT:      -8.4      0.087      1.034
REMARK  Name = 
REMARK  3 active torsions:
REMARK  status: ('A' for Active; 'I' for Inactive)
REMARK    1  A    between atoms: C_4  and  C_5
REMARK    2  A    between atoms: C_5  and  C_14
REMARK    3  A    between atoms: N_6  and  N_7
REMARK                            x       y       z     vdW  Elec       q    Type
REMARK                         _______ _______ _______ _____ _____    ______ ____
ROOT
ATOM      1  C   UNL     1       6.187   4.236  16.041  0.00  0.00    +0.000 C 
ATOM      2  N   UNL     1       5.333   3.304  16.394  0.00  0.00    +0.000 NA
ENDROOT
BRANCH   2   3
ATOM      3  N   UNL     1       5.012   3.190  17.711  0.00  0.00    +0.000 N 
ATOM      4  C   UNL     1       3.780   3.653  18.186  0.00  0.00    +0.000 A 
ATOM      5  C   UNL     1       2.646   3.670  17.375  0.00  0.00    +0.000 A 
ATOM      6  C   UNL     1       1.438   4.126  17.897  0.00  0.00    +0.000 A 
ATOM      7  C   UNL     1       1.392   4.565  19.213  0.00  0.00    +0.000 A 
ATOM      8  C   UNL     1       2.559   4.515  19.953  0.00  0.00    +0.000 A 
ATOM      9  N   UNL     1       3.739   4.061  19.475  0.00  0.00    +0.000 NA
ATOM     10  H   UNL     1       5.726   3.260  18.438  0.00  0.00    +0.000 HD
ENDBRANCH   2   3
BRANCH   1  14
ATOM     11  C   UNL     1       7.114   4.379  11.830  0.00  0.00    +0.000 A 
ATOM     12  C   UNL     1       6.082   3.569  12.301  0.00  0.00    +0.000 A 
ATOM     13  C   UNL     1       5.783   3.540  13.665  0.00  0.00    +0.000 A 
ATOM     14  C   UNL     1       6.514   4.322  14.573  0.00  0.00    +0.000 A 
ATOM     15  C   UNL     1       7.562   5.118  14.089  0.00  0.00    +0.000 A 
ATOM     16  C   UNL     1       7.854   5.152  12.722  0.00  0.00    +0.000 A 
ENDBRANCH   1  14
BRANCH   1  17
ATOM     17  C   UNL     1       6.849   5.219  16.973  0.00  0.00    +0.000 A 
ATOM     18  N   UNL     1       7.458   4.733  18.073  0.00  0.00    +0.000 NA
ATOM     19  C   UNL     1       8.052   5.640  18.870  0.00  0.00    +0.000 A 
ATOM     20  C   UNL     1       8.057   6.992  18.612  0.00  0.00    +0.000 A 
ATOM     21  C   UNL     1       7.418   7.383  17.460  0.00  0.00    +0.000 A 
ATOM     22  N   UNL     1       6.819   6.522  16.618  0.00  0.00    +0.000 NA
ENDBRANCH   1  17
TORSDOF 3
ENDMDL
MODEL 3
REMARK VINA RESULT:      -8.4      0.669      1.246
REMARK  Name = 
REMARK  3 active torsions:
REMARK  status: ('A' for Active; 'I' for Inactive)
REMARK    1  A    between atoms: C_4  and  C_5
REMARK    2  A    between atoms: C_5  and  C_14
REMARK    3  A    between atoms: N_6  and  N_7
REMARK                            x       y       z     vdW  Elec       q    Type
REMARK                         _______ _______ _______ _____ _____    ______ ____
ROOT
ATOM      1  C   UNL     1       6.018   4.342  16.315  0.00  0.00    +0.000 C 
ATOM      2  N   UNL     1       5.106   3.519  16.780  0.00  0.00    +0.000 NA
ENDROOT
BRANCH   2   3
ATOM      3  N   UNL     1       4.820   3.558  18.109  0.00  0.00    +0.000 N 
ATOM      4  C   UNL     1       3.509   3.367  18.560  0.00  0.00    +0.000 A 
ATOM      5  C   UNL     1       2.605   2.573  17.859  0.00  0.00    +0.000 A 
ATOM      6  C   UNL     1       1.315   2.400  18.355  0.00  0.00    +0.000 A 
ATOM      7  C   UNL     1       0.955   3.033  19.536  0.00  0.00    +0.000 A 
ATOM      8  C   UNL     1       1.910   3.804  20.175  0.00  0.00    +0.000 A 
ATOM      9  N   UNL     1       3.172   3.973  19.722  0.00  0.00    +0.000 NA
ATOM     10  H   UNL     1       5.332   4.174  18.742  0.00  0.00    +0.000 HD
ENDBRANCH   2   3
BRANCH   1  14
ATOM     11  C   UNL     1       6.854   4.208  12.085  0.00  0.00    +0.000 A 
ATOM     12  C   UNL     1       7.668   4.943  12.946  0.00  0.00    +0.000 A 
ATOM     13  C   UNL     1       7.394   4.970  14.315  0.00  0.00    +0.000 A 
ATOM     14  C   UNL     1       6.303   4.259  14.839  0.00  0.00    +0.000 A 
ATOM     15  C   UNL     1       5.480   3.540  13.960  0.00  0.00    +0.000 A 
ATOM     16  C   UNL     1       5.761   3.507  12.591  0.00  0.00    +0.000 A 
ENDBRANCH   1  14
BRANCH   1  17
ATOM     17  C   UNL     1       6.785   5.352  17.130  0.00  0.00    +0.000 A 
ATOM     18  N   UNL     1       6.786   6.633  16.708  0.00  0.00    +0.000 NA
ATOM     19  C   UNL     1       7.467   7.507  17.472  0.00  0.00    +0.000 A 
ATOM     20  C   UNL     1       8.138   7.152  18.619  0.00  0.00    +0.000 A 
ATOM     21  C   UNL     1       8.066   5.825  18.968  0.00  0.00    +0.000 A 
ATOM     22  N   UNL     1       7.390   4.908  18.253  0.00  0.00    +0.000 NA
ENDBRANCH   1  17
TORSDOF 3
ENDMDL
MODEL 4
REMARK VINA RESULT:      -8.3      1.069      1.527
REMARK  Name = 
REMARK  3 active torsions:
REMARK  status: ('A' for Active; 'I' for Inactive)
REMARK    1  A    between atoms: C_4  and  C_5
REMARK    2  A    between atoms: C_5  and  C_14
REMARK    3  A    between atoms: N_6  and  N_7
REMARK                            x       y       z     vdW  Elec       q    Type
REMARK                         _______ _______ _______ _____ _____    ______ ____
ROOT
ATOM      1  C   UNL     1       5.586   5.028  15.957  0.00  0.00    +0.000 C 
ATOM      2  N   UNL     1       4.356   4.651  16.218  0.00  0.00    +0.000 NA
ENDROOT
BRANCH   2   3
ATOM      3  N   UNL     1       3.847   4.923  17.450  0.00  0.00    +0.000 N 
ATOM      4  C   UNL     1       2.902   4.071  18.032  0.00  0.00    +0.000 A 
ATOM      5  C   UNL     1       2.878   2.707  17.750  0.00  0.00    +0.000 A 
ATOM      6  C   UNL     1       1.926   1.896  18.366  0.00  0.00    +0.000 A 
ATOM      7  C   UNL     1       1.014   2.469  19.241  0.00  0.00    +0.000 A 
ATOM      8  C   UNL     1       1.104   3.830  19.470  0.00  0.00    +0.000 A 
ATOM      9  N   UNL     1       2.028   4.635  18.898  0.00  0.00    +0.000 NA
ATOM     10  H   UNL     1       3.707   5.884  17.765  0.00  0.00    +0.000 HD
ENDBRANCH   2   3
BRANCH   1  14
ATOM     11  C   UNL     1       7.055   3.996  12.033  0.00  0.00    +0.000 A 
ATOM     12  C   UNL     1       5.862   3.454  12.509  0.00  0.00    +0.000 A 
ATOM     13  C   UNL     1       5.390   3.804  13.776  0.00  0.00    +0.000 A 
ATOM     14  C   UNL     1       6.107   4.702  14.581  0.00  0.00    +0.000 A 
ATOM     15  C   UNL     1       7.315   5.226  14.099  0.00  0.00    +0.000 A 
ATOM     16  C   UNL     1       7.781   4.881  12.827  0.00  0.00    +0.000 A 
ENDBRANCH   1  14
BRANCH   1  17
ATOM     17  C   UNL     1       6.502   5.756  16.907  0.00  0.00    +0.000 A 
ATOM     18  N   UNL     1       7.041   5.056  17.926  0.00  0.00    +0.000 NA
ATOM     19  C   UNL     1       7.866   5.738  18.741  0.00  0.00    +0.000 A 
ATOM     20  C   UNL     1       8.165   7.071  18.579  0.00  0.00    +0.000 A 
ATOM     21  C   UNL     1       7.573   7.690  17.505  0.00  0.00    +0.000 A 
ATOM     22  N   UNL     1       6.751   7.058  16.648  0.00  0.00    +0.000 NA
ENDBRANCH   1  17
TORSDOF 3
ENDMDL
MODEL 5
REMARK VINA RESULT:      -8.3      0.292      1.501
REMARK  Name = 
REMARK  3 active torsions:
REMARK  status: ('A' for Active; 'I' for Inactive)
REMARK    1  A    between atoms: C_4  and  C_5
REMARK    2  A    between atoms: C_5  and  C_14
REMARK    3  A    between atoms: N_6  and  N_7
REMARK                            x       y       z     vdW  Elec       q    Type
REMARK                         _______ _______ _______ _____ _____    ______ ____
ROOT
ATOM      1  C   UNL     1       6.138   4.276  16.243  0.00  0.00    +0.000 C 
ATOM      2  N   UNL     1       5.288   3.376  16.680  0.00  0.00    +0.000 NA
ENDROOT
BRANCH   2   3
ATOM      3  N   UNL     1       5.004   3.351  18.010  0.00  0.00    +0.000 N 
ATOM      4  C   UNL     1       3.695   3.558  18.461  0.00  0.00    +0.000 A 
ATOM      5  C   UNL     1       2.593   3.201  17.688  0.00  0.00    +0.000 A 
ATOM      6  C   UNL     1       1.309   3.413  18.186  0.00  0.00    +0.000 A 
ATOM      7  C   UNL     1       1.156   3.986  19.441  0.00  0.00    +0.000 A 
ATOM      8  C   UNL     1       2.300   4.311  20.148  0.00  0.00    +0.000 A 
ATOM      9  N   UNL     1       3.556   4.100  19.693  0.00  0.00    +0.000 NA
ATOM     10  H   UNL     1       5.678   3.680  18.702  0.00  0.00    +0.000 HD
ENDBRANCH   2   3
BRANCH   1  14
ATOM     11  C   UNL     1       6.975   4.340  12.011  0.00  0.00    +0.000 A 
ATOM     12  C   UNL     1       7.765   5.066  12.901  0.00  0.00    +0.000 A 
ATOM     13  C   UNL     1       7.492   5.029  14.270  0.00  0.00    +0.000 A 
ATOM     14  C   UNL     1       6.425   4.263  14.764  0.00  0.00    +0.000 A 
ATOM     15  C   UNL     1       5.626   3.552  13.857  0.00  0.00    +0.000 A 
ATOM     16  C   UNL     1       5.906   3.585  12.488  0.00  0.00    +0.000 A 
ENDBRANCH   1  14
BRANCH   1  17
ATOM     17  C   UNL     1       6.834   5.311  17.090  0.00  0.00    +0.000 A 
ATOM     18  N   UNL     1       7.458   4.894  18.210  0.00  0.00    +0.000 NA
ATOM     19  C   UNL     1       8.081   5.847  18.929  0.00  0.00    +0.000 A 
ATOM     20  C   UNL     1       8.100   7.176  18.576  0.00  0.00    +0.000 A 
ATOM     21  C   UNL     1       7.443   7.495  17.411  0.00  0.00    +0.000 A 
ATOM     22  N   UNL     1       6.815   6.586  16.644  0.00  0.00    +0.000 NA
ENDBRANCH   1  17
TORSDOF 3
ENDMDL
MODEL 6
REMARK VINA RESULT:      -7.9      3.782      6.137
REMARK  Name = 
REMARK  3 active torsions:
REMARK  status: ('A' for Active; 'I' for Inactive)
REMARK    1  A    between atoms: C_4  and  C_5
REMARK    2  A    between atoms: C_5  and  C_14
REMARK    3  A    between atoms: N_6  and  N_7
REMARK                            x       y       z     vdW  Elec       q    Type
REMARK                         _______ _______ _______ _____ _____    ______ ____
ROOT
ATOM      1  C   UNL     1       2.787   6.027  19.150  0.00  0.00    +0.000 C 
ATOM      2  N   UNL     1       2.564   7.268  19.513  0.00  0.00    +0.000 NA
ENDROOT
BRANCH   2   3
ATOM      3  N   UNL     1       1.771   7.490  20.596  0.00  0.00    +0.000 N 
ATOM      4  C   UNL     1       1.096   8.707  20.747  0.00  0.00    +0.000 A 
ATOM      5  C   UNL     1       0.690   9.456  19.645  0.00  0.00    +0.000 A 
ATOM      6  C   UNL     1       0.008  10.654  19.844  0.00  0.00    +0.000 A 
ATOM      7  C   UNL     1      -0.243  11.082  21.140  0.00  0.00    +0.000 A 
ATOM      8  C   UNL     1       0.191  10.281  22.181  0.00  0.00    +0.000 A 
ATOM      9  N   UNL     1       0.840   9.107  22.013  0.00  0.00    +0.000 NA
ATOM     10  H   UNL     1       1.997   7.090  21.508  0.00  0.00    +0.000 HD
ENDBRANCH   2   3
BRANCH   1  14
ATOM     11  C   UNL     1       5.356   5.389  15.743  0.00  0.00    +0.000 A 
ATOM     12  C   UNL     1       4.807   4.307  16.429  0.00  0.00    +0.000 A 
ATOM     13  C   UNL     1       3.967   4.526  17.523  0.00  0.00    +0.000 A 
ATOM     14  C   UNL     1       3.667   5.831  17.943  0.00  0.00    +0.000 A 
ATOM     15  C   UNL     1       4.242   6.910  17.257  0.00  0.00    +0.000 A 
ATOM     16  C   UNL     1       5.075   6.689  16.157  0.00  0.00    +0.000 A 
ENDBRANCH   1  14
BRANCH   1  17
ATOM     17  C   UNL     1       2.247   4.800  19.840  0.00  0.00    +0.000 A 
ATOM     18  N   UNL     1       2.691   4.528  21.083  0.00  0.00    +0.000 NA
ATOM     19  C   UNL     1       2.172   3.434  21.671  0.00  0.00    +0.000 A 
ATOM     20  C   UNL     1       1.244   2.615  21.069  0.00  0.00    +0.000 A 
ATOM     21  C   UNL     1       0.850   2.985  19.805  0.00  0.00    +0.000 A 
ATOM     22  N   UNL     1       1.322   4.074  19.173  0.00  0.00    +0.000 NA
ENDBRANCH   1  17
TORSDOF 3
ENDMDL
MODEL 7
REMARK VINA RESULT:      -7.9      3.771      6.138
REMARK  Name = 
REMARK  3 active torsions:
REMARK  status: ('A' for Active; 'I' for Inactive)
REMARK    1  A    between atoms: C_4  and  C_5
REMARK    2  A    between atoms: C_5  and  C_14
REMARK    3  A    between atoms: N_6  and  N_7
REMARK                            x       y       z     vdW  Elec       q    Type
REMARK                         _______ _______ _______ _____ _____    ______ ____
ROOT
ATOM      1  C   UNL     1       2.825   6.009  19.149  0.00  0.00    +0.000 C 
ATOM      2  N   UNL     1       2.627   7.255  19.510  0.00  0.00    +0.000 NA
ENDROOT
BRANCH   2   3
ATOM      3  N   UNL     1       1.814   7.496  20.573  0.00  0.00    +0.000 N 
ATOM      4  C   UNL     1       1.134   8.715  20.687  0.00  0.00    +0.000 A 
ATOM      5  C   UNL     1       0.747   9.441  19.563  0.00  0.00    +0.000 A 
ATOM      6  C   UNL     1       0.059  10.641  19.726  0.00  0.00    +0.000 A 
ATOM      7  C   UNL     1      -0.217  11.093  21.009  0.00  0.00    +0.000 A 
ATOM      8  C   UNL     1       0.198  10.314  22.074  0.00  0.00    +0.000 A 
ATOM      9  N   UNL     1       0.853   9.138  21.940  0.00  0.00    +0.000 NA
ATOM     10  H   UNL     1       2.023   7.114  21.497  0.00  0.00    +0.000 HD
ENDBRANCH   2   3
BRANCH   1  14
ATOM     11  C   UNL     1       5.364   5.460  15.705  0.00  0.00    +0.000 A 
ATOM     12  C   UNL     1       5.022   6.740  16.136  0.00  0.00    +0.000 A 
ATOM     13  C   UNL     1       4.209   6.906  17.260  0.00  0.00    +0.000 A 
ATOM     14  C   UNL     1       3.730   5.791  17.964  0.00  0.00    +0.000 A 
ATOM     15  C   UNL     1       4.065   4.508  17.509  0.00  0.00    +0.000 A 
ATOM     16  C   UNL     1       4.886   4.345  16.390  0.00  0.00    +0.000 A 
ENDBRANCH   1  14
BRANCH   1  17
ATOM     17  C   UNL     1       2.235   4.795  19.822  0.00  0.00    +0.000 A 
ATOM     18  N   UNL     1       1.328   4.072  19.135  0.00  0.00    +0.000 NA
ATOM     19  C   UNL     1       0.839   2.987  19.764  0.00  0.00    +0.000 A 
ATOM     20  C   UNL     1       1.214   2.609  21.032  0.00  0.00    +0.000 A 
ATOM     21  C   UNL     1       2.151   3.408  21.642  0.00  0.00    +0.000 A 
ATOM     22  N   UNL     1       2.687   4.495  21.059  0.00  0.00    +0.000 NA
ENDBRANCH   1  17
TORSDOF 3
ENDMDL
MODEL 8
REMARK VINA RESULT:      -7.9      3.783      6.086
REMARK  Name = 
REMARK  3 active torsions:
REMARK  status: ('A' for Active; 'I' for Inactive)
REMARK    1  A    between atoms: C_4  and  C_5
REMARK    2  A    between atoms: C_5  and  C_14
REMARK    3  A    between atoms: N_6  and  N_7
REMARK                            x       y       z     vdW  Elec       q    Type
REMARK                         _______ _______ _______ _____ _____    ______ ____
ROOT
ATOM      1  C   UNL     1       2.791   6.042  19.123  0.00  0.00    +0.000 C 
ATOM      2  N   UNL     1       2.596   7.289  19.486  0.00  0.00    +0.000 NA
ENDROOT
BRANCH   2   3
ATOM      3  N   UNL     1       1.800   7.529  20.562  0.00  0.00    +0.000 N 
ATOM      4  C   UNL     1       1.116   8.745  20.684  0.00  0.00    +0.000 A 
ATOM      5  C   UNL     1       0.707   9.466  19.564  0.00  0.00    +0.000 A 
ATOM      6  C   UNL     1       0.017  10.664  19.735  0.00  0.00    +0.000 A 
ATOM      7  C   UNL     1      -0.239  11.119  21.021  0.00  0.00    +0.000 A 
ATOM      8  C   UNL     1       0.197  10.344  22.081  0.00  0.00    +0.000 A 
ATOM      9  N   UNL     1       0.854   9.171  21.940  0.00  0.00    +0.000 NA
ATOM     10  H   UNL     1       2.025   7.150  21.483  0.00  0.00    +0.000 HD
ENDBRANCH   2   3
BRANCH   1  14
ATOM     11  C   UNL     1       5.376   5.345  15.740  0.00  0.00    +0.000 A 
ATOM     12  C   UNL     1       4.823   4.275  16.442  0.00  0.00    +0.000 A 
ATOM     13  C   UNL     1       3.978   4.513  17.528  0.00  0.00    +0.000 A 
ATOM     14  C   UNL     1       3.676   5.825  17.924  0.00  0.00    +0.000 A 
ATOM     15  C   UNL     1       4.254   6.893  17.222  0.00  0.00    +0.000 A 
ATOM     16  C   UNL     1       5.093   6.653  16.130  0.00  0.00    +0.000 A 
ENDBRANCH   1  14
BRANCH   1  17
ATOM     17  C   UNL     1       2.214   4.828  19.806  0.00  0.00    +0.000 A 
ATOM     18  N   UNL     1       1.301   4.099  19.133  0.00  0.00    +0.000 NA
ATOM     19  C   UNL     1       0.824   3.014  19.771  0.00  0.00    +0.000 A 
ATOM     20  C   UNL     1       1.216   2.641  21.035  0.00  0.00    +0.000 A 
ATOM     21  C   UNL     1       2.159   3.445  21.630  0.00  0.00    +0.000 A 
ATOM     22  N   UNL     1       2.683   4.533  21.038  0.00  0.00    +0.000 NA
ENDBRANCH   1  17
TORSDOF 3
ENDMDL
MODEL 9
REMARK VINA RESULT:      -7.9      3.701      6.118
REMARK  Name = 
REMARK  3 active torsions:
REMARK  status: ('A' for Active; 'I' for Inactive)
REMARK    1  A    between atoms: C_4  and  C_5
REMARK    2  A    between atoms: C_5  and  C_14
REMARK    3  A    between atoms: N_6  and  N_7
REMARK                            x       y       z     vdW  Elec       q    Type
REMARK                         _______ _______ _______ _____ _____    ______ ____
ROOT
ATOM      1  C   UNL     1       2.881   5.892  19.112  0.00  0.00    +0.000 C 
ATOM      2  N   UNL     1       2.662   7.138  19.462  0.00  0.00    +0.000 NA
ENDROOT
BRANCH   2   3
ATOM      3  N   UNL     1       1.849   7.374  20.527  0.00  0.00    +0.000 N 
ATOM      4  C   UNL     1       1.225   8.617  20.684  0.00  0.00    +0.000 A 
ATOM      5  C   UNL     1       0.886   9.406  19.587  0.00  0.00    +0.000 A 
ATOM      6  C   UNL     1       0.253  10.630  19.792  0.00  0.00    +0.000 A 
ATOM      7  C   UNL     1      -0.016  11.043  21.090  0.00  0.00    +0.000 A 
ATOM      8  C   UNL     1       0.350  10.202  22.126  0.00  0.00    +0.000 A 
ATOM      9  N   UNL     1       0.950   9.003  21.951  0.00  0.00    +0.000 NA
ATOM     10  H   UNL     1       2.029   6.945  21.436  0.00  0.00    +0.000 HD
ENDBRANCH   2   3
BRANCH   1  14
ATOM     11  C   UNL     1       5.419   5.361  15.664  0.00  0.00    +0.000 A 
ATOM     12  C   UNL     1       5.110   6.639  16.127  0.00  0.00    +0.000 A 
ATOM     13  C   UNL     1       4.297   6.799  17.251  0.00  0.00    +0.000 A 
ATOM     14  C   UNL     1       3.784   5.680  17.925  0.00  0.00    +0.000 A 
ATOM     15  C   UNL     1       4.086   4.400  17.438  0.00  0.00    +0.000 A 
ATOM     16  C   UNL     1       4.908   4.242  16.318  0.00  0.00    +0.000 A 
ENDBRANCH   1  14
BRANCH   1  17
ATOM     17  C   UNL     1       2.315   4.674  19.797  0.00  0.00    +0.000 A 
ATOM     18  N   UNL     1       2.834   4.323  20.991  0.00  0.00    +0.000 NA
ATOM     19  C   UNL     1       2.289   3.241  21.578  0.00  0.00    +0.000 A 
ATOM     20  C   UNL     1       1.265   2.509  21.023  0.00  0.00    +0.000 A 
ATOM     21  C   UNL     1       0.801   2.956  19.809  0.00  0.00    +0.000 A 
ATOM     22  N   UNL     1       1.294   4.038  19.181  0.00  0.00    +0.000 NA
ENDBRANCH   1  17
TORSDOF 3
ENDMDL
