MODEL 1
REMARK VINA RESULT:      -7.5      0.000      0.000
REMARK  Name = 
REMARK  3 active torsions:
REMARK  status: ('A' for Active; 'I' for Inactive)
REMARK    1  A    between atoms: C_5  and  C_6
REMARK    2  A    between atoms: N_8  and  C_9
REMARK    3  A    between atoms: C_9  and  C_10
REMARK                            x       y       z     vdW  Elec       q    Type
REMARK                         _______ _______ _______ _____ _____    ______ ____
ROOT
ATOM      1  C   UNL     1       5.072   5.553  18.771  0.00  0.00    +0.000 C 
ATOM      2  O   UNL     1       5.349   5.161  19.903  0.00  0.00    +0.000 OA
ATOM      3  N   UNL     1       3.903   6.236  18.510  0.00  0.00    +0.000 N 
ATOM      4  H   UNL     1       3.696   6.504  17.557  0.00  0.00    +0.000 HD
ENDROOT
BRANCH   1   9
ATOM      5  N   UNL     1       7.374   5.213  14.183  0.00  0.00    +0.000 N 
ATOM      6  C   UNL     1       7.033   5.149  15.478  0.00  0.00    +0.000 A 
ATOM      7  N   UNL     1       7.772   4.572  16.387  0.00  0.00    +0.000 NA
ATOM      8  C   UNL     1       7.148   4.660  17.619  0.00  0.00    +0.000 A 
ATOM      9  C   UNL     1       5.938   5.325  17.634  0.00  0.00    +0.000 A 
ATOM     10  S   UNL     1       5.575   5.854  16.046  0.00  0.00    +0.000 S 
ATOM     11  H   UNL     1       8.347   5.024  13.974  0.00  0.00    +0.000 HD
ATOM     12  H   UNL     1       6.950   5.930  13.605  0.00  0.00    +0.000 HD
ENDBRANCH   1   9
BRANCH   3  13
ATOM     13  C   UNL     1       2.914   6.426  19.540  0.00  0.00    +0.000 C 
BRANCH  13  14
ATOM     14  C   UNL     1       2.559   5.125  20.192  0.00  0.00    +0.000 C 
ATOM     15  C   UNL     1       1.096   4.888  20.476  0.00  0.00    +0.000 C 
ATOM     16  C   UNL     1       1.818   3.962  19.525  0.00  0.00    +0.000 C 
ATOM     17  C   UNL     1       2.034   2.547  20.031  0.00  0.00    +0.000 C 
ATOM     18  C   UNL     1       3.029   1.783  19.159  0.00  0.00    +0.000 C 
ATOM     19  C   UNL     1       2.637   1.833  17.684  0.00  0.00    +0.000 C 
ATOM     20  C   UNL     1       2.471   3.276  17.210  0.00  0.00    +0.000 C 
ATOM     21  C   UNL     1       1.436   4.012  18.059  0.00  0.00    +0.000 C 
ENDBRANCH  13  14
ENDBRANCH   3  13
TORSDOF 3
ENDMDL
MODEL 2
REMARK VINA RESULT:      -7.2      3.737      6.110
REMARK  Name = 
REMARK  3 active torsions:
REMARK  status: ('A' for Active; 'I' for Inactive)
REMARK    1  A    between atoms: C_5  and  C_6
REMARK    2  A    between atoms: N_8  and  C_9
REMARK    3  A    between atoms: C_9  and  C_10
REMARK                            x       y       z     vdW  Elec       q    Type
REMARK                         _______ _______ _______ _____ _____    ______ ____
ROOT
ATOM      1  C   UNL     1       2.089   8.339  18.554  0.00  0.00    +0.000 C 
ATOM      2  O   UNL     1       2.282   8.792  17.427  0.00  0.00    +0.000 OA
ATOM      3  N   UNL     1       2.639   7.139  18.952  0.00  0.00    +0.000 N 
ATOM      4  H   UNL     1       2.421   6.783  19.873  0.00  0.00    +0.000 HD
ENDROOT
BRANCH   1   9
ATOM      5  N   UNL     1      -0.521   9.951  22.682  0.00  0.00    +0.000 N 
ATOM      6  C   UNL     1       0.030   9.786  21.471  0.00  0.00    +0.000 A 
ATOM      7  N   UNL     1      -0.192  10.591  20.466  0.00  0.00    +0.000 NA
ATOM      8  C   UNL     1       0.507  10.152  19.355  0.00  0.00    +0.000 A 
ATOM      9  C   UNL     1       1.273   9.018  19.538  0.00  0.00    +0.000 A 
ATOM     10  S   UNL     1       1.106   8.487  21.157  0.00  0.00    +0.000 S 
ATOM     11  H   UNL     1      -0.916  10.866  22.866  0.00  0.00    +0.000 HD
ATOM     12  H   UNL     1      -0.075   9.516  23.481  0.00  0.00    +0.000 HD
ENDBRANCH   1   9
BRANCH   3  13
ATOM     13  C   UNL     1       3.378   6.322  18.023  0.00  0.00    +0.000 C 
BRANCH  13  14
ATOM     14  C   UNL     1       2.649   5.047  17.728  0.00  0.00    +0.000 C 
ATOM     15  C   UNL     1       3.492   3.867  17.309  0.00  0.00    +0.000 C 
ATOM     16  C   UNL     1       2.685   3.777  18.584  0.00  0.00    +0.000 C 
ATOM     17  C   UNL     1       1.512   2.813  18.546  0.00  0.00    +0.000 C 
ATOM     18  C   UNL     1       0.581   3.014  19.740  0.00  0.00    +0.000 C 
ATOM     19  C   UNL     1       1.344   2.968  21.061  0.00  0.00    +0.000 C 
ATOM     20  C   UNL     1       2.488   3.981  21.069  0.00  0.00    +0.000 C 
ATOM     21  C   UNL     1       3.439   3.736  19.898  0.00  0.00    +0.000 C 
ENDBRANCH  13  14
ENDBRANCH   3  13
TORSDOF 3
ENDMDL
MODEL 3
REMARK VINA RESULT:      -7.2      1.329      2.130
REMARK  Name = 
REMARK  3 active torsions:
REMARK  status: ('A' for Active; 'I' for Inactive)
REMARK    1  A    between atoms: C_5  and  C_6
REMARK    2  A    between atoms: N_8  and  C_9
REMARK    3  A    between atoms: C_9  and  C_10
REMARK                            x       y       z     vdW  Elec       q    Type
REMARK                         _______ _______ _______ _____ _____    ______ ____
ROOT
ATOM      1  C   UNL     1       5.409   5.438  17.773  0.00  0.00    +0.000 C 
ATOM      2  O   UNL     1       6.036   5.263  18.816  0.00  0.00    +0.000 OA
ATOM      3  N   UNL     1       4.129   5.951  17.777  0.00  0.00    +0.000 N 
ATOM      4  H   UNL     1       3.635   6.039  16.900  0.00  0.00    +0.000 HD
ENDROOT
BRANCH   1   9
ATOM      5  N   UNL     1       6.565   3.579  13.118  0.00  0.00    +0.000 N 
ATOM      6  C   UNL     1       6.519   4.244  14.281  0.00  0.00    +0.000 A 
ATOM      7  N   UNL     1       7.398   5.146  14.627  0.00  0.00    +0.000 NA
ATOM      8  C   UNL     1       7.088   5.640  15.882  0.00  0.00    +0.000 A 
ATOM      9  C   UNL     1       5.956   5.114  16.472  0.00  0.00    +0.000 A 
ATOM     10  S   UNL     1       5.262   3.960  15.414  0.00  0.00    +0.000 S 
ATOM     11  H   UNL     1       7.159   3.983  12.402  0.00  0.00    +0.000 HD
ATOM     12  H   UNL     1       5.714   3.155  12.768  0.00  0.00    +0.000 HD
ENDBRANCH   1   9
BRANCH   3  13
ATOM     13  C   UNL     1       3.441   6.207  19.017  0.00  0.00    +0.000 C 
BRANCH  13  14
ATOM     14  C   UNL     1       2.170   5.420  19.101  0.00  0.00    +0.000 C 
ATOM     15  C   UNL     1       1.838   4.543  17.918  0.00  0.00    +0.000 C 
ATOM     16  C   UNL     1       2.067   3.900  19.266  0.00  0.00    +0.000 C 
ATOM     17  C   UNL     1       0.836   3.298  19.920  0.00  0.00    +0.000 C 
ATOM     18  C   UNL     1       1.087   2.959  21.387  0.00  0.00    +0.000 C 
ATOM     19  C   UNL     1       2.332   2.093  21.559  0.00  0.00    +0.000 C 
ATOM     20  C   UNL     1       3.553   2.757  20.922  0.00  0.00    +0.000 C 
ATOM     21  C   UNL     1       3.305   3.044  19.442  0.00  0.00    +0.000 C 
ENDBRANCH  13  14
ENDBRANCH   3  13
TORSDOF 3
ENDMDL
MODEL 4
REMARK VINA RESULT:      -7.1      0.918      1.167
REMARK  Name = 
REMARK  3 active torsions:
REMARK  status: ('A' for Active; 'I' for Inactive)
REMARK    1  A    between atoms: C_5  and  C_6
REMARK    2  A    between atoms: N_8  and  C_9
REMARK    3  A    between atoms: C_9  and  C_10
REMARK                            x       y       z     vdW  Elec       q    Type
REMARK                         _______ _______ _______ _____ _____    ______ ____
ROOT
ATOM      1  C   UNL     1       4.659   5.804  18.708  0.00  0.00    +0.000 C 
ATOM      2  O   UNL     1       5.188   5.397  19.741  0.00  0.00    +0.000 OA
ATOM      3  N   UNL     1       3.371   6.297  18.702  0.00  0.00    +0.000 N 
ATOM      4  H   UNL     1       2.961   6.582  17.823  0.00  0.00    +0.000 HD
ENDROOT
BRANCH   1   9
ATOM      5  N   UNL     1       7.780   5.161  14.670  0.00  0.00    +0.000 N 
ATOM      6  C   UNL     1       6.801   5.504  15.518  0.00  0.00    +0.000 A 
ATOM      7  N   UNL     1       5.805   6.282  15.187  0.00  0.00    +0.000 NA
ATOM      8  C   UNL     1       4.970   6.458  16.277  0.00  0.00    +0.000 A 
ATOM      9  C   UNL     1       5.337   5.790  17.429  0.00  0.00    +0.000 A 
ATOM     10  S   UNL     1       6.779   4.916  17.130  0.00  0.00    +0.000 S 
ATOM     11  H   UNL     1       7.587   5.317  13.687  0.00  0.00    +0.000 HD
ATOM     12  H   UNL     1       8.320   4.326  14.865  0.00  0.00    +0.000 HD
ENDBRANCH   1   9
BRANCH   3  13
ATOM     13  C   UNL     1       2.561   6.258  19.893  0.00  0.00    +0.000 C 
BRANCH  13  14
ATOM     14  C   UNL     1       2.373   4.852  20.371  0.00  0.00    +0.000 C 
ATOM     15  C   UNL     1       0.952   4.406  20.617  0.00  0.00    +0.000 C 
ATOM     16  C   UNL     1       1.769   3.703  19.557  0.00  0.00    +0.000 C 
ATOM     17  C   UNL     1       2.159   2.271  19.877  0.00  0.00    +0.000 C 
ATOM     18  C   UNL     1       3.227   1.751  18.918  0.00  0.00    +0.000 C 
ATOM     19  C   UNL     1       2.815   1.942  17.460  0.00  0.00    +0.000 C 
ATOM     20  C   UNL     1       2.472   3.403  17.176  0.00  0.00    +0.000 C 
ATOM     21  C   UNL     1       1.366   3.894  18.109  0.00  0.00    +0.000 C 
ENDBRANCH  13  14
ENDBRANCH   3  13
TORSDOF 3
ENDMDL
MODEL 5
REMARK VINA RESULT:      -7.1      3.999      6.263
REMARK  Name = 
REMARK  3 active torsions:
REMARK  status: ('A' for Active; 'I' for Inactive)
REMARK    1  A    between atoms: C_5  and  C_6
REMARK    2  A    between atoms: N_8  and  C_9
REMARK    3  A    between atoms: C_9  and  C_10
REMARK                            x       y       z     vdW  Elec       q    Type
REMARK                         _______ _______ _______ _____ _____    ______ ____
ROOT
ATOM      1  C   UNL     1       1.889   8.679  18.496  0.00  0.00    +0.000 C 
ATOM      2  O   UNL     1       2.234   9.072  17.383  0.00  0.00    +0.000 OA
ATOM      3  N   UNL     1       2.370   7.500  19.025  0.00  0.00    +0.000 N 
ATOM      4  H   UNL     1       2.027   7.193  19.926  0.00  0.00    +0.000 HD
ENDROOT
BRANCH   1   9
ATOM      5  N   UNL     1      -1.560  11.876  20.580  0.00  0.00    +0.000 N 
ATOM      6  C   UNL     1      -0.664  10.912  20.325  0.00  0.00    +0.000 A 
ATOM      7  N   UNL     1      -0.268  10.046  21.219  0.00  0.00    +0.000 NA
ATOM      8  C   UNL     1       0.664   9.190  20.657  0.00  0.00    +0.000 A 
ATOM      9  C   UNL     1       0.953   9.409  19.325  0.00  0.00    +0.000 A 
ATOM     10  S   UNL     1       0.025  10.734  18.763  0.00  0.00    +0.000 S 
ATOM     11  H   UNL     1      -2.113  11.753  21.421  0.00  0.00    +0.000 HD
ATOM     12  H   UNL     1      -2.061  12.290  19.803  0.00  0.00    +0.000 HD
ENDBRANCH   1   9
BRANCH   3  13
ATOM     13  C   UNL     1       3.220   6.635  18.248  0.00  0.00    +0.000 C 
BRANCH  13  14
ATOM     14  C   UNL     1       2.511   5.367  17.884  0.00  0.00    +0.000 C 
ATOM     15  C   UNL     1       3.368   4.237  17.368  0.00  0.00    +0.000 C 
ATOM     16  C   UNL     1       2.593   4.044  18.651  0.00  0.00    +0.000 C 
ATOM     17  C   UNL     1       1.439   3.060  18.574  0.00  0.00    +0.000 C 
ATOM     18  C   UNL     1       0.533   3.159  19.799  0.00  0.00    +0.000 C 
ATOM     19  C   UNL     1       1.326   3.042  21.097  0.00  0.00    +0.000 C 
ATOM     20  C   UNL     1       2.449   4.077  21.148  0.00  0.00    +0.000 C 
ATOM     21  C   UNL     1       3.378   3.932  19.943  0.00  0.00    +0.000 C 
ENDBRANCH  13  14
ENDBRANCH   3  13
TORSDOF 3
ENDMDL
MODEL 6
REMARK VINA RESULT:      -7.1      4.153      6.512
REMARK  Name = 
REMARK  3 active torsions:
REMARK  status: ('A' for Active; 'I' for Inactive)
REMARK    1  A    between atoms: C_5  and  C_6
REMARK    2  A    between atoms: N_8  and  C_9
REMARK    3  A    between atoms: C_9  and  C_10
REMARK                            x       y       z     vdW  Elec       q    Type
REMARK                         _______ _______ _______ _____ _____    ______ ____
ROOT
ATOM      1  C   UNL     1       1.656   8.707  19.491  0.00  0.00    +0.000 C 
ATOM      2  O   UNL     1       1.666   9.354  18.445  0.00  0.00    +0.000 OA
ATOM      3  N   UNL     1       2.270   7.476  19.584  0.00  0.00    +0.000 N 
ATOM      4  H   UNL     1       2.202   6.960  20.451  0.00  0.00    +0.000 HD
ENDROOT
BRANCH   1   9
ATOM      5  N   UNL     1      -1.282  10.927  23.083  0.00  0.00    +0.000 N 
ATOM      6  C   UNL     1      -0.370  10.223  22.398  0.00  0.00    +0.000 A 
ATOM      7  N   UNL     1       0.551   9.493  22.969  0.00  0.00    +0.000 NA
ATOM      8  C   UNL     1       1.343   8.902  22.001  0.00  0.00    +0.000 A 
ATOM      9  C   UNL     1       1.000   9.178  20.692  0.00  0.00    +0.000 A 
ATOM     10  S   UNL     1      -0.361  10.218  20.682  0.00  0.00    +0.000 S 
ATOM     11  H   UNL     1      -1.395  10.672  24.058  0.00  0.00    +0.000 HD
ATOM     12  H   UNL     1      -2.140  11.193  22.615  0.00  0.00    +0.000 HD
ENDBRANCH   1   9
BRANCH   3  13
ATOM     13  C   UNL     1       2.860   6.857  18.425  0.00  0.00    +0.000 C 
BRANCH  13  14
ATOM     14  C   UNL     1       2.169   5.570  18.091  0.00  0.00    +0.000 C 
ATOM     15  C   UNL     1       3.007   4.506  17.424  0.00  0.00    +0.000 C 
ATOM     16  C   UNL     1       2.404   4.223  18.781  0.00  0.00    +0.000 C 
ATOM     17  C   UNL     1       1.295   3.186  18.799  0.00  0.00    +0.000 C 
ATOM     18  C   UNL     1       0.541   3.191  20.126  0.00  0.00    +0.000 C 
ATOM     19  C   UNL     1       1.492   3.062  21.314  0.00  0.00    +0.000 C 
ATOM     20  C   UNL     1       2.564   4.150  21.276  0.00  0.00    +0.000 C 
ATOM     21  C   UNL     1       3.345   4.100  19.963  0.00  0.00    +0.000 C 
ENDBRANCH  13  14
ENDBRANCH   3  13
TORSDOF 3
ENDMDL
MODEL 7
REMARK VINA RESULT:      -7.1      1.488      2.104
REMARK  Name = 
REMARK  3 active torsions:
REMARK  status: ('A' for Active; 'I' for Inactive)
REMARK    1  A    between atoms: C_5  and  C_6
REMARK    2  A    between atoms: N_8  and  C_9
REMARK    3  A    between atoms: C_9  and  C_10
REMARK                            x       y       z     vdW  Elec       q    Type
REMARK                         _______ _______ _______ _____ _____    ______ ____
ROOT
ATOM      1  C   UNL     1       5.650   4.323  18.877  0.00  0.00    +0.000 C 
ATOM      2  O   UNL     1       5.634   5.285  19.643  0.00  0.00    +0.000 OA
ATOM      3  N   UNL     1       5.156   3.092  19.255  0.00  0.00    +0.000 N 
ATOM      4  H   UNL     1       5.228   2.318  18.608  0.00  0.00    +0.000 HD
ENDROOT
BRANCH   1   9
ATOM      5  N   UNL     1       6.584   4.347  13.819  0.00  0.00    +0.000 N 
ATOM      6  C   UNL     1       6.649   4.410  15.156  0.00  0.00    +0.000 A 
ATOM      7  N   UNL     1       7.752   4.660  15.810  0.00  0.00    +0.000 NA
ATOM      8  C   UNL     1       7.499   4.647  17.171  0.00  0.00    +0.000 A 
ATOM      9  C   UNL     1       6.190   4.403  17.536  0.00  0.00    +0.000 A 
ATOM     10  S   UNL     1       5.249   4.180  16.123  0.00  0.00    +0.000 S 
ATOM     11  H   UNL     1       7.368   4.753  13.320  0.00  0.00    +0.000 HD
ATOM     12  H   UNL     1       5.685   4.479  13.370  0.00  0.00    +0.000 HD
ENDBRANCH   1   9
BRANCH   3  13
ATOM     13  C   UNL     1       4.695   2.863  20.600  0.00  0.00    +0.000 C 
BRANCH  13  14
ATOM     14  C   UNL     1       3.254   2.456  20.615  0.00  0.00    +0.000 C 
ATOM     15  C   UNL     1       2.398   3.036  21.714  0.00  0.00    +0.000 C 
ATOM     16  C   UNL     1       2.065   3.361  20.276  0.00  0.00    +0.000 C 
ATOM     17  C   UNL     1       0.781   2.745  19.749  0.00  0.00    +0.000 C 
ATOM     18  C   UNL     1       0.684   2.860  18.230  0.00  0.00    +0.000 C 
ATOM     19  C   UNL     1       0.889   4.298  17.760  0.00  0.00    +0.000 C 
ATOM     20  C   UNL     1       2.211   4.860  18.280  0.00  0.00    +0.000 C 
ATOM     21  C   UNL     1       2.272   4.786  19.805  0.00  0.00    +0.000 C 
ENDBRANCH  13  14
ENDBRANCH   3  13
TORSDOF 3
ENDMDL
MODEL 8
REMARK VINA RESULT:      -7.0      1.347      1.347
REMARK  Name = 
REMARK  3 active torsions:
REMARK  status: ('A' for Active; 'I' for Inactive)
REMARK    1  A    between atoms: C_5  and  C_6
REMARK    2  A    between atoms: N_8  and  C_9
REMARK    3  A    between atoms: C_9  and  C_10
REMARK                            x       y       z     vdW  Elec       q    Type
REMARK                         _______ _______ _______ _____ _____    ______ ____
ROOT
ATOM      1  C   UNL     1       4.099   6.660  17.815  0.00  0.00    +0.000 C 
ATOM      2  O   UNL     1       3.174   7.362  17.410  0.00  0.00    +0.000 OA
ATOM      3  N   UNL     1       4.042   6.027  19.038  0.00  0.00    +0.000 N 
ATOM      4  H   UNL     1       4.843   5.494  19.350  0.00  0.00    +0.000 HD
ENDROOT
BRANCH   1   9
ATOM      5  N   UNL     1       7.789   5.309  14.495  0.00  0.00    +0.000 N 
ATOM      6  C   UNL     1       7.063   5.818  15.501  0.00  0.00    +0.000 A 
ATOM      7  N   UNL     1       7.570   6.570  16.442  0.00  0.00    +0.000 NA
ATOM      8  C   UNL     1       6.576   6.928  17.337  0.00  0.00    +0.000 A 
ATOM      9  C   UNL     1       5.311   6.452  17.051  0.00  0.00    +0.000 A 
ATOM     10  S   UNL     1       5.376   5.525  15.613  0.00  0.00    +0.000 S 
ATOM     11  H   UNL     1       8.696   5.737  14.345  0.00  0.00    +0.000 HD
ATOM     12  H   UNL     1       7.311   5.026  13.648  0.00  0.00    +0.000 HD
ENDBRANCH   1   9
BRANCH   3  13
ATOM     13  C   UNL     1       2.935   6.249  19.933  0.00  0.00    +0.000 C 
BRANCH  13  14
ATOM     14  C   UNL     1       2.366   4.951  20.418  0.00  0.00    +0.000 C 
ATOM     15  C   UNL     1       0.861   4.854  20.483  0.00  0.00    +0.000 C 
ATOM     16  C   UNL     1       1.617   3.926  19.561  0.00  0.00    +0.000 C 
ATOM     17  C   UNL     1       1.620   2.463  19.968  0.00  0.00    +0.000 C 
ATOM     18  C   UNL     1       2.649   1.660  19.174  0.00  0.00    +0.000 C 
ATOM     19  C   UNL     1       2.477   1.857  17.670  0.00  0.00    +0.000 C 
ATOM     20  C   UNL     1       2.521   3.340  17.304  0.00  0.00    +0.000 C 
ATOM     21  C   UNL     1       1.453   4.121  18.067  0.00  0.00    +0.000 C 
ENDBRANCH  13  14
ENDBRANCH   3  13
TORSDOF 3
ENDMDL
MODEL 9
REMARK VINA RESULT:      -7.0      1.688      2.675
REMARK  Name = 
REMARK  3 active torsions:
REMARK  status: ('A' for Active; 'I' for Inactive)
REMARK    1  A    between atoms: C_5  and  C_6
REMARK    2  A    between atoms: N_8  and  C_9
REMARK    3  A    between atoms: C_9  and  C_10
REMARK                            x       y       z     vdW  Elec       q    Type
REMARK                         _______ _______ _______ _____ _____    ______ ____
ROOT
ATOM      1  C   UNL     1       5.708   4.882  16.816  0.00  0.00    +0.000 C 
ATOM      2  O   UNL     1       6.240   4.394  17.812  0.00  0.00    +0.000 OA
ATOM      3  N   UNL     1       4.479   5.504  16.886  0.00  0.00    +0.000 N 
ATOM      4  H   UNL     1       4.060   5.854  16.035  0.00  0.00    +0.000 HD
ENDROOT
BRANCH   1   9
ATOM      5  N   UNL     1       7.113   4.026  11.943  0.00  0.00    +0.000 N 
ATOM      6  C   UNL     1       7.001   4.438  13.214  0.00  0.00    +0.000 A 
ATOM      7  N   UNL     1       7.846   5.259  13.779  0.00  0.00    +0.000 NA
ATOM      8  C   UNL     1       7.469   5.483  15.091  0.00  0.00    +0.000 A 
ATOM      9  C   UNL     1       6.321   4.837  15.505  0.00  0.00    +0.000 A 
ATOM     10  S   UNL     1       5.699   3.917  14.202  0.00  0.00    +0.000 S 
ATOM     11  H   UNL     1       7.732   4.573  11.355  0.00  0.00    +0.000 HD
ATOM     12  H   UNL     1       6.288   3.674  11.473  0.00  0.00    +0.000 HD
ENDBRANCH   1   9
BRANCH   3  13
ATOM     13  C   UNL     1       3.726   5.513  18.114  0.00  0.00    +0.000 C 
BRANCH  13  14
ATOM     14  C   UNL     1       2.512   4.641  18.008  0.00  0.00    +0.000 C 
ATOM     15  C   UNL     1       2.669   3.353  17.239  0.00  0.00    +0.000 C 
ATOM     16  C   UNL     1       2.316   3.292  18.707  0.00  0.00    +0.000 C 
ATOM     17  C   UNL     1       0.911   2.807  19.020  0.00  0.00    +0.000 C 
ATOM     18  C   UNL     1       0.536   3.072  20.476  0.00  0.00    +0.000 C 
ATOM     19  C   UNL     1       1.584   2.516  21.437  0.00  0.00    +0.000 C 
ATOM     20  C   UNL     1       2.973   3.063  21.109  0.00  0.00    +0.000 C 
ATOM     21  C   UNL     1       3.355   2.745  19.665  0.00  0.00    +0.000 C 
ENDBRANCH  13  14
ENDBRANCH   3  13
TORSDOF 3
ENDMDL
