MODEL 1
REMARK VINA RESULT:      -7.9      0.000      0.000
REMARK  Name = 
REMARK  5 active torsions:
REMARK  status: ('A' for Active; 'I' for Inactive)
REMARK    1  A    between atoms: C_1  and  C_2
REMARK    2  A    between atoms: C_6  and  C_7
REMARK    3  A    between atoms: C_9  and  C_10
REMARK    4  A    between atoms: C_16  and  C_17
REMARK    5  A    between atoms: C_17  and  N_18
REMARK                            x       y       z     vdW  Elec       q    Type
REMARK                         _______ _______ _______ _____ _____    ______ ____
ROOT
ATOM      1  C   UNL     1       4.084   3.920  17.629  0.00  0.00    +0.000 C 
ATOM      2  O   UNL     1       3.996   2.721  17.381  0.00  0.00    +0.000 OA
ATOM      3  N   UNL     1       3.488   4.519  18.739  0.00  0.00    +0.000 N 
ATOM      4  C   UNL     1       2.971   3.646  19.792  0.00  0.00    +0.000 C 
ATOM      5  C   UNL     1       1.667   4.164  20.388  0.00  0.00    +0.000 C 
ATOM      6  C   UNL     1       1.778   5.635  20.786  0.00  0.00    +0.000 C 
ATOM      7  C   UNL     1       2.175   6.453  19.546  0.00  0.00    +0.000 C 
ATOM      8  C   UNL     1       3.543   5.954  19.055  0.00  0.00    +0.000 C 
ENDROOT
BRANCH   1  11
ATOM      9  C   UNL     1       6.228   4.342  16.258  0.00  0.00    +0.000 C 
ATOM     10  C   UNL     1       6.068   5.570  17.112  0.00  0.00    +0.000 C 
ATOM     11  C   UNL     1       4.845   4.797  16.700  0.00  0.00    +0.000 C 
BRANCH   9  17
ATOM     12  C   UNL     1       5.252   2.604  11.574  0.00  0.00    +0.000 C 
ATOM     13  C   UNL     1       6.019   3.508  12.493  0.00  0.00    +0.000 A 
ATOM     14  C   UNL     1       7.043   4.325  11.995  0.00  0.00    +0.000 A 
ATOM     15  C   UNL     1       7.765   5.141  12.861  0.00  0.00    +0.000 A 
ATOM     16  C   UNL     1       7.471   5.140  14.223  0.00  0.00    +0.000 A 
ATOM     17  C   UNL     1       6.460   4.325  14.764  0.00  0.00    +0.000 A 
ATOM     18  C   UNL     1       5.734   3.522  13.869  0.00  0.00    +0.000 A 
ENDBRANCH   9  17
ENDBRANCH   1  11
BRANCH   7  19
ATOM     19  C   UNL     1       2.170   7.981  19.777  0.00  0.00    +0.000 C 
BRANCH  19  20
ATOM     20  N   UNL     1       1.077   8.674  19.078  0.00  0.00    +0.000 NA
ATOM     21  C   UNL     1       1.481   9.400  17.854  0.00  0.00    +0.000 C 
ATOM     22  C   UNL     1       2.122  10.776  18.099  0.00  0.00    +0.000 C 
ATOM     23  O   UNL     1       1.268  11.610  18.888  0.00  0.00    +0.000 OA
ATOM     24  C   UNL     1       0.989  10.984  20.145  0.00  0.00    +0.000 C 
ATOM     25  C   UNL     1       0.334   9.604  19.957  0.00  0.00    +0.000 C 
ENDBRANCH  19  20
ENDBRANCH   7  19
TORSDOF 4
ENDMDL
MODEL 2
REMARK VINA RESULT:      -7.7      0.926      1.136
REMARK  Name = 
REMARK  5 active torsions:
REMARK  status: ('A' for Active; 'I' for Inactive)
REMARK    1  A    between atoms: C_1  and  C_2
REMARK    2  A    between atoms: C_6  and  C_7
REMARK    3  A    between atoms: C_9  and  C_10
REMARK    4  A    between atoms: C_16  and  C_17
REMARK    5  A    between atoms: C_17  and  N_18
REMARK                            x       y       z     vdW  Elec       q    Type
REMARK                         _______ _______ _______ _____ _____    ______ ____
ROOT
ATOM      1  C   UNL     1       3.865   3.873  17.625  0.00  0.00    +0.000 C 
ATOM      2  O   UNL     1       3.747   2.688  17.330  0.00  0.00    +0.000 OA
ATOM      3  N   UNL     1       3.304   4.437  18.773  0.00  0.00    +0.000 N 
ATOM      4  C   UNL     1       2.793   3.531  19.799  0.00  0.00    +0.000 C 
ATOM      5  C   UNL     1       1.512   4.049  20.445  0.00  0.00    +0.000 C 
ATOM      6  C   UNL     1       1.661   5.500  20.900  0.00  0.00    +0.000 C 
ATOM      7  C   UNL     1       2.048   6.360  19.687  0.00  0.00    +0.000 C 
ATOM      8  C   UNL     1       3.395   5.856  19.146  0.00  0.00    +0.000 C 
ENDROOT
BRANCH   1  11
ATOM      9  C   UNL     1       6.044   4.380  16.342  0.00  0.00    +0.000 C 
ATOM     10  C   UNL     1       5.790   5.609  17.170  0.00  0.00    +0.000 C 
ATOM     11  C   UNL     1       4.624   4.773  16.718  0.00  0.00    +0.000 C 
BRANCH   9  17
ATOM     12  C   UNL     1       5.245   2.646  11.622  0.00  0.00    +0.000 C 
ATOM     13  C   UNL     1       5.987   3.539  12.573  0.00  0.00    +0.000 A 
ATOM     14  C   UNL     1       7.045   4.337  12.119  0.00  0.00    +0.000 A 
ATOM     15  C   UNL     1       7.743   5.142  13.014  0.00  0.00    +0.000 A 
ATOM     16  C   UNL     1       7.390   5.151  14.362  0.00  0.00    +0.000 A 
ATOM     17  C   UNL     1       6.341   4.354  14.859  0.00  0.00    +0.000 A 
ATOM     18  C   UNL     1       5.642   3.562  13.935  0.00  0.00    +0.000 A 
ENDBRANCH   9  17
ENDBRANCH   1  11
BRANCH   7  19
ATOM     19  C   UNL     1       2.079   7.877  19.981  0.00  0.00    +0.000 C 
BRANCH  19  20
ATOM     20  N   UNL     1       0.740   8.471  20.125  0.00  0.00    +0.000 NA
ATOM     21  C   UNL     1       0.599   9.833  19.566  0.00  0.00    +0.000 C 
ATOM     22  C   UNL     1       1.136  10.961  20.462  0.00  0.00    +0.000 C 
ATOM     23  O   UNL     1       0.538  10.915  21.761  0.00  0.00    +0.000 OA
ATOM     24  C   UNL     1       0.797   9.652  22.381  0.00  0.00    +0.000 C 
ATOM     25  C   UNL     1       0.268   8.485  21.527  0.00  0.00    +0.000 C 
ENDBRANCH  19  20
ENDBRANCH   7  19
TORSDOF 4
ENDMDL
MODEL 3
REMARK VINA RESULT:      -7.7      4.705      6.978
REMARK  Name = 
REMARK  5 active torsions:
REMARK  status: ('A' for Active; 'I' for Inactive)
REMARK    1  A    between atoms: C_1  and  C_2
REMARK    2  A    between atoms: C_6  and  C_7
REMARK    3  A    between atoms: C_9  and  C_10
REMARK    4  A    between atoms: C_16  and  C_17
REMARK    5  A    between atoms: C_17  and  N_18
REMARK                            x       y       z     vdW  Elec       q    Type
REMARK                         _______ _______ _______ _____ _____    ______ ____
ROOT
ATOM      1  C   UNL     1       1.302   8.928  20.876  0.00  0.00    +0.000 C 
ATOM      2  O   UNL     1       1.832   8.626  21.941  0.00  0.00    +0.000 OA
ATOM      3  N   UNL     1       0.664  10.149  20.656  0.00  0.00    +0.000 N 
ATOM      4  C   UNL     1       0.870  11.215  21.635  0.00  0.00    +0.000 C 
ATOM      5  C   UNL     1      -0.394  12.031  21.880  0.00  0.00    +0.000 C 
ATOM      6  C   UNL     1      -1.027  12.492  20.568  0.00  0.00    +0.000 C 
ATOM      7  C   UNL     1      -1.333  11.257  19.707  0.00  0.00    +0.000 C 
ATOM      8  C   UNL     1      -0.009  10.536  19.407  0.00  0.00    +0.000 C 
ENDROOT
BRANCH   1  11
ATOM      9  C   UNL     1       2.486   6.979  19.669  0.00  0.00    +0.000 C 
ATOM     10  C   UNL     1       2.280   8.024  18.606  0.00  0.00    +0.000 C 
ATOM     11  C   UNL     1       1.316   7.948  19.758  0.00  0.00    +0.000 C 
BRANCH   9  17
ATOM     12  C   UNL     1       1.424   2.443  21.721  0.00  0.00    +0.000 C 
ATOM     13  C   UNL     1       1.600   3.316  20.514  0.00  0.00    +0.000 A 
ATOM     14  C   UNL     1       1.495   2.777  19.225  0.00  0.00    +0.000 A 
ATOM     15  C   UNL     1       1.686   3.591  18.112  0.00  0.00    +0.000 A 
ATOM     16  C   UNL     1       1.986   4.941  18.283  0.00  0.00    +0.000 A 
ATOM     17  C   UNL     1       2.113   5.518  19.561  0.00  0.00    +0.000 A 
ATOM     18  C   UNL     1       1.900   4.680  20.668  0.00  0.00    +0.000 A 
ENDBRANCH   9  17
ENDBRANCH   1  11
BRANCH   7  19
ATOM     19  C   UNL     1      -2.120  11.575  18.415  0.00  0.00    +0.000 C 
BRANCH  19  20
ATOM     20  N   UNL     1      -2.878  10.426  17.895  0.00  0.00    +0.000 NA
ATOM     21  C   UNL     1      -2.382   9.881  16.613  0.00  0.00    +0.000 C 
ATOM     22  C   UNL     1      -2.816  10.663  15.363  0.00  0.00    +0.000 C 
ATOM     23  O   UNL     1      -4.240  10.794  15.306  0.00  0.00    +0.000 OA
ATOM     24  C   UNL     1      -4.724  11.460  16.477  0.00  0.00    +0.000 C 
ATOM     25  C   UNL     1      -4.324  10.710  17.760  0.00  0.00    +0.000 C 
ENDBRANCH  19  20
ENDBRANCH   7  19
TORSDOF 4
ENDMDL
MODEL 4
REMARK VINA RESULT:      -7.5      3.565      6.167
REMARK  Name = 
REMARK  5 active torsions:
REMARK  status: ('A' for Active; 'I' for Inactive)
REMARK    1  A    between atoms: C_1  and  C_2
REMARK    2  A    between atoms: C_6  and  C_7
REMARK    3  A    between atoms: C_9  and  C_10
REMARK    4  A    between atoms: C_16  and  C_17
REMARK    5  A    between atoms: C_17  and  N_18
REMARK                            x       y       z     vdW  Elec       q    Type
REMARK                         _______ _______ _______ _____ _____    ______ ____
ROOT
ATOM      1  C   UNL     1       1.394   8.548  19.982  0.00  0.00    +0.000 C 
ATOM      2  O   UNL     1       1.748   8.071  21.056  0.00  0.00    +0.000 OA
ATOM      3  N   UNL     1       0.675   9.740  19.872  0.00  0.00    +0.000 N 
ATOM      4  C   UNL     1       0.579  10.592  21.055  0.00  0.00    +0.000 C 
ATOM      5  C   UNL     1      -0.792  11.247  21.189  0.00  0.00    +0.000 C 
ATOM      6  C   UNL     1      -1.219  11.923  19.888  0.00  0.00    +0.000 C 
ATOM      7  C   UNL     1      -1.222  10.873  18.764  0.00  0.00    +0.000 C 
ATOM      8  C   UNL     1       0.205  10.327  18.609  0.00  0.00    +0.000 C 
ENDROOT
BRANCH   1  11
ATOM      9  C   UNL     1       3.022   7.037  18.671  0.00  0.00    +0.000 C 
ATOM     10  C   UNL     1       2.827   8.244  17.795  0.00  0.00    +0.000 C 
ATOM     11  C   UNL     1       1.722   7.824  18.726  0.00  0.00    +0.000 C 
BRANCH   9  17
ATOM     12  C   UNL     1       0.778   2.471  18.844  0.00  0.00    +0.000 C 
ATOM     13  C   UNL     1       1.839   3.380  18.296  0.00  0.00    +0.000 A 
ATOM     14  C   UNL     1       2.803   2.892  17.404  0.00  0.00    +0.000 A 
ATOM     15  C   UNL     1       3.797   3.738  16.923  0.00  0.00    +0.000 A 
ATOM     16  C   UNL     1       3.834   5.070  17.332  0.00  0.00    +0.000 A 
ATOM     17  C   UNL     1       2.892   5.595  18.236  0.00  0.00    +0.000 A 
ATOM     18  C   UNL     1       1.889   4.726  18.696  0.00  0.00    +0.000 A 
ENDBRANCH   9  17
ENDBRANCH   1  11
BRANCH   7  19
ATOM     19  C   UNL     1      -1.788  11.395  17.424  0.00  0.00    +0.000 C 
BRANCH  19  20
ATOM     20  N   UNL     1      -2.785  10.496  16.822  0.00  0.00    +0.000 NA
ATOM     21  C   UNL     1      -3.739  11.152  15.900  0.00  0.00    +0.000 C 
ATOM     22  C   UNL     1      -4.899  11.891  16.586  0.00  0.00    +0.000 C 
ATOM     23  O   UNL     1      -5.612  11.022  17.471  0.00  0.00    +0.000 OA
ATOM     24  C   UNL     1      -4.729  10.495  18.467  0.00  0.00    +0.000 C 
ATOM     25  C   UNL     1      -3.551   9.734  17.832  0.00  0.00    +0.000 C 
ENDBRANCH  19  20
ENDBRANCH   7  19
TORSDOF 4
ENDMDL
MODEL 5
REMARK VINA RESULT:      -7.5      3.584      6.032
REMARK  Name = 
REMARK  5 active torsions:
REMARK  status: ('A' for Active; 'I' for Inactive)
REMARK    1  A    between atoms: C_1  and  C_2
REMARK    2  A    between atoms: C_6  and  C_7
REMARK    3  A    between atoms: C_9  and  C_10
REMARK    4  A    between atoms: C_16  and  C_17
REMARK    5  A    between atoms: C_17  and  N_18
REMARK                            x       y       z     vdW  Elec       q    Type
REMARK                         _______ _______ _______ _____ _____    ______ ____
ROOT
ATOM      1  C   UNL     1       1.559   8.394  20.360  0.00  0.00    +0.000 C 
ATOM      2  O   UNL     1       2.100   7.893  21.341  0.00  0.00    +0.000 OA
ATOM      3  N   UNL     1       0.820   9.577  20.414  0.00  0.00    +0.000 N 
ATOM      4  C   UNL     1       0.922  10.393  21.622  0.00  0.00    +0.000 C 
ATOM      5  C   UNL     1      -0.411  11.022  22.012  0.00  0.00    +0.000 C 
ATOM      6  C   UNL     1      -1.065  11.729  20.826  0.00  0.00    +0.000 C 
ATOM      7  C   UNL     1      -1.254  10.712  19.689  0.00  0.00    +0.000 C 
ATOM      8  C   UNL     1       0.130  10.192  19.270  0.00  0.00    +0.000 C 
ENDROOT
BRANCH   1  11
ATOM      9  C   UNL     1       2.985   7.029  18.701  0.00  0.00    +0.000 C 
ATOM     10  C   UNL     1       2.522   8.226  17.917  0.00  0.00    +0.000 C 
ATOM     11  C   UNL     1       1.670   7.711  19.045  0.00  0.00    +0.000 C 
BRANCH   9  17
ATOM     12  C   UNL     1       0.778   2.443  18.838  0.00  0.00    +0.000 C 
ATOM     13  C   UNL     1       1.839   3.362  18.307  0.00  0.00    +0.000 A 
ATOM     14  C   UNL     1       2.822   2.882  17.431  0.00  0.00    +0.000 A 
ATOM     15  C   UNL     1       3.817   3.736  16.966  0.00  0.00    +0.000 A 
ATOM     16  C   UNL     1       3.836   5.068  17.376  0.00  0.00    +0.000 A 
ATOM     17  C   UNL     1       2.875   5.586  18.264  0.00  0.00    +0.000 A 
ATOM     18  C   UNL     1       1.872   4.708  18.707  0.00  0.00    +0.000 A 
ENDBRANCH   9  17
ENDBRANCH   1  11
BRANCH   7  19
ATOM     19  C   UNL     1      -2.050  11.262  18.484  0.00  0.00    +0.000 C 
BRANCH  19  20
ATOM     20  N   UNL     1      -2.921  10.259  17.852  0.00  0.00    +0.000 NA
ATOM     21  C   UNL     1      -2.499   9.829  16.501  0.00  0.00    +0.000 C 
ATOM     22  C   UNL     1      -2.879  10.794  15.365  0.00  0.00    +0.000 C 
ATOM     23  O   UNL     1      -4.284  11.060  15.363  0.00  0.00    +0.000 OA
ATOM     24  C   UNL     1      -4.684  11.621  16.618  0.00  0.00    +0.000 C 
ATOM     25  C   UNL     1      -4.336  10.687  17.791  0.00  0.00    +0.000 C 
ENDBRANCH  19  20
ENDBRANCH   7  19
TORSDOF 4
ENDMDL
MODEL 6
REMARK VINA RESULT:      -7.5      2.131      8.287
REMARK  Name = 
REMARK  5 active torsions:
REMARK  status: ('A' for Active; 'I' for Inactive)
REMARK    1  A    between atoms: C_1  and  C_2
REMARK    2  A    between atoms: C_6  and  C_7
REMARK    3  A    between atoms: C_9  and  C_10
REMARK    4  A    between atoms: C_16  and  C_17
REMARK    5  A    between atoms: C_17  and  N_18
REMARK                            x       y       z     vdW  Elec       q    Type
REMARK                         _______ _______ _______ _____ _____    ______ ____
ROOT
ATOM      1  C   UNL     1       1.748   7.904  20.211  0.00  0.00    +0.000 C 
ATOM      2  O   UNL     1       1.369   8.189  21.343  0.00  0.00    +0.000 OA
ATOM      3  N   UNL     1       2.002   6.597  19.793  0.00  0.00    +0.000 N 
ATOM      4  C   UNL     1       1.539   5.505  20.646  0.00  0.00    +0.000 C 
ATOM      5  C   UNL     1       2.527   4.343  20.690  0.00  0.00    +0.000 C 
ATOM      6  C   UNL     1       2.949   3.913  19.287  0.00  0.00    +0.000 C 
ATOM      7  C   UNL     1       3.561   5.124  18.563  0.00  0.00    +0.000 C 
ATOM      8  C   UNL     1       2.487   6.218  18.458  0.00  0.00    +0.000 C 
ENDROOT
BRANCH   1  11
ATOM      9  C   UNL     1       0.920  10.093  19.124  0.00  0.00    +0.000 C 
ATOM     10  C   UNL     1       1.156   9.155  17.972  0.00  0.00    +0.000 C 
ATOM     11  C   UNL     1       1.970   8.996  19.227  0.00  0.00    +0.000 C 
BRANCH   9  17
ATOM     12  C   UNL     1       1.463  14.503  21.609  0.00  0.00    +0.000 C 
ATOM     13  C   UNL     1       1.722  13.647  20.404  0.00  0.00    +0.000 A 
ATOM     14  C   UNL     1       2.407  14.166  19.298  0.00  0.00    +0.000 A 
ATOM     15  C   UNL     1       2.619  13.372  18.175  0.00  0.00    +0.000 A 
ATOM     16  C   UNL     1       2.147  12.061  18.152  0.00  0.00    +0.000 A 
ATOM     17  C   UNL     1       1.444  11.506  19.238  0.00  0.00    +0.000 A 
ATOM     18  C   UNL     1       1.255  12.322  20.366  0.00  0.00    +0.000 A 
ENDBRANCH   9  17
ENDBRANCH   1  11
BRANCH   7  19
ATOM     19  C   UNL     1       4.172   4.784  17.184  0.00  0.00    +0.000 C 
BRANCH  19  20
ATOM     20  N   UNL     1       5.212   5.733  16.757  0.00  0.00    +0.000 NA
ATOM     21  C   UNL     1       5.699   5.542  15.374  0.00  0.00    +0.000 C 
ATOM     22  C   UNL     1       6.732   4.416  15.199  0.00  0.00    +0.000 C 
ATOM     23  O   UNL     1       7.847   4.599  16.076  0.00  0.00    +0.000 OA
ATOM     24  C   UNL     1       7.406   4.634  17.438  0.00  0.00    +0.000 C 
ATOM     25  C   UNL     1       6.376   5.754  17.670  0.00  0.00    +0.000 C 
ENDBRANCH  19  20
ENDBRANCH   7  19
TORSDOF 4
ENDMDL
MODEL 7
REMARK VINA RESULT:      -7.4      4.348      6.745
REMARK  Name = 
REMARK  5 active torsions:
REMARK  status: ('A' for Active; 'I' for Inactive)
REMARK    1  A    between atoms: C_1  and  C_2
REMARK    2  A    between atoms: C_6  and  C_7
REMARK    3  A    between atoms: C_9  and  C_10
REMARK    4  A    between atoms: C_16  and  C_17
REMARK    5  A    between atoms: C_17  and  N_18
REMARK                            x       y       z     vdW  Elec       q    Type
REMARK                         _______ _______ _______ _____ _____    ______ ____
ROOT
ATOM      1  C   UNL     1       1.298   8.701  20.926  0.00  0.00    +0.000 C 
ATOM      2  O   UNL     1       1.735   8.413  22.036  0.00  0.00    +0.000 OA
ATOM      3  N   UNL     1       0.718   9.935  20.627  0.00  0.00    +0.000 N 
ATOM      4  C   UNL     1       0.885  11.020  21.591  0.00  0.00    +0.000 C 
ATOM      5  C   UNL     1      -0.367  11.882  21.719  0.00  0.00    +0.000 C 
ATOM      6  C   UNL     1      -0.883  12.326  20.351  0.00  0.00    +0.000 C 
ATOM      7  C   UNL     1      -1.164  11.077  19.501  0.00  0.00    +0.000 C 
ATOM      8  C   UNL     1       0.154  10.307  19.321  0.00  0.00    +0.000 C 
ENDROOT
BRANCH   1  11
ATOM      9  C   UNL     1       2.561   6.753  19.802  0.00  0.00    +0.000 C 
ATOM     10  C   UNL     1       2.351   7.760  18.705  0.00  0.00    +0.000 C 
ATOM     11  C   UNL     1       1.363   7.690  19.838  0.00  0.00    +0.000 C 
BRANCH   9  17
ATOM     12  C   UNL     1       2.590   2.249  17.429  0.00  0.00    +0.000 C 
ATOM     13  C   UNL     1       2.223   3.094  18.614  0.00  0.00    +0.000 A 
ATOM     14  C   UNL     1       1.487   2.550  19.674  0.00  0.00    +0.000 A 
ATOM     15  C   UNL     1       1.129   3.350  20.756  0.00  0.00    +0.000 A 
ATOM     16  C   UNL     1       1.502   4.692  20.780  0.00  0.00    +0.000 A 
ATOM     17  C   UNL     1       2.232   5.279  19.729  0.00  0.00    +0.000 A 
ATOM     18  C   UNL     1       2.594   4.449  18.656  0.00  0.00    +0.000 A 
ENDBRANCH   9  17
ENDBRANCH   1  11
BRANCH   7  19
ATOM     19  C   UNL     1      -1.840  11.383  18.145  0.00  0.00    +0.000 C 
BRANCH  19  20
ATOM     20  N   UNL     1      -2.686  10.285  17.653  0.00  0.00    +0.000 NA
ATOM     21  C   UNL     1      -2.412   9.860  16.263  0.00  0.00    +0.000 C 
ATOM     22  C   UNL     1      -3.034  10.753  15.177  0.00  0.00    +0.000 C 
ATOM     23  O   UNL     1      -4.446  10.885  15.364  0.00  0.00    +0.000 OA
ATOM     24  C   UNL     1      -4.725  11.440  16.654  0.00  0.00    +0.000 C 
ATOM     25  C   UNL     1      -4.131  10.576  17.782  0.00  0.00    +0.000 C 
ENDBRANCH  19  20
ENDBRANCH   7  19
TORSDOF 4
ENDMDL
MODEL 8
REMARK VINA RESULT:      -7.4      2.375      7.843
REMARK  Name = 
REMARK  5 active torsions:
REMARK  status: ('A' for Active; 'I' for Inactive)
REMARK    1  A    between atoms: C_1  and  C_2
REMARK    2  A    between atoms: C_6  and  C_7
REMARK    3  A    between atoms: C_9  and  C_10
REMARK    4  A    between atoms: C_16  and  C_17
REMARK    5  A    between atoms: C_17  and  N_18
REMARK                            x       y       z     vdW  Elec       q    Type
REMARK                         _______ _______ _______ _____ _____    ______ ____
ROOT
ATOM      1  C   UNL     1       1.582   7.636  20.234  0.00  0.00    +0.000 C 
ATOM      2  O   UNL     1       0.824   7.924  21.155  0.00  0.00    +0.000 OA
ATOM      3  N   UNL     1       2.053   6.342  20.005  0.00  0.00    +0.000 N 
ATOM      4  C   UNL     1       1.407   5.243  20.719  0.00  0.00    +0.000 C 
ATOM      5  C   UNL     1       2.401   4.174  21.160  0.00  0.00    +0.000 C 
ATOM      6  C   UNL     1       3.302   3.735  20.006  0.00  0.00    +0.000 C 
ATOM      7  C   UNL     1       4.035   4.969  19.456  0.00  0.00    +0.000 C 
ATOM      8  C   UNL     1       2.986   5.962  18.933  0.00  0.00    +0.000 C 
ENDROOT
BRANCH   1  11
ATOM      9  C   UNL     1       1.000   9.461  18.506  0.00  0.00    +0.000 C 
ATOM     10  C   UNL     1       2.011   8.586  17.817  0.00  0.00    +0.000 C 
ATOM     11  C   UNL     1       2.046   8.709  19.316  0.00  0.00    +0.000 C 
BRANCH   9  17
ATOM     12  C   UNL     1       3.455  13.907  18.155  0.00  0.00    +0.000 C 
ATOM     13  C   UNL     1       2.208  13.129  18.458  0.00  0.00    +0.000 A 
ATOM     14  C   UNL     1       1.059  13.781  18.925  0.00  0.00    +0.000 A 
ATOM     15  C   UNL     1      -0.083  13.046  19.227  0.00  0.00    +0.000 A 
ATOM     16  C   UNL     1      -0.081  11.661  19.067  0.00  0.00    +0.000 A 
ATOM     17  C   UNL     1       1.056  10.968  18.612  0.00  0.00    +0.000 A 
ATOM     18  C   UNL     1       2.192  11.733  18.299  0.00  0.00    +0.000 A 
ENDBRANCH   9  17
ENDBRANCH   1  11
BRANCH   7  19
ATOM     19  C   UNL     1       5.098   4.638  18.384  0.00  0.00    +0.000 C 
BRANCH  19  20
ATOM     20  N   UNL     1       5.035   5.520  17.208  0.00  0.00    +0.000 NA
ATOM     21  C   UNL     1       5.366   4.868  15.922  0.00  0.00    +0.000 C 
ATOM     22  C   UNL     1       6.869   4.700  15.648  0.00  0.00    +0.000 C 
ATOM     23  O   UNL     1       7.553   5.954  15.736  0.00  0.00    +0.000 OA
ATOM     24  C   UNL     1       7.367   6.529  17.034  0.00  0.00    +0.000 C 
ATOM     25  C   UNL     1       5.875   6.729  17.355  0.00  0.00    +0.000 C 
ENDBRANCH  19  20
ENDBRANCH   7  19
TORSDOF 4
ENDMDL
MODEL 9
REMARK VINA RESULT:      -7.4      2.474      8.009
REMARK  Name = 
REMARK  5 active torsions:
REMARK  status: ('A' for Active; 'I' for Inactive)
REMARK    1  A    between atoms: C_1  and  C_2
REMARK    2  A    between atoms: C_6  and  C_7
REMARK    3  A    between atoms: C_9  and  C_10
REMARK    4  A    between atoms: C_16  and  C_17
REMARK    5  A    between atoms: C_17  and  N_18
REMARK                            x       y       z     vdW  Elec       q    Type
REMARK                         _______ _______ _______ _____ _____    ______ ____
ROOT
ATOM      1  C   UNL     1       1.758   7.475  20.153  0.00  0.00    +0.000 C 
ATOM      2  O   UNL     1       1.186   7.765  21.200  0.00  0.00    +0.000 OA
ATOM      3  N   UNL     1       2.098   6.168  19.802  0.00  0.00    +0.000 N 
ATOM      4  C   UNL     1       1.511   5.077  20.577  0.00  0.00    +0.000 C 
ATOM      5  C   UNL     1       2.494   3.932  20.805  0.00  0.00    +0.000 C 
ATOM      6  C   UNL     1       3.156   3.495  19.499  0.00  0.00    +0.000 C 
ATOM      7  C   UNL     1       3.865   4.707  18.875  0.00  0.00    +0.000 C 
ATOM      8  C   UNL     1       2.810   5.783  18.574  0.00  0.00    +0.000 C 
ENDROOT
BRANCH   1  11
ATOM      9  C   UNL     1       1.065   9.581  18.834  0.00  0.00    +0.000 C 
ATOM     10  C   UNL     1       1.613   8.639  17.797  0.00  0.00    +0.000 C 
ATOM     11  C   UNL     1       2.130   8.560  19.208  0.00  0.00    +0.000 C 
BRANCH   9  17
ATOM     12  C   UNL     1       0.988  13.980  21.395  0.00  0.00    +0.000 C 
ATOM     13  C   UNL     1       1.442  13.166  20.219  0.00  0.00    +0.000 A 
ATOM     14  C   UNL     1       2.200  13.754  19.198  0.00  0.00    +0.000 A 
ATOM     15  C   UNL     1       2.595  12.996  18.099  0.00  0.00    +0.000 A 
ATOM     16  C   UNL     1       2.231  11.653  18.016  0.00  0.00    +0.000 A 
ATOM     17  C   UNL     1       1.460  11.029  19.015  0.00  0.00    +0.000 A 
ATOM     18  C   UNL     1       1.088  11.810  20.120  0.00  0.00    +0.000 A 
ENDBRANCH   9  17
ENDBRANCH   1  11
BRANCH   7  19
ATOM     19  C   UNL     1       4.708   4.364  17.626  0.00  0.00    +0.000 C 
BRANCH  19  20
ATOM     20  N   UNL     1       6.156   4.507  17.842  0.00  0.00    +0.000 NA
ATOM     21  C   UNL     1       6.577   5.812  18.396  0.00  0.00    +0.000 C 
ATOM     22  C   UNL     1       6.672   6.953  17.370  0.00  0.00    +0.000 C 
ATOM     23  O   UNL     1       7.532   6.598  16.283  0.00  0.00    +0.000 OA
ATOM     24  C   UNL     1       7.050   5.415  15.636  0.00  0.00    +0.000 C 
ATOM     25  C   UNL     1       6.946   4.236  16.620  0.00  0.00    +0.000 C 
ENDBRANCH  19  20
ENDBRANCH   7  19
TORSDOF 4
ENDMDL
