MODEL 1
REMARK VINA RESULT:      -7.1      0.000      0.000
REMARK  Name = 
REMARK  8 active torsions:
REMARK  status: ('A' for Active; 'I' for Inactive)
REMARK    1  A    between atoms: C_2  and  C_4
REMARK    2  A    between atoms: C_9  and  C_10
REMARK    3  A    between atoms: N_12  and  C_13
REMARK    4  A    between atoms: C_13  and  C_14
REMARK    5  A    between atoms: C_14  and  C_15
REMARK    6  A    between atoms: C_15  and  C_16
REMARK    7  A    between atoms: C_16  and  C_17
REMARK    8  A    between atoms: C_17  and  O_19
REMARK                            x       y       z     vdW  Elec       q    Type
REMARK                         _______ _______ _______ _____ _____    ______ ____
ROOT
ATOM      1  C   UNL     1       6.329   4.879  15.842  0.00  0.00    +0.000 A 
ATOM      2  C   UNL     1       7.153   4.700  16.958  0.00  0.00    +0.000 A 
ATOM      3  C   UNL     1       6.664   4.909  18.258  0.00  0.00    +0.000 A 
ATOM      4  C   UNL     1       5.321   5.285  18.393  0.00  0.00    +0.000 A 
ATOM      5  N   UNL     1       4.553   5.539  19.509  0.00  0.00    +0.000 N 
ATOM      6  C   UNL     1       3.260   5.875  19.157  0.00  0.00    +0.000 A 
ATOM      7  C   UNL     1       3.208   5.818  17.777  0.00  0.00    +0.000 A 
ATOM      8  C   UNL     1       4.486   5.460  17.292  0.00  0.00    +0.000 A 
ATOM      9  C   UNL     1       4.993   5.259  15.999  0.00  0.00    +0.000 A 
ATOM     10  H   UNL     1       4.877   5.485  20.469  0.00  0.00    +0.000 HD
ENDROOT
BRANCH   1  12
ATOM     11  N   UNL     1       7.776   5.395  13.989  0.00  0.00    +0.000 NA
ATOM     12  C   UNL     1       6.844   4.638  14.465  0.00  0.00    +0.000 C 
ATOM     13  N   UNL     1       6.330   3.619  13.712  0.00  0.00    +0.000 N 
ATOM     14  H   UNL     1       8.051   5.057  13.065  0.00  0.00    +0.000 HD
ATOM     15  H   UNL     1       6.485   3.683  12.714  0.00  0.00    +0.000 HD
ATOM     16  H   UNL     1       5.373   3.358  13.927  0.00  0.00    +0.000 HD
ENDBRANCH   1  12
BRANCH   6  17
ATOM     17  C   UNL     1       2.238   6.202  20.128  0.00  0.00    +0.000 C 
ATOM     18  O   UNL     1       1.577   5.342  20.697  0.00  0.00    +0.000 OA
ATOM     19  N   UNL     1       2.074   7.553  20.359  0.00  0.00    +0.000 N 
ATOM     20  H   UNL     1       2.629   8.214  19.840  0.00  0.00    +0.000 HD
BRANCH  19  21
ATOM     21  C   UNL     1       1.104   8.079  21.293  0.00  0.00    +0.000 C 
BRANCH  21  22
ATOM     22  C   UNL     1       0.848   9.570  21.076  0.00  0.00    +0.000 C 
BRANCH  22  23
ATOM     23  C   UNL     1      -0.330   9.831  20.131  0.00  0.00    +0.000 C 
BRANCH  23  24
ATOM     24  C   UNL     1       0.051  10.709  18.939  0.00  0.00    +0.000 C 
BRANCH  24  25
ATOM     25  C   UNL     1       1.159  10.102  18.108  0.00  0.00    +0.000 C 
ATOM     26  O   UNL     1       1.221   8.929  17.777  0.00  0.00    +0.000 OA
BRANCH  25  27
ATOM     27  O   UNL     1       2.093  11.006  17.737  0.00  0.00    +0.000 OA
ATOM     28  H   UNL     1       2.971  10.861  18.136  0.00  0.00    +0.000 HD
ENDBRANCH  25  27
ENDBRANCH  24  25
ENDBRANCH  23  24
ENDBRANCH  22  23
ENDBRANCH  21  22
ENDBRANCH  19  21
ENDBRANCH   6  17
TORSDOF 8
ENDMDL
MODEL 2
REMARK VINA RESULT:      -6.8      2.015      2.364
REMARK  Name = 
REMARK  8 active torsions:
REMARK  status: ('A' for Active; 'I' for Inactive)
REMARK    1  A    between atoms: C_2  and  C_4
REMARK    2  A    between atoms: C_9  and  C_10
REMARK    3  A    between atoms: N_12  and  C_13
REMARK    4  A    between atoms: C_13  and  C_14
REMARK    5  A    between atoms: C_14  and  C_15
REMARK    6  A    between atoms: C_15  and  C_16
REMARK    7  A    between atoms: C_16  and  C_17
REMARK    8  A    between atoms: C_17  and  O_19
REMARK                            x       y       z     vdW  Elec       q    Type
REMARK                         _______ _______ _______ _____ _____    ______ ____
ROOT
ATOM      1  C   UNL     1       5.811   4.754  15.475  0.00  0.00    +0.000 A 
ATOM      2  C   UNL     1       5.458   3.645  16.251  0.00  0.00    +0.000 A 
ATOM      3  C   UNL     1       4.590   3.776  17.347  0.00  0.00    +0.000 A 
ATOM      4  C   UNL     1       4.081   5.052  17.622  0.00  0.00    +0.000 A 
ATOM      5  N   UNL     1       3.209   5.497  18.592  0.00  0.00    +0.000 N 
ATOM      6  C   UNL     1       2.983   6.854  18.474  0.00  0.00    +0.000 A 
ATOM      7  C   UNL     1       3.724   7.276  17.386  0.00  0.00    +0.000 A 
ATOM      8  C   UNL     1       4.417   6.165  16.854  0.00  0.00    +0.000 A 
ATOM      9  C   UNL     1       5.295   6.019  15.769  0.00  0.00    +0.000 A 
ATOM     10  H   UNL     1       2.777   4.916  19.304  0.00  0.00    +0.000 HD
ENDROOT
BRANCH   1  12
ATOM     11  N   UNL     1       6.535   3.637  13.470  0.00  0.00    +0.000 NA
ATOM     12  C   UNL     1       6.716   4.609  14.301  0.00  0.00    +0.000 C 
ATOM     13  N   UNL     1       7.733   5.502  14.109  0.00  0.00    +0.000 N 
ATOM     14  H   UNL     1       7.200   3.720  12.699  0.00  0.00    +0.000 HD
ATOM     15  H   UNL     1       8.480   5.199  13.497  0.00  0.00    +0.000 HD
ATOM     16  H   UNL     1       8.092   5.942  14.950  0.00  0.00    +0.000 HD
ENDBRANCH   1  12
BRANCH   6  17
ATOM     17  C   UNL     1       2.116   7.590  19.369  0.00  0.00    +0.000 C 
ATOM     18  O   UNL     1       1.807   7.164  20.475  0.00  0.00    +0.000 OA
ATOM     19  N   UNL     1       1.673   8.801  18.878  0.00  0.00    +0.000 N 
ATOM     20  H   UNL     1       1.940   9.085  17.948  0.00  0.00    +0.000 HD
BRANCH  19  21
ATOM     21  C   UNL     1       0.800   9.681  19.621  0.00  0.00    +0.000 C 
BRANCH  21  22
ATOM     22  C   UNL     1       0.061  10.661  18.712  0.00  0.00    +0.000 C 
BRANCH  22  23
ATOM     23  C   UNL     1      -1.462  10.534  18.827  0.00  0.00    +0.000 C 
BRANCH  23  24
ATOM     24  C   UNL     1      -2.098   9.894  17.593  0.00  0.00    +0.000 C 
BRANCH  24  25
ATOM     25  C   UNL     1      -2.265  10.875  16.456  0.00  0.00    +0.000 C 
ATOM     26  O   UNL     1      -2.616  10.581  15.324  0.00  0.00    +0.000 OA
BRANCH  25  27
ATOM     27  O   UNL     1      -2.002  12.151  16.819  0.00  0.00    +0.000 OA
ATOM     28  H   UNL     1      -1.716  12.725  16.084  0.00  0.00    +0.000 HD
ENDBRANCH  25  27
ENDBRANCH  24  25
ENDBRANCH  23  24
ENDBRANCH  22  23
ENDBRANCH  21  22
ENDBRANCH  19  21
ENDBRANCH   6  17
TORSDOF 8
ENDMDL
MODEL 3
REMARK VINA RESULT:      -6.8      3.153      7.555
REMARK  Name = 
REMARK  8 active torsions:
REMARK  status: ('A' for Active; 'I' for Inactive)
REMARK    1  A    between atoms: C_2  and  C_4
REMARK    2  A    between atoms: C_9  and  C_10
REMARK    3  A    between atoms: N_12  and  C_13
REMARK    4  A    between atoms: C_13  and  C_14
REMARK    5  A    between atoms: C_14  and  C_15
REMARK    6  A    between atoms: C_15  and  C_16
REMARK    7  A    between atoms: C_16  and  C_17
REMARK    8  A    between atoms: C_17  and  O_19
REMARK                            x       y       z     vdW  Elec       q    Type
REMARK                         _______ _______ _______ _____ _____    ______ ____
ROOT
ATOM      1  C   UNL     1      -0.256  11.146  19.031  0.00  0.00    +0.000 A 
ATOM      2  C   UNL     1      -0.193  10.701  20.356  0.00  0.00    +0.000 A 
ATOM      3  C   UNL     1       0.548   9.559  20.700  0.00  0.00    +0.000 A 
ATOM      4  C   UNL     1       1.231   8.895  19.673  0.00  0.00    +0.000 A 
ATOM      5  N   UNL     1       2.044   7.782  19.689  0.00  0.00    +0.000 N 
ATOM      6  C   UNL     1       2.511   7.489  18.422  0.00  0.00    +0.000 A 
ATOM      7  C   UNL     1       1.988   8.456  17.584  0.00  0.00    +0.000 A 
ATOM      8  C   UNL     1       1.184   9.330  18.351  0.00  0.00    +0.000 A 
ATOM      9  C   UNL     1       0.430  10.467  18.021  0.00  0.00    +0.000 A 
ATOM     10  H   UNL     1       2.282   7.241  20.514  0.00  0.00    +0.000 HD
ENDROOT
BRANCH   1  12
ATOM     11  N   UNL     1      -0.982  12.820  17.462  0.00  0.00    +0.000 NA
ATOM     12  C   UNL     1      -1.026  12.369  18.672  0.00  0.00    +0.000 C 
ATOM     13  N   UNL     1      -1.774  13.009  19.621  0.00  0.00    +0.000 N 
ATOM     14  H   UNL     1      -1.608  13.623  17.375  0.00  0.00    +0.000 HD
ATOM     15  H   UNL     1      -2.023  13.969  19.417  0.00  0.00    +0.000 HD
ATOM     16  H   UNL     1      -1.453  12.899  20.577  0.00  0.00    +0.000 HD
ENDBRANCH   1  12
BRANCH   6  17
ATOM     17  C   UNL     1       3.378   6.364  18.142  0.00  0.00    +0.000 C 
ATOM     18  O   UNL     1       4.576   6.501  17.926  0.00  0.00    +0.000 OA
ATOM     19  N   UNL     1       2.748   5.137  18.142  0.00  0.00    +0.000 N 
ATOM     20  H   UNL     1       1.754   5.091  18.300  0.00  0.00    +0.000 HD
BRANCH  19  21
ATOM     21  C   UNL     1       3.443   3.896  17.883  0.00  0.00    +0.000 C 
BRANCH  21  22
ATOM     22  C   UNL     1       3.177   2.852  18.966  0.00  0.00    +0.000 C 
BRANCH  22  23
ATOM     23  C   UNL     1       1.683   2.563  19.149  0.00  0.00    +0.000 C 
BRANCH  23  24
ATOM     24  C   UNL     1       1.024   3.485  20.175  0.00  0.00    +0.000 C 
BRANCH  24  25
ATOM     25  C   UNL     1       1.945   3.816  21.327  0.00  0.00    +0.000 C 
ATOM     26  O   UNL     1       2.278   3.034  22.203  0.00  0.00    +0.000 OA
BRANCH  25  27
ATOM     27  O   UNL     1       2.397   5.089  21.289  0.00  0.00    +0.000 OA
ATOM     28  H   UNL     1       3.332   5.174  21.025  0.00  0.00    +0.000 HD
ENDBRANCH  25  27
ENDBRANCH  24  25
ENDBRANCH  23  24
ENDBRANCH  22  23
ENDBRANCH  21  22
ENDBRANCH  19  21
ENDBRANCH   6  17
TORSDOF 8
ENDMDL
MODEL 4
REMARK VINA RESULT:      -6.7      3.088      7.378
REMARK  Name = 
REMARK  8 active torsions:
REMARK  status: ('A' for Active; 'I' for Inactive)
REMARK    1  A    between atoms: C_2  and  C_4
REMARK    2  A    between atoms: C_9  and  C_10
REMARK    3  A    between atoms: N_12  and  C_13
REMARK    4  A    between atoms: C_13  and  C_14
REMARK    5  A    between atoms: C_14  and  C_15
REMARK    6  A    between atoms: C_15  and  C_16
REMARK    7  A    between atoms: C_16  and  C_17
REMARK    8  A    between atoms: C_17  and  O_19
REMARK                            x       y       z     vdW  Elec       q    Type
REMARK                         _______ _______ _______ _____ _____    ______ ____
ROOT
ATOM      1  C   UNL     1       0.402  10.523  19.412  0.00  0.00    +0.000 A 
ATOM      2  C   UNL     1       0.345  10.085  20.739  0.00  0.00    +0.000 A 
ATOM      3  C   UNL     1       0.965   8.888  21.132  0.00  0.00    +0.000 A 
ATOM      4  C   UNL     1       1.652   8.161  20.151  0.00  0.00    +0.000 A 
ATOM      5  N   UNL     1       2.366   6.984  20.220  0.00  0.00    +0.000 N 
ATOM      6  C   UNL     1       2.884   6.643  18.986  0.00  0.00    +0.000 A 
ATOM      7  C   UNL     1       2.497   7.643  18.114  0.00  0.00    +0.000 A 
ATOM      8  C   UNL     1       1.723   8.587  18.827  0.00  0.00    +0.000 A 
ATOM      9  C   UNL     1       1.089   9.780  18.448  0.00  0.00    +0.000 A 
ATOM     10  H   UNL     1       2.507   6.431  21.060  0.00  0.00    +0.000 HD
ENDROOT
BRANCH   1  12
ATOM     11  N   UNL     1       0.463  12.886  18.961  0.00  0.00    +0.000 NA
ATOM     12  C   UNL     1      -0.240  11.803  19.001  0.00  0.00    +0.000 C 
ATOM     13  N   UNL     1      -1.566  11.827  18.670  0.00  0.00    +0.000 N 
ATOM     14  H   UNL     1      -0.112  13.652  18.606  0.00  0.00    +0.000 HD
ATOM     15  H   UNL     1      -2.013  12.735  18.695  0.00  0.00    +0.000 HD
ATOM     16  H   UNL     1      -2.138  11.114  19.111  0.00  0.00    +0.000 HD
ENDBRANCH   1  12
BRANCH   6  17
ATOM     17  C   UNL     1       3.669   5.447  18.763  0.00  0.00    +0.000 C 
ATOM     18  O   UNL     1       4.626   5.153  19.470  0.00  0.00    +0.000 OA
ATOM     19  N   UNL     1       3.253   4.673  17.700  0.00  0.00    +0.000 N 
ATOM     20  H   UNL     1       2.475   4.982  17.139  0.00  0.00    +0.000 HD
BRANCH  19  21
ATOM     21  C   UNL     1       3.907   3.442  17.318  0.00  0.00    +0.000 C 
BRANCH  21  22
ATOM     22  C   UNL     1       3.088   2.212  17.704  0.00  0.00    +0.000 C 
BRANCH  22  23
ATOM     23  C   UNL     1       1.794   2.575  18.441  0.00  0.00    +0.000 C 
BRANCH  23  24
ATOM     24  C   UNL     1       1.766   2.057  19.878  0.00  0.00    +0.000 C 
BRANCH  24  25
ATOM     25  C   UNL     1       1.293   3.105  20.860  0.00  0.00    +0.000 C 
ATOM     26  O   UNL     1       0.948   4.237  20.560  0.00  0.00    +0.000 OA
BRANCH  25  27
ATOM     27  O   UNL     1       1.268   2.658  22.135  0.00  0.00    +0.000 OA
ATOM     28  H   UNL     1       0.795   1.813  22.253  0.00  0.00    +0.000 HD
ENDBRANCH  25  27
ENDBRANCH  24  25
ENDBRANCH  23  24
ENDBRANCH  22  23
ENDBRANCH  21  22
ENDBRANCH  19  21
ENDBRANCH   6  17
TORSDOF 8
ENDMDL
MODEL 5
REMARK VINA RESULT:      -6.7      2.854      7.420
REMARK  Name = 
REMARK  8 active torsions:
REMARK  status: ('A' for Active; 'I' for Inactive)
REMARK    1  A    between atoms: C_2  and  C_4
REMARK    2  A    between atoms: C_9  and  C_10
REMARK    3  A    between atoms: N_12  and  C_13
REMARK    4  A    between atoms: C_13  and  C_14
REMARK    5  A    between atoms: C_14  and  C_15
REMARK    6  A    between atoms: C_15  and  C_16
REMARK    7  A    between atoms: C_16  and  C_17
REMARK    8  A    between atoms: C_17  and  O_19
REMARK                            x       y       z     vdW  Elec       q    Type
REMARK                         _______ _______ _______ _____ _____    ______ ____
ROOT
ATOM      1  C   UNL     1       0.557  10.276  19.516  0.00  0.00    +0.000 A 
ATOM      2  C   UNL     1       0.452   9.719  20.794  0.00  0.00    +0.000 A 
ATOM      3  C   UNL     1       1.070   8.496  21.102  0.00  0.00    +0.000 A 
ATOM      4  C   UNL     1       1.805   7.867  20.089  0.00  0.00    +0.000 A 
ATOM      5  N   UNL     1       2.530   6.695  20.081  0.00  0.00    +0.000 N 
ATOM      6  C   UNL     1       3.102   6.472  18.843  0.00  0.00    +0.000 A 
ATOM      7  C   UNL     1       2.738   7.544  18.050  0.00  0.00    +0.000 A 
ATOM      8  C   UNL     1       1.924   8.414  18.813  0.00  0.00    +0.000 A 
ATOM      9  C   UNL     1       1.291   9.631  18.517  0.00  0.00    +0.000 A 
ATOM     10  H   UNL     1       2.644   6.070  20.872  0.00  0.00    +0.000 HD
ENDROOT
BRANCH   1  12
ATOM     11  N   UNL     1      -1.064  12.009  19.922  0.00  0.00    +0.000 NA
ATOM     12  C   UNL     1      -0.083  11.583  19.197  0.00  0.00    +0.000 C 
ATOM     13  N   UNL     1       0.368  12.324  18.140  0.00  0.00    +0.000 N 
ATOM     14  H   UNL     1      -1.343  12.939  19.604  0.00  0.00    +0.000 HD
ATOM     15  H   UNL     1      -0.269  13.028  17.788  0.00  0.00    +0.000 HD
ATOM     16  H   UNL     1       0.798  11.796  17.389  0.00  0.00    +0.000 HD
ENDBRANCH   1  12
BRANCH   6  17
ATOM     17  C   UNL     1       3.910   5.309  18.546  0.00  0.00    +0.000 C 
ATOM     18  O   UNL     1       4.444   4.644  19.425  0.00  0.00    +0.000 OA
ATOM     19  N   UNL     1       4.024   5.014  17.203  0.00  0.00    +0.000 N 
ATOM     20  H   UNL     1       3.583   5.615  16.526  0.00  0.00    +0.000 HD
BRANCH  19  21
ATOM     21  C   UNL     1       4.789   3.892  16.706  0.00  0.00    +0.000 C 
BRANCH  21  22
ATOM     22  C   UNL     1       5.564   4.242  15.437  0.00  0.00    +0.000 C 
BRANCH  22  23
ATOM     23  C   UNL     1       7.025   4.607  15.724  0.00  0.00    +0.000 C 
BRANCH  23  24
ATOM     24  C   UNL     1       7.302   4.815  17.212  0.00  0.00    +0.000 C 
BRANCH  24  25
ATOM     25  C   UNL     1       7.342   6.278  17.591  0.00  0.00    +0.000 C 
ATOM     26  O   UNL     1       8.011   6.747  18.499  0.00  0.00    +0.000 OA
BRANCH  25  27
ATOM     27  O   UNL     1       6.563   7.048  16.799  0.00  0.00    +0.000 OA
ATOM     28  H   UNL     1       6.989   7.325  15.966  0.00  0.00    +0.000 HD
ENDBRANCH  25  27
ENDBRANCH  24  25
ENDBRANCH  23  24
ENDBRANCH  22  23
ENDBRANCH  21  22
ENDBRANCH  19  21
ENDBRANCH   6  17
TORSDOF 8
ENDMDL
MODEL 6
REMARK VINA RESULT:      -6.7      3.085      7.529
REMARK  Name = 
REMARK  8 active torsions:
REMARK  status: ('A' for Active; 'I' for Inactive)
REMARK    1  A    between atoms: C_2  and  C_4
REMARK    2  A    between atoms: C_9  and  C_10
REMARK    3  A    between atoms: N_12  and  C_13
REMARK    4  A    between atoms: C_13  and  C_14
REMARK    5  A    between atoms: C_14  and  C_15
REMARK    6  A    between atoms: C_15  and  C_16
REMARK    7  A    between atoms: C_16  and  C_17
REMARK    8  A    between atoms: C_17  and  O_19
REMARK                            x       y       z     vdW  Elec       q    Type
REMARK                         _______ _______ _______ _____ _____    ______ ____
ROOT
ATOM      1  C   UNL     1       0.106  10.653  19.467  0.00  0.00    +0.000 A 
ATOM      2  C   UNL     1       0.144  10.111  20.756  0.00  0.00    +0.000 A 
ATOM      3  C   UNL     1       0.867   8.938  21.025  0.00  0.00    +0.000 A 
ATOM      4  C   UNL     1       1.557   8.342  19.962  0.00  0.00    +0.000 A 
ATOM      5  N   UNL     1       2.357   7.221  19.907  0.00  0.00    +0.000 N 
ATOM      6  C   UNL     1       2.840   7.016  18.629  0.00  0.00    +0.000 A 
ATOM      7  C   UNL     1       2.340   8.048  17.857  0.00  0.00    +0.000 A 
ATOM      8  C   UNL     1       1.535   8.874  18.674  0.00  0.00    +0.000 A 
ATOM      9  C   UNL     1       0.799  10.041  18.419  0.00  0.00    +0.000 A 
ATOM     10  H   UNL     1       2.577   6.618  20.693  0.00  0.00    +0.000 HD
ENDROOT
BRANCH   1  12
ATOM     11  N   UNL     1      -0.632  12.410  17.997  0.00  0.00    +0.000 NA
ATOM     12  C   UNL     1      -0.644  11.909  19.187  0.00  0.00    +0.000 C 
ATOM     13  N   UNL     1      -1.342  12.525  20.189  0.00  0.00    +0.000 N 
ATOM     14  H   UNL     1      -1.240  13.231  17.966  0.00  0.00    +0.000 HD
ATOM     15  H   UNL     1      -1.573  13.498  20.035  0.00  0.00    +0.000 HD
ATOM     16  H   UNL     1      -0.990  12.366  21.127  0.00  0.00    +0.000 HD
ENDBRANCH   1  12
BRANCH   6  17
ATOM     17  C   UNL     1       3.697   5.904  18.279  0.00  0.00    +0.000 C 
ATOM     18  O   UNL     1       4.910   6.027  18.160  0.00  0.00    +0.000 OA
ATOM     19  N   UNL     1       3.041   4.705  18.093  0.00  0.00    +0.000 N 
ATOM     20  H   UNL     1       2.037   4.673  18.178  0.00  0.00    +0.000 HD
BRANCH  19  21
ATOM     21  C   UNL     1       3.722   3.481  17.739  0.00  0.00    +0.000 C 
BRANCH  21  22
ATOM     22  C   UNL     1       3.400   2.343  18.706  0.00  0.00    +0.000 C 
BRANCH  22  23
ATOM     23  C   UNL     1       3.995   2.571  20.100  0.00  0.00    +0.000 C 
BRANCH  23  24
ATOM     24  C   UNL     1       2.954   2.461  21.214  0.00  0.00    +0.000 C 
BRANCH  24  25
ATOM     25  C   UNL     1       1.894   3.534  21.120  0.00  0.00    +0.000 C 
ATOM     26  O   UNL     1       2.105   4.734  21.208  0.00  0.00    +0.000 OA
BRANCH  25  27
ATOM     27  O   UNL     1       0.657   3.034  20.903  0.00  0.00    +0.000 OA
ATOM     28  H   UNL     1       0.623   2.332  20.227  0.00  0.00    +0.000 HD
ENDBRANCH  25  27
ENDBRANCH  24  25
ENDBRANCH  23  24
ENDBRANCH  22  23
ENDBRANCH  21  22
ENDBRANCH  19  21
ENDBRANCH   6  17
TORSDOF 8
ENDMDL
MODEL 7
REMARK VINA RESULT:      -6.6      5.080      7.025
REMARK  Name = 
REMARK  8 active torsions:
REMARK  status: ('A' for Active; 'I' for Inactive)
REMARK    1  A    between atoms: C_2  and  C_4
REMARK    2  A    between atoms: C_9  and  C_10
REMARK    3  A    between atoms: N_12  and  C_13
REMARK    4  A    between atoms: C_13  and  C_14
REMARK    5  A    between atoms: C_14  and  C_15
REMARK    6  A    between atoms: C_15  and  C_16
REMARK    7  A    between atoms: C_16  and  C_17
REMARK    8  A    between atoms: C_17  and  O_19
REMARK                            x       y       z     vdW  Elec       q    Type
REMARK                         _______ _______ _______ _____ _____    ______ ____
ROOT
ATOM      1  C   UNL     1       2.484   3.137  19.208  0.00  0.00    +0.000 A 
ATOM      2  C   UNL     1       3.521   2.553  19.943  0.00  0.00    +0.000 A 
ATOM      3  C   UNL     1       4.847   2.991  19.795  0.00  0.00    +0.000 A 
ATOM      4  C   UNL     1       5.087   4.041  18.900  0.00  0.00    +0.000 A 
ATOM      5  N   UNL     1       6.249   4.697  18.554  0.00  0.00    +0.000 N 
ATOM      6  C   UNL     1       6.003   5.686  17.621  0.00  0.00    +0.000 A 
ATOM      7  C   UNL     1       4.642   5.662  17.382  0.00  0.00    +0.000 A 
ATOM      8  C   UNL     1       4.064   4.638  18.166  0.00  0.00    +0.000 A 
ATOM      9  C   UNL     1       2.746   4.181  18.316  0.00  0.00    +0.000 A 
ATOM     10  H   UNL     1       7.170   4.497  18.929  0.00  0.00    +0.000 HD
ENDROOT
BRANCH   1  12
ATOM     11  N   UNL     1       0.365   3.160  20.349  0.00  0.00    +0.000 NA
ATOM     12  C   UNL     1       1.075   2.685  19.381  0.00  0.00    +0.000 C 
ATOM     13  N   UNL     1       0.541   1.770  18.517  0.00  0.00    +0.000 N 
ATOM     14  H   UNL     1      -0.586   2.792  20.287  0.00  0.00    +0.000 HD
ATOM     15  H   UNL     1      -0.283   1.281  18.842  0.00  0.00    +0.000 HD
ATOM     16  H   UNL     1       1.207   1.138  18.084  0.00  0.00    +0.000 HD
ENDBRANCH   1  12
BRANCH   6  17
ATOM     17  C   UNL     1       7.044   6.527  17.071  0.00  0.00    +0.000 C 
ATOM     18  O   UNL     1       7.597   6.271  16.008  0.00  0.00    +0.000 OA
ATOM     19  N   UNL     1       7.357   7.633  17.835  0.00  0.00    +0.000 N 
ATOM     20  H   UNL     1       6.886   7.775  18.714  0.00  0.00    +0.000 HD
BRANCH  19  21
ATOM     21  C   UNL     1       8.370   8.592  17.454  0.00  0.00    +0.000 C 
BRANCH  21  22
ATOM     22  C   UNL     1       8.210   9.920  18.192  0.00  0.00    +0.000 C 
BRANCH  22  23
ATOM     23  C   UNL     1       9.259  10.110  19.293  0.00  0.00    +0.000 C 
BRANCH  23  24
ATOM     24  C   UNL     1       9.868  11.512  19.295  0.00  0.00    +0.000 C 
BRANCH  24  25
ATOM     25  C   UNL     1      11.261  11.535  18.709  0.00  0.00    +0.000 C 
ATOM     26  O   UNL     1      12.293  11.525  19.361  0.00  0.00    +0.000 OA
BRANCH  25  27
ATOM     27  O   UNL     1      11.263  11.549  17.357  0.00  0.00    +0.000 OA
ATOM     28  H   UNL     1      11.117  12.430  16.966  0.00  0.00    +0.000 HD
ENDBRANCH  25  27
ENDBRANCH  24  25
ENDBRANCH  23  24
ENDBRANCH  22  23
ENDBRANCH  21  22
ENDBRANCH  19  21
ENDBRANCH   6  17
TORSDOF 8
ENDMDL
MODEL 8
REMARK VINA RESULT:      -6.6      4.554      8.072
REMARK  Name = 
REMARK  8 active torsions:
REMARK  status: ('A' for Active; 'I' for Inactive)
REMARK    1  A    between atoms: C_2  and  C_4
REMARK    2  A    between atoms: C_9  and  C_10
REMARK    3  A    between atoms: N_12  and  C_13
REMARK    4  A    between atoms: C_13  and  C_14
REMARK    5  A    between atoms: C_14  and  C_15
REMARK    6  A    between atoms: C_15  and  C_16
REMARK    7  A    between atoms: C_16  and  C_17
REMARK    8  A    between atoms: C_17  and  O_19
REMARK                            x       y       z     vdW  Elec       q    Type
REMARK                         _______ _______ _______ _____ _____    ______ ____
ROOT
ATOM      1  C   UNL     1       2.650   3.276  19.601  0.00  0.00    +0.000 A 
ATOM      2  C   UNL     1       2.042   2.980  18.377  0.00  0.00    +0.000 A 
ATOM      3  C   UNL     1       2.646   3.345  17.163  0.00  0.00    +0.000 A 
ATOM      4  C   UNL     1       3.883   3.998  17.224  0.00  0.00    +0.000 A 
ATOM      5  N   UNL     1       4.724   4.457  16.233  0.00  0.00    +0.000 N 
ATOM      6  C   UNL     1       5.856   5.039  16.770  0.00  0.00    +0.000 A 
ATOM      7  C   UNL     1       5.732   4.932  18.142  0.00  0.00    +0.000 A 
ATOM      8  C   UNL     1       4.506   4.293  18.436  0.00  0.00    +0.000 A 
ATOM      9  C   UNL     1       3.883   3.933  19.641  0.00  0.00    +0.000 A 
ATOM     10  H   UNL     1       4.552   4.380  15.236  0.00  0.00    +0.000 HD
ENDROOT
BRANCH   1  12
ATOM     11  N   UNL     1       2.761   2.536  21.889  0.00  0.00    +0.000 NA
ATOM     12  C   UNL     1       2.017   2.870  20.887  0.00  0.00    +0.000 C 
ATOM     13  N   UNL     1       0.655   2.854  21.002  0.00  0.00    +0.000 N 
ATOM     14  H   UNL     1       2.172   2.345  22.701  0.00  0.00    +0.000 HD
ATOM     15  H   UNL     1       0.281   2.300  21.762  0.00  0.00    +0.000 HD
ATOM     16  H   UNL     1       0.146   2.699  20.138  0.00  0.00    +0.000 HD
ENDBRANCH   1  12
BRANCH   6  17
ATOM     17  C   UNL     1       6.906   5.616  15.958  0.00  0.00    +0.000 C 
ATOM     18  O   UNL     1       7.651   6.492  16.381  0.00  0.00    +0.000 OA
ATOM     19  N   UNL     1       6.998   5.101  14.682  0.00  0.00    +0.000 N 
ATOM     20  H   UNL     1       6.338   4.400  14.383  0.00  0.00    +0.000 HD
BRANCH  19  21
ATOM     21  C   UNL     1       7.981   5.548  13.721  0.00  0.00    +0.000 C 
BRANCH  21  22
ATOM     22  C   UNL     1       7.572   5.222  12.286  0.00  0.00    +0.000 C 
BRANCH  22  23
ATOM     23  C   UNL     1       7.180   3.751  12.107  0.00  0.00    +0.000 C 
BRANCH  23  24
ATOM     24  C   UNL     1       5.738   3.467  12.528  0.00  0.00    +0.000 C 
BRANCH  24  25
ATOM     25  C   UNL     1       5.022   2.560  11.554  0.00  0.00    +0.000 C 
ATOM     26  O   UNL     1       3.993   2.843  10.961  0.00  0.00    +0.000 OA
BRANCH  25  27
ATOM     27  O   UNL     1       5.652   1.377  11.377  0.00  0.00    +0.000 OA
ATOM     28  H   UNL     1       6.053   1.265  10.494  0.00  0.00    +0.000 HD
ENDBRANCH  25  27
ENDBRANCH  24  25
ENDBRANCH  23  24
ENDBRANCH  22  23
ENDBRANCH  21  22
ENDBRANCH  19  21
ENDBRANCH   6  17
TORSDOF 8
ENDMDL
MODEL 9
REMARK VINA RESULT:      -6.5      2.534      3.024
REMARK  Name = 
REMARK  8 active torsions:
REMARK  status: ('A' for Active; 'I' for Inactive)
REMARK    1  A    between atoms: C_2  and  C_4
REMARK    2  A    between atoms: C_9  and  C_10
REMARK    3  A    between atoms: N_12  and  C_13
REMARK    4  A    between atoms: C_13  and  C_14
REMARK    5  A    between atoms: C_14  and  C_15
REMARK    6  A    between atoms: C_15  and  C_16
REMARK    7  A    between atoms: C_16  and  C_17
REMARK    8  A    between atoms: C_17  and  O_19
REMARK                            x       y       z     vdW  Elec       q    Type
REMARK                         _______ _______ _______ _____ _____    ______ ____
ROOT
ATOM      1  C   UNL     1       5.500   4.923  17.067  0.00  0.00    +0.000 A 
ATOM      2  C   UNL     1       5.421   4.246  18.288  0.00  0.00    +0.000 A 
ATOM      3  C   UNL     1       4.576   4.701  19.313  0.00  0.00    +0.000 A 
ATOM      4  C   UNL     1       3.807   5.844  19.060  0.00  0.00    +0.000 A 
ATOM      5  N   UNL     1       2.886   6.514  19.836  0.00  0.00    +0.000 N 
ATOM      6  C   UNL     1       2.363   7.601  19.162  0.00  0.00    +0.000 A 
ATOM      7  C   UNL     1       2.964   7.609  17.917  0.00  0.00    +0.000 A 
ATOM      8  C   UNL     1       3.869   6.525  17.846  0.00  0.00    +0.000 A 
ATOM      9  C   UNL     1       4.728   6.064  16.836  0.00  0.00    +0.000 A 
ATOM     10  H   UNL     1       2.611   6.254  20.778  0.00  0.00    +0.000 HD
ENDROOT
BRANCH   1  12
ATOM     11  N   UNL     1       5.861   3.852  14.941  0.00  0.00    +0.000 NA
ATOM     12  C   UNL     1       6.383   4.428  15.973  0.00  0.00    +0.000 C 
ATOM     13  N   UNL     1       7.738   4.583  16.067  0.00  0.00    +0.000 N 
ATOM     14  H   UNL     1       6.596   3.629  14.268  0.00  0.00    +0.000 HD
ATOM     15  H   UNL     1       8.295   3.982  15.472  0.00  0.00    +0.000 HD
ATOM     16  H   UNL     1       8.108   4.626  17.011  0.00  0.00    +0.000 HD
ENDBRANCH   1  12
BRANCH   6  17
ATOM     17  C   UNL     1       1.381   8.491  19.742  0.00  0.00    +0.000 C 
ATOM     18  O   UNL     1       0.922   8.314  20.864  0.00  0.00    +0.000 OA
ATOM     19  N   UNL     1       1.011   9.547  18.935  0.00  0.00    +0.000 N 
ATOM     20  H   UNL     1       1.404   9.624  18.011  0.00  0.00    +0.000 HD
BRANCH  19  21
ATOM     21  C   UNL     1       0.043  10.543  19.336  0.00  0.00    +0.000 C 
BRANCH  21  22
ATOM     22  C   UNL     1      -0.889  10.934  18.190  0.00  0.00    +0.000 C 
BRANCH  22  23
ATOM     23  C   UNL     1      -2.331  10.472  18.424  0.00  0.00    +0.000 C 
BRANCH  23  24
ATOM     24  C   UNL     1      -2.952   9.822  17.187  0.00  0.00    +0.000 C 
BRANCH  24  25
ATOM     25  C   UNL     1      -3.093  10.792  16.037  0.00  0.00    +0.000 C 
ATOM     26  O   UNL     1      -2.624  10.626  14.922  0.00  0.00    +0.000 OA
BRANCH  25  27
ATOM     27  O   UNL     1      -3.824  11.883  16.355  0.00  0.00    +0.000 OA
ATOM     28  H   UNL     1      -3.476  12.718  15.990  0.00  0.00    +0.000 HD
ENDBRANCH  25  27
ENDBRANCH  24  25
ENDBRANCH  23  24
ENDBRANCH  22  23
ENDBRANCH  21  22
ENDBRANCH  19  21
ENDBRANCH   6  17
TORSDOF 8
ENDMDL
