MODEL 1
REMARK VINA RESULT:      -6.9      0.000      0.000
REMARK  Name = 
REMARK  3 active torsions:
REMARK  status: ('A' for Active; 'I' for Inactive)
REMARK    1  A    between atoms: C_2  and  C_3
REMARK    2  A    between atoms: C_7  and  N_8
REMARK    3  A    between atoms: C_10  and  C_11
REMARK                            x       y       z     vdW  Elec       q    Type
REMARK                         _______ _______ _______ _____ _____    ______ ____
ROOT
ATOM      1  C   UNL     1       2.521   3.059  19.764  0.00  0.00    +0.000 A 
ATOM      2  C   UNL     1       1.873   2.627  18.603  0.00  0.00    +0.000 A 
ATOM      3  C   UNL     1       2.414   2.914  17.350  0.00  0.00    +0.000 A 
ATOM      4  C   UNL     1       3.605   3.636  17.249  0.00  0.00    +0.000 A 
ATOM      5  C   UNL     1       4.266   4.071  18.407  0.00  0.00    +0.000 A 
ATOM      6  C   UNL     1       3.719   3.780  19.667  0.00  0.00    +0.000 A 
ENDROOT
BRANCH   5   7
ATOM      7  N   UNL     1       5.478   4.803  18.317  0.00  0.00    +0.000 N 
ATOM      8  C   UNL     1       5.680   6.082  17.858  0.00  0.00    +0.000 A 
ATOM      9  C   UNL     1       7.033   6.308  17.999  0.00  0.00    +0.000 A 
ATOM     10  N   UNL     1       7.615   5.184  18.519  0.00  0.00    +0.000 NA
ATOM     11  N   UNL     1       6.665   4.277  18.710  0.00  0.00    +0.000 NA
BRANCH   9  12
ATOM     12  C   UNL     1       7.823   7.520  17.684  0.00  0.00    +0.000 C 
ATOM     13  F   UNL     1       7.009   8.603  17.527  0.00  0.00    +0.000 F 
ATOM     14  F   UNL     1       8.661   7.833  18.711  0.00  0.00    +0.000 F 
ENDBRANCH   9  12
ENDBRANCH   5   7
BRANCH   1  16
ATOM     15  N   UNL     1       1.486   2.538  22.085  0.00  0.00    +0.000 NA
ATOM     16  C   UNL     1       1.955   2.767  21.049  0.00  0.00    +0.000 C 
ENDBRANCH   1  16
TORSDOF 3
ENDMDL
MODEL 2
REMARK VINA RESULT:      -6.8      3.919      6.183
REMARK  Name = 
REMARK  3 active torsions:
REMARK  status: ('A' for Active; 'I' for Inactive)
REMARK    1  A    between atoms: C_2  and  C_3
REMARK    2  A    between atoms: C_7  and  N_8
REMARK    3  A    between atoms: C_10  and  C_11
REMARK                            x       y       z     vdW  Elec       q    Type
REMARK                         _______ _______ _______ _____ _____    ______ ____
ROOT
ATOM      1  C   UNL     1       6.191   4.534  15.836  0.00  0.00    +0.000 A 
ATOM      2  C   UNL     1       7.114   5.509  16.224  0.00  0.00    +0.000 A 
ATOM      3  C   UNL     1       7.162   5.941  17.548  0.00  0.00    +0.000 A 
ATOM      4  C   UNL     1       6.287   5.403  18.494  0.00  0.00    +0.000 A 
ATOM      5  C   UNL     1       5.359   4.421  18.117  0.00  0.00    +0.000 A 
ATOM      6  C   UNL     1       5.314   3.987  16.782  0.00  0.00    +0.000 A 
ENDROOT
BRANCH   5   7
ATOM      7  N   UNL     1       4.467   3.864  19.070  0.00  0.00    +0.000 N 
ATOM      8  C   UNL     1       3.227   4.316  19.456  0.00  0.00    +0.000 A 
ATOM      9  C   UNL     1       2.786   3.406  20.393  0.00  0.00    +0.000 A 
ATOM     10  N   UNL     1       3.748   2.447  20.562  0.00  0.00    +0.000 NA
ATOM     11  N   UNL     1       4.762   2.733  19.755  0.00  0.00    +0.000 NA
BRANCH   9  12
ATOM     12  C   UNL     1       1.509   3.370  21.141  0.00  0.00    +0.000 C 
ATOM     13  F   UNL     1       0.455   3.189  20.296  0.00  0.00    +0.000 F 
ATOM     14  F   UNL     1       1.481   2.312  21.999  0.00  0.00    +0.000 F 
ENDBRANCH   9  12
ENDBRANCH   5   7
BRANCH   1  16
ATOM     15  N   UNL     1       6.107   3.736  13.369  0.00  0.00    +0.000 NA
ATOM     16  C   UNL     1       6.141   4.099  14.470  0.00  0.00    +0.000 C 
ENDBRANCH   1  16
TORSDOF 3
ENDMDL
MODEL 3
REMARK VINA RESULT:      -6.8      3.944      6.284
REMARK  Name = 
REMARK  3 active torsions:
REMARK  status: ('A' for Active; 'I' for Inactive)
REMARK    1  A    between atoms: C_2  and  C_3
REMARK    2  A    between atoms: C_7  and  N_8
REMARK    3  A    between atoms: C_10  and  C_11
REMARK                            x       y       z     vdW  Elec       q    Type
REMARK                         _______ _______ _______ _____ _____    ______ ____
ROOT
ATOM      1  C   UNL     1       6.169   4.277  15.349  0.00  0.00    +0.000 A 
ATOM      2  C   UNL     1       7.162   5.162  15.779  0.00  0.00    +0.000 A 
ATOM      3  C   UNL     1       7.217   5.557  17.115  0.00  0.00    +0.000 A 
ATOM      4  C   UNL     1       6.279   5.073  18.030  0.00  0.00    +0.000 A 
ATOM      5  C   UNL     1       5.280   4.181  17.609  0.00  0.00    +0.000 A 
ATOM      6  C   UNL     1       5.228   3.784  16.263  0.00  0.00    +0.000 A 
ENDROOT
BRANCH   5   7
ATOM      7  N   UNL     1       4.324   3.680  18.529  0.00  0.00    +0.000 N 
ATOM      8  C   UNL     1       2.953   3.764  18.477  0.00  0.00    +0.000 A 
ATOM      9  C   UNL     1       2.507   3.105  19.604  0.00  0.00    +0.000 A 
ATOM     10  N   UNL     1       3.591   2.655  20.308  0.00  0.00    +0.000 NA
ATOM     11  N   UNL     1       4.688   3.007  19.648  0.00  0.00    +0.000 NA
BRANCH   9  12
ATOM     12  C   UNL     1       1.122   2.861  20.066  0.00  0.00    +0.000 C 
ATOM     13  F   UNL     1       0.549   4.015  20.512  0.00  0.00    +0.000 F 
ATOM     14  F   UNL     1       0.338   2.433  19.037  0.00  0.00    +0.000 F 
ENDBRANCH   9  12
ENDBRANCH   5   7
BRANCH   1  16
ATOM     15  N   UNL     1       6.060   3.571  12.855  0.00  0.00    +0.000 NA
ATOM     16  C   UNL     1       6.113   3.881  13.971  0.00  0.00    +0.000 C 
ENDBRANCH   1  16
TORSDOF 3
ENDMDL
MODEL 4
REMARK VINA RESULT:      -6.8      1.084      1.310
REMARK  Name = 
REMARK  3 active torsions:
REMARK  status: ('A' for Active; 'I' for Inactive)
REMARK    1  A    between atoms: C_2  and  C_3
REMARK    2  A    between atoms: C_7  and  N_8
REMARK    3  A    between atoms: C_10  and  C_11
REMARK                            x       y       z     vdW  Elec       q    Type
REMARK                         _______ _______ _______ _____ _____    ______ ____
ROOT
ATOM      1  C   UNL     1       2.752   3.224  19.765  0.00  0.00    +0.000 A 
ATOM      2  C   UNL     1       2.180   2.366  18.821  0.00  0.00    +0.000 A 
ATOM      3  C   UNL     1       2.515   2.485  17.472  0.00  0.00    +0.000 A 
ATOM      4  C   UNL     1       3.422   3.462  17.058  0.00  0.00    +0.000 A 
ATOM      5  C   UNL     1       4.005   4.326  17.997  0.00  0.00    +0.000 A 
ATOM      6  C   UNL     1       3.666   4.203  19.354  0.00  0.00    +0.000 A 
ENDROOT
BRANCH   5   7
ATOM      7  N   UNL     1       4.930   5.322  17.588  0.00  0.00    +0.000 N 
ATOM      8  C   UNL     1       6.028   5.804  18.260  0.00  0.00    +0.000 A 
ATOM      9  C   UNL     1       6.583   6.743  17.416  0.00  0.00    +0.000 A 
ATOM     10  N   UNL     1       5.823   6.820  16.281  0.00  0.00    +0.000 NA
ATOM     11  N   UNL     1       4.824   5.953  16.394  0.00  0.00    +0.000 NA
BRANCH   9  12
ATOM     12  C   UNL     1       7.793   7.577  17.603  0.00  0.00    +0.000 C 
ATOM     13  F   UNL     1       7.467   8.898  17.668  0.00  0.00    +0.000 F 
ATOM     14  F   UNL     1       8.403   7.287  18.786  0.00  0.00    +0.000 F 
ENDBRANCH   9  12
ENDBRANCH   5   7
BRANCH   1  16
ATOM     15  N   UNL     1       2.097   3.005  22.265  0.00  0.00    +0.000 NA
ATOM     16  C   UNL     1       2.397   3.102  21.149  0.00  0.00    +0.000 C 
ENDBRANCH   1  16
TORSDOF 3
ENDMDL
MODEL 5
REMARK VINA RESULT:      -6.8      3.842      4.402
REMARK  Name = 
REMARK  3 active torsions:
REMARK  status: ('A' for Active; 'I' for Inactive)
REMARK    1  A    between atoms: C_2  and  C_3
REMARK    2  A    between atoms: C_7  and  N_8
REMARK    3  A    between atoms: C_10  and  C_11
REMARK                            x       y       z     vdW  Elec       q    Type
REMARK                         _______ _______ _______ _____ _____    ______ ____
ROOT
ATOM      1  C   UNL     1       3.636   3.770  18.387  0.00  0.00    +0.000 A 
ATOM      2  C   UNL     1       4.074   4.593  19.428  0.00  0.00    +0.000 A 
ATOM      3  C   UNL     1       5.174   5.430  19.244  0.00  0.00    +0.000 A 
ATOM      4  C   UNL     1       5.845   5.448  18.020  0.00  0.00    +0.000 A 
ATOM      5  C   UNL     1       5.412   4.629  16.967  0.00  0.00    +0.000 A 
ATOM      6  C   UNL     1       4.303   3.788  17.154  0.00  0.00    +0.000 A 
ENDROOT
BRANCH   5   7
ATOM      7  N   UNL     1       6.084   4.641  15.717  0.00  0.00    +0.000 N 
ATOM      8  C   UNL     1       5.817   3.902  14.589  0.00  0.00    +0.000 A 
ATOM      9  C   UNL     1       6.754   4.307  13.662  0.00  0.00    +0.000 A 
ATOM     10  N   UNL     1       7.559   5.254  14.235  0.00  0.00    +0.000 NA
ATOM     11  N   UNL     1       7.145   5.451  15.480  0.00  0.00    +0.000 NA
BRANCH   9  12
ATOM     12  C   UNL     1       6.942   3.868  12.260  0.00  0.00    +0.000 C 
ATOM     13  F   UNL     1       5.744   3.587  11.675  0.00  0.00    +0.000 F 
ATOM     14  F   UNL     1       7.496   4.862  11.512  0.00  0.00    +0.000 F 
ENDBRANCH   9  12
ENDBRANCH   5   7
BRANCH   1  16
ATOM     15  N   UNL     1       1.597   2.203  18.731  0.00  0.00    +0.000 NA
ATOM     16  C   UNL     1       2.509   2.906  18.585  0.00  0.00    +0.000 C 
ENDBRANCH   1  16
TORSDOF 3
ENDMDL
MODEL 6
REMARK VINA RESULT:      -6.7      4.063      4.915
REMARK  Name = 
REMARK  3 active torsions:
REMARK  status: ('A' for Active; 'I' for Inactive)
REMARK    1  A    between atoms: C_2  and  C_3
REMARK    2  A    between atoms: C_7  and  N_8
REMARK    3  A    between atoms: C_10  and  C_11
REMARK                            x       y       z     vdW  Elec       q    Type
REMARK                         _______ _______ _______ _____ _____    ______ ____
ROOT
ATOM      1  C   UNL     1       3.507   6.694  18.118  0.00  0.00    +0.000 A 
ATOM      2  C   UNL     1       3.647   5.879  19.245  0.00  0.00    +0.000 A 
ATOM      3  C   UNL     1       4.529   4.799  19.223  0.00  0.00    +0.000 A 
ATOM      4  C   UNL     1       5.275   4.525  18.076  0.00  0.00    +0.000 A 
ATOM      5  C   UNL     1       5.145   5.338  16.940  0.00  0.00    +0.000 A 
ATOM      6  C   UNL     1       4.258   6.426  16.965  0.00  0.00    +0.000 A 
ENDROOT
BRANCH   5   7
ATOM      7  N   UNL     1       5.900   5.071  15.768  0.00  0.00    +0.000 N 
ATOM      8  C   UNL     1       5.551   4.320  14.672  0.00  0.00    +0.000 A 
ATOM      9  C   UNL     1       6.634   4.398  13.821  0.00  0.00    +0.000 A 
ATOM     10  N   UNL     1       7.601   5.167  14.409  0.00  0.00    +0.000 NA
ATOM     11  N   UNL     1       7.147   5.572  15.588  0.00  0.00    +0.000 NA
BRANCH   9  12
ATOM     12  C   UNL     1       6.822   3.799  12.480  0.00  0.00    +0.000 C 
ATOM     13  F   UNL     1       5.621   3.483  11.917  0.00  0.00    +0.000 F 
ATOM     14  F   UNL     1       7.405   4.690  11.630  0.00  0.00    +0.000 F 
ENDBRANCH   9  12
ENDBRANCH   5   7
BRANCH   1  16
ATOM     15  N   UNL     1       1.846   8.686  18.154  0.00  0.00    +0.000 NA
ATOM     16  C   UNL     1       2.593   7.799  18.143  0.00  0.00    +0.000 C 
ENDBRANCH   1  16
TORSDOF 3
ENDMDL
MODEL 7
REMARK VINA RESULT:      -6.7      0.919      1.113
REMARK  Name = 
REMARK  3 active torsions:
REMARK  status: ('A' for Active; 'I' for Inactive)
REMARK    1  A    between atoms: C_2  and  C_3
REMARK    2  A    between atoms: C_7  and  N_8
REMARK    3  A    between atoms: C_10  and  C_11
REMARK                            x       y       z     vdW  Elec       q    Type
REMARK                         _______ _______ _______ _____ _____    ______ ____
ROOT
ATOM      1  C   UNL     1       1.918   3.214  20.165  0.00  0.00    +0.000 A 
ATOM      2  C   UNL     1       1.068   3.135  19.058  0.00  0.00    +0.000 A 
ATOM      3  C   UNL     1       1.474   3.646  17.826  0.00  0.00    +0.000 A 
ATOM      4  C   UNL     1       2.731   4.241  17.692  0.00  0.00    +0.000 A 
ATOM      5  C   UNL     1       3.593   4.322  18.796  0.00  0.00    +0.000 A 
ATOM      6  C   UNL     1       3.181   3.805  20.035  0.00  0.00    +0.000 A 
ENDROOT
BRANCH   5   7
ATOM      7  N   UNL     1       4.873   4.921  18.672  0.00  0.00    +0.000 N 
ATOM      8  C   UNL     1       5.219   6.091  18.039  0.00  0.00    +0.000 A 
ATOM      9  C   UNL     1       6.579   6.215  18.228  0.00  0.00    +0.000 A 
ATOM     10  N   UNL     1       7.025   5.138  18.945  0.00  0.00    +0.000 NA
ATOM     11  N   UNL     1       5.983   4.360  19.211  0.00  0.00    +0.000 NA
BRANCH   9  12
ATOM     12  C   UNL     1       7.497   7.290  17.783  0.00  0.00    +0.000 C 
ATOM     13  F   UNL     1       8.584   7.370  18.602  0.00  0.00    +0.000 F 
ATOM     14  F   UNL     1       7.988   7.023  16.541  0.00  0.00    +0.000 F 
ENDBRANCH   9  12
ENDBRANCH   5   7
BRANCH   1  16
ATOM     15  N   UNL     1       1.155   2.280  22.463  0.00  0.00    +0.000 NA
ATOM     16  C   UNL     1       1.490   2.694  21.432  0.00  0.00    +0.000 C 
ENDBRANCH   1  16
TORSDOF 3
ENDMDL
MODEL 8
REMARK VINA RESULT:      -6.7      4.002      6.340
REMARK  Name = 
REMARK  3 active torsions:
REMARK  status: ('A' for Active; 'I' for Inactive)
REMARK    1  A    between atoms: C_2  and  C_3
REMARK    2  A    between atoms: C_7  and  N_8
REMARK    3  A    between atoms: C_10  and  C_11
REMARK                            x       y       z     vdW  Elec       q    Type
REMARK                         _______ _______ _______ _____ _____    ______ ____
ROOT
ATOM      1  C   UNL     1       6.193   4.169  15.288  0.00  0.00    +0.000 A 
ATOM      2  C   UNL     1       7.243   4.790  15.972  0.00  0.00    +0.000 A 
ATOM      3  C   UNL     1       7.149   5.013  17.346  0.00  0.00    +0.000 A 
ATOM      4  C   UNL     1       6.005   4.620  18.044  0.00  0.00    +0.000 A 
ATOM      5  C   UNL     1       4.948   3.993  17.369  0.00  0.00    +0.000 A 
ATOM      6  C   UNL     1       5.045   3.768  15.986  0.00  0.00    +0.000 A 
ENDROOT
BRANCH   5   7
ATOM      7  N   UNL     1       3.782   3.586  18.068  0.00  0.00    +0.000 N 
ATOM      8  C   UNL     1       3.018   4.302  18.959  0.00  0.00    +0.000 A 
ATOM      9  C   UNL     1       2.001   3.448  19.331  0.00  0.00    +0.000 A 
ATOM     10  N   UNL     1       2.170   2.254  18.683  0.00  0.00    +0.000 NA
ATOM     11  N   UNL     1       3.251   2.348  17.918  0.00  0.00    +0.000 NA
BRANCH   9  12
ATOM     12  C   UNL     1       0.868   3.680  20.256  0.00  0.00    +0.000 C 
ATOM     13  F   UNL     1       0.936   2.839  21.327  0.00  0.00    +0.000 F 
ATOM     14  F   UNL     1       0.915   4.940  20.771  0.00  0.00    +0.000 F 
ENDBRANCH   9  12
ENDBRANCH   5   7
BRANCH   1  16
ATOM     15  N   UNL     1       6.386   3.774  12.732  0.00  0.00    +0.000 NA
ATOM     16  C   UNL     1       6.292   3.950  13.875  0.00  0.00    +0.000 C 
ENDBRANCH   1  16
TORSDOF 3
ENDMDL
MODEL 9
REMARK VINA RESULT:      -6.7      3.616      6.078
REMARK  Name = 
REMARK  3 active torsions:
REMARK  status: ('A' for Active; 'I' for Inactive)
REMARK    1  A    between atoms: C_2  and  C_3
REMARK    2  A    between atoms: C_7  and  N_8
REMARK    3  A    between atoms: C_10  and  C_11
REMARK                            x       y       z     vdW  Elec       q    Type
REMARK                         _______ _______ _______ _____ _____    ______ ____
ROOT
ATOM      1  C   UNL     1       6.634   6.047  16.984  0.00  0.00    +0.000 A 
ATOM      2  C   UNL     1       6.791   5.402  15.754  0.00  0.00    +0.000 A 
ATOM      3  C   UNL     1       6.119   4.208  15.497  0.00  0.00    +0.000 A 
ATOM      4  C   UNL     1       5.286   3.649  16.468  0.00  0.00    +0.000 A 
ATOM      5  C   UNL     1       5.117   4.289  17.705  0.00  0.00    +0.000 A 
ATOM      6  C   UNL     1       5.795   5.492  17.961  0.00  0.00    +0.000 A 
ENDROOT
BRANCH   5   7
ATOM      7  N   UNL     1       4.272   3.732  18.699  0.00  0.00    +0.000 N 
ATOM      8  C   UNL     1       2.916   3.891  18.864  0.00  0.00    +0.000 A 
ATOM      9  C   UNL     1       2.595   3.128  19.967  0.00  0.00    +0.000 A 
ATOM     10  N   UNL     1       3.735   2.543  20.445  0.00  0.00    +0.000 NA
ATOM     11  N   UNL     1       4.746   2.913  19.669  0.00  0.00    +0.000 NA
BRANCH   9  12
ATOM     12  C   UNL     1       1.277   2.903  20.604  0.00  0.00    +0.000 C 
ATOM     13  F   UNL     1       1.413   2.705  21.945  0.00  0.00    +0.000 F 
ATOM     14  F   UNL     1       0.482   4.002  20.470  0.00  0.00    +0.000 F 
ENDBRANCH   9  12
ENDBRANCH   5   7
BRANCH   1  16
ATOM     15  N   UNL     1       7.897   8.260  17.469  0.00  0.00    +0.000 NA
ATOM     16  C   UNL     1       7.335   7.270  17.245  0.00  0.00    +0.000 C 
ENDBRANCH   1  16
TORSDOF 3
ENDMDL
