MODEL 1
REMARK VINA RESULT:      -8.0      0.000      0.000
REMARK  Name = 
REMARK  7 active torsions:
REMARK  status: ('A' for Active; 'I' for Inactive)
REMARK    1  A    between atoms: C_1  and  C_2
REMARK    2  A    between atoms: C_4  and  C_5
REMARK    3  A    between atoms: N_8  and  S_9
REMARK    4  A    between atoms: S_9  and  C_12
REMARK    5  A    between atoms: C_15  and  N_16
REMARK    6  A    between atoms: N_16  and  S_17
REMARK    7  A    between atoms: S_17  and  C_20
REMARK                            x       y       z     vdW  Elec       q    Type
REMARK                         _______ _______ _______ _____ _____    ______ ____
ROOT
ATOM      1  C   UNL     1       1.335   8.931  19.710  0.00  0.00    +0.000 A 
ATOM      2  C   UNL     1       1.705   9.053  18.365  0.00  0.00    +0.000 A 
ATOM      3  C   UNL     1       2.402   8.008  17.742  0.00  0.00    +0.000 A 
ATOM      4  C   UNL     1       2.740   6.862  18.467  0.00  0.00    +0.000 A 
ATOM      5  C   UNL     1       2.422   6.773  19.822  0.00  0.00    +0.000 A 
ATOM      6  C   UNL     1       1.724   7.811  20.450  0.00  0.00    +0.000 A 
ENDROOT
BRANCH   1   7
ATOM      7  S   UNL     1       0.394  10.225  20.508  0.00  0.00    +0.000 S 
ATOM      8  O   UNL     1       1.273  10.878  21.450  0.00  0.00    +0.000 OA
ATOM      9  O   UNL     1      -0.847   9.621  20.955  0.00  0.00    +0.000 OA
BRANCH   7  17
ATOM     10  C   UNL     1      -2.873   9.657  15.866  0.00  0.00    +0.000 C 
ATOM     11  C   UNL     1      -2.693  10.445  17.128  0.00  0.00    +0.000 A 
ATOM     12  C   UNL     1      -3.756  11.120  17.701  0.00  0.00    +0.000 A 
ATOM     13  C   UNL     1      -3.492  11.827  18.860  0.00  0.00    +0.000 A 
ATOM     14  C   UNL     1      -4.579  12.595  19.549  0.00  0.00    +0.000 C 
ATOM     15  N   UNL     1      -2.261  11.875  19.412  0.00  0.00    +0.000 NA
ATOM     16  C   UNL     1      -1.318  11.167  18.786  0.00  0.00    +0.000 A 
ATOM     17  N   UNL     1      -0.032  11.285  19.295  0.00  0.00    +0.000 N 
ATOM     18  N   UNL     1      -1.458  10.460  17.668  0.00  0.00    +0.000 NA
ATOM     19  H   UNL     1       0.284  12.235  19.429  0.00  0.00    +0.000 HD
ENDBRANCH   7  17
ENDBRANCH   1   7
BRANCH   4  20
ATOM     20  N   UNL     1       3.339   5.734  17.826  0.00  0.00    +0.000 N 
ATOM     21  H   UNL     1       4.265   5.495  18.184  0.00  0.00    +0.000 HD
BRANCH  20  22
ATOM     22  S   UNL     1       2.437   4.305  17.681  0.00  0.00    +0.000 S 
ATOM     23  O   UNL     1       1.098   4.712  17.303  0.00  0.00    +0.000 OA
ATOM     24  O   UNL     1       3.176   3.333  16.919  0.00  0.00    +0.000 OA
BRANCH  22  25
ATOM     25  C   UNL     1       2.234   3.620  19.257  0.00  0.00    +0.000 A 
ATOM     26  C   UNL     1       0.987   3.492  19.940  0.00  0.00    +0.000 A 
ATOM     27  C   UNL     1       1.138   2.892  21.172  0.00  0.00    +0.000 A 
ATOM     28  S   UNL     1       2.771   2.501  21.504  0.00  0.00    +0.000 S 
ATOM     29  C   UNL     1       3.288   3.131  20.000  0.00  0.00    +0.000 A 
ENDBRANCH  22  25
ENDBRANCH  20  22
ENDBRANCH   4  20
TORSDOF 5
ENDMDL
MODEL 2
REMARK VINA RESULT:      -8.0      2.553      3.395
REMARK  Name = 
REMARK  7 active torsions:
REMARK  status: ('A' for Active; 'I' for Inactive)
REMARK    1  A    between atoms: C_1  and  C_2
REMARK    2  A    between atoms: C_4  and  C_5
REMARK    3  A    between atoms: N_8  and  S_9
REMARK    4  A    between atoms: S_9  and  C_12
REMARK    5  A    between atoms: C_15  and  N_16
REMARK    6  A    between atoms: N_16  and  S_17
REMARK    7  A    between atoms: S_17  and  C_20
REMARK                            x       y       z     vdW  Elec       q    Type
REMARK                         _______ _______ _______ _____ _____    ______ ____
ROOT
ATOM      1  C   UNL     1       1.466   7.804  20.553  0.00  0.00    +0.000 A 
ATOM      2  C   UNL     1       1.325   6.546  21.150  0.00  0.00    +0.000 A 
ATOM      3  C   UNL     1       1.867   5.417  20.520  0.00  0.00    +0.000 A 
ATOM      4  C   UNL     1       2.527   5.549  19.294  0.00  0.00    +0.000 A 
ATOM      5  C   UNL     1       2.611   6.797  18.677  0.00  0.00    +0.000 A 
ATOM      6  C   UNL     1       2.074   7.928  19.301  0.00  0.00    +0.000 A 
ENDROOT
BRANCH   1   7
ATOM      7  S   UNL     1       0.835   9.265  21.369  0.00  0.00    +0.000 S 
ATOM      8  O   UNL     1       1.768   9.612  22.416  0.00  0.00    +0.000 OA
ATOM      9  O   UNL     1      -0.557   8.997  21.683  0.00  0.00    +0.000 OA
BRANCH   7  17
ATOM     10  C   UNL     1      -2.320  10.009  16.675  0.00  0.00    +0.000 C 
ATOM     11  C   UNL     1      -1.921  10.637  17.975  0.00  0.00    +0.000 A 
ATOM     12  C   UNL     1      -2.716  11.601  18.570  0.00  0.00    +0.000 A 
ATOM     13  C   UNL     1      -2.262  12.131  19.764  0.00  0.00    +0.000 A 
ATOM     14  C   UNL     1      -3.052  13.185  20.479  0.00  0.00    +0.000 C 
ATOM     15  N   UNL     1      -1.099  11.745  20.330  0.00  0.00    +0.000 NA
ATOM     16  C   UNL     1      -0.427  10.793  19.679  0.00  0.00    +0.000 A 
ATOM     17  N   UNL     1       0.813  10.457  20.205  0.00  0.00    +0.000 N 
ATOM     18  N   UNL     1      -0.765  10.220  18.526  0.00  0.00    +0.000 NA
ATOM     19  H   UNL     1       1.421  11.242  20.388  0.00  0.00    +0.000 HD
ENDBRANCH   7  17
ENDBRANCH   1   7
BRANCH   4  20
ATOM     20  N   UNL     1       3.195   4.438  18.693  0.00  0.00    +0.000 N 
ATOM     21  H   UNL     1       3.001   4.325  17.697  0.00  0.00    +0.000 HD
BRANCH  20  22
ATOM     22  S   UNL     1       4.864   4.261  18.936  0.00  0.00    +0.000 S 
ATOM     23  O   UNL     1       5.299   5.460  19.625  0.00  0.00    +0.000 OA
ATOM     24  O   UNL     1       5.149   2.947  19.449  0.00  0.00    +0.000 OA
BRANCH  22  25
ATOM     25  C   UNL     1       5.657   4.355  17.400  0.00  0.00    +0.000 A 
ATOM     26  C   UNL     1       7.025   4.712  17.205  0.00  0.00    +0.000 A 
ATOM     27  C   UNL     1       7.376   4.683  15.872  0.00  0.00    +0.000 A 
ATOM     28  S   UNL     1       6.061   4.243  14.868  0.00  0.00    +0.000 S 
ATOM     29  C   UNL     1       5.013   4.086  16.210  0.00  0.00    +0.000 A 
ENDBRANCH  22  25
ENDBRANCH  20  22
ENDBRANCH   4  20
TORSDOF 5
ENDMDL
MODEL 3
REMARK VINA RESULT:      -7.8      2.890      8.212
REMARK  Name = 
REMARK  7 active torsions:
REMARK  status: ('A' for Active; 'I' for Inactive)
REMARK    1  A    between atoms: C_1  and  C_2
REMARK    2  A    between atoms: C_4  and  C_5
REMARK    3  A    between atoms: N_8  and  S_9
REMARK    4  A    between atoms: S_9  and  C_12
REMARK    5  A    between atoms: C_15  and  N_16
REMARK    6  A    between atoms: N_16  and  S_17
REMARK    7  A    between atoms: S_17  and  C_20
REMARK                            x       y       z     vdW  Elec       q    Type
REMARK                         _______ _______ _______ _____ _____    ______ ____
ROOT
ATOM      1  C   UNL     1       2.170   4.893  18.988  0.00  0.00    +0.000 A 
ATOM      2  C   UNL     1       2.335   6.180  18.462  0.00  0.00    +0.000 A 
ATOM      3  C   UNL     1       2.210   7.293  19.304  0.00  0.00    +0.000 A 
ATOM      4  C   UNL     1       1.905   7.117  20.657  0.00  0.00    +0.000 A 
ATOM      5  C   UNL     1       1.682   5.835  21.161  0.00  0.00    +0.000 A 
ATOM      6  C   UNL     1       1.807   4.720  20.327  0.00  0.00    +0.000 A 
ENDROOT
BRANCH   1   7
ATOM      7  S   UNL     1       2.383   3.457  17.944  0.00  0.00    +0.000 S 
ATOM      8  O   UNL     1       1.898   3.805  16.628  0.00  0.00    +0.000 OA
ATOM      9  O   UNL     1       1.816   2.332  18.664  0.00  0.00    +0.000 OA
BRANCH   7  17
ATOM     10  C   UNL     1       6.210   3.772  13.727  0.00  0.00    +0.000 C 
ATOM     11  C   UNL     1       5.872   4.288  15.092  0.00  0.00    +0.000 A 
ATOM     12  C   UNL     1       6.380   5.494  15.542  0.00  0.00    +0.000 A 
ATOM     13  C   UNL     1       6.019   5.883  16.818  0.00  0.00    +0.000 A 
ATOM     14  C   UNL     1       6.527   7.171  17.394  0.00  0.00    +0.000 C 
ATOM     15  N   UNL     1       5.221   5.132  17.604  0.00  0.00    +0.000 NA
ATOM     16  C   UNL     1       4.771   3.999  17.058  0.00  0.00    +0.000 A 
ATOM     17  N   UNL     1       4.025   3.178  17.892  0.00  0.00    +0.000 N 
ATOM     18  N   UNL     1       5.057   3.526  15.848  0.00  0.00    +0.000 NA
ATOM     19  H   UNL     1       4.452   2.981  18.785  0.00  0.00    +0.000 HD
ENDBRANCH   7  17
ENDBRANCH   1   7
BRANCH   4  20
ATOM     20  N   UNL     1       1.895   8.223  21.561  0.00  0.00    +0.000 N 
ATOM     21  H   UNL     1       2.624   8.915  21.382  0.00  0.00    +0.000 HD
BRANCH  20  22
ATOM     22  S   UNL     1       0.434   9.042  21.830  0.00  0.00    +0.000 S 
ATOM     23  O   UNL     1      -0.619   8.072  21.602  0.00  0.00    +0.000 OA
ATOM     24  O   UNL     1       0.514   9.801  23.050  0.00  0.00    +0.000 OA
BRANCH  22  25
ATOM     25  C   UNL     1       0.212  10.200  20.563  0.00  0.00    +0.000 A 
ATOM     26  C   UNL     1      -0.639  10.023  19.431  0.00  0.00    +0.000 A 
ATOM     27  C   UNL     1      -0.623  11.124  18.602  0.00  0.00    +0.000 A 
ATOM     28  S   UNL     1       0.421  12.352  19.179  0.00  0.00    +0.000 S 
ATOM     29  C   UNL     1       0.858  11.419  20.544  0.00  0.00    +0.000 A 
ENDBRANCH  22  25
ENDBRANCH  20  22
ENDBRANCH   4  20
TORSDOF 5
ENDMDL
MODEL 4
REMARK VINA RESULT:      -7.8      0.519      1.274
REMARK  Name = 
REMARK  7 active torsions:
REMARK  status: ('A' for Active; 'I' for Inactive)
REMARK    1  A    between atoms: C_1  and  C_2
REMARK    2  A    between atoms: C_4  and  C_5
REMARK    3  A    between atoms: N_8  and  S_9
REMARK    4  A    between atoms: S_9  and  C_12
REMARK    5  A    between atoms: C_15  and  N_16
REMARK    6  A    between atoms: N_16  and  S_17
REMARK    7  A    between atoms: S_17  and  C_20
REMARK                            x       y       z     vdW  Elec       q    Type
REMARK                         _______ _______ _______ _____ _____    ______ ____
ROOT
ATOM      1  C   UNL     1       1.232   9.040  19.919  0.00  0.00    +0.000 A 
ATOM      2  C   UNL     1       1.528   7.872  20.632  0.00  0.00    +0.000 A 
ATOM      3  C   UNL     1       2.183   6.815  19.985  0.00  0.00    +0.000 A 
ATOM      4  C   UNL     1       2.521   6.923  18.633  0.00  0.00    +0.000 A 
ATOM      5  C   UNL     1       2.169   8.066  17.914  0.00  0.00    +0.000 A 
ATOM      6  C   UNL     1       1.518   9.126  18.554  0.00  0.00    +0.000 A 
ENDROOT
BRANCH   1   7
ATOM      7  S   UNL     1       0.451  10.424  20.740  0.00  0.00    +0.000 S 
ATOM      8  O   UNL     1       1.452  11.054  21.570  0.00  0.00    +0.000 OA
ATOM      9  O   UNL     1      -0.779   9.921  21.323  0.00  0.00    +0.000 OA
BRANCH   7  17
ATOM     10  C   UNL     1      -3.138   9.838  16.346  0.00  0.00    +0.000 C 
ATOM     11  C   UNL     1      -2.846  10.656  17.567  0.00  0.00    +0.000 A 
ATOM     12  C   UNL     1      -3.844  11.387  18.186  0.00  0.00    +0.000 A 
ATOM     13  C   UNL     1      -3.478  12.118  19.301  0.00  0.00    +0.000 A 
ATOM     14  C   UNL     1      -4.489  12.946  20.035  0.00  0.00    +0.000 C 
ATOM     15  N   UNL     1      -2.213  12.137  19.769  0.00  0.00    +0.000 NA
ATOM     16  C   UNL     1      -1.338  11.376  19.106  0.00  0.00    +0.000 A 
ATOM     17  N   UNL     1      -0.018  11.463  19.524  0.00  0.00    +0.000 N 
ATOM     18  N   UNL     1      -1.578  10.641  18.022  0.00  0.00    +0.000 NA
ATOM     19  H   UNL     1       0.339  12.403  19.606  0.00  0.00    +0.000 HD
ENDBRANCH   7  17
ENDBRANCH   1   7
BRANCH   4  20
ATOM     20  N   UNL     1       3.296   5.914  17.983  0.00  0.00    +0.000 N 
ATOM     21  H   UNL     1       4.233   5.794  18.371  0.00  0.00    +0.000 HD
BRANCH  20  22
ATOM     22  S   UNL     1       2.611   4.379  17.757  0.00  0.00    +0.000 S 
ATOM     23  O   UNL     1       1.237   4.608  17.352  0.00  0.00    +0.000 OA
ATOM     24  O   UNL     1       3.500   3.553  16.983  0.00  0.00    +0.000 OA
BRANCH  22  25
ATOM     25  C   UNL     1       2.466   3.608  19.299  0.00  0.00    +0.000 A 
ATOM     26  C   UNL     1       3.553   3.063  20.048  0.00  0.00    +0.000 A 
ATOM     27  C   UNL     1       3.131   2.530  21.247  0.00  0.00    +0.000 A 
ATOM     28  S   UNL     1       1.438   2.674  21.458  0.00  0.00    +0.000 S 
ATOM     29  C   UNL     1       1.258   3.454  19.946  0.00  0.00    +0.000 A 
ENDBRANCH  22  25
ENDBRANCH  20  22
ENDBRANCH   4  20
TORSDOF 5
ENDMDL
MODEL 5
REMARK VINA RESULT:      -7.7      2.482      3.459
REMARK  Name = 
REMARK  7 active torsions:
REMARK  status: ('A' for Active; 'I' for Inactive)
REMARK    1  A    between atoms: C_1  and  C_2
REMARK    2  A    between atoms: C_4  and  C_5
REMARK    3  A    between atoms: N_8  and  S_9
REMARK    4  A    between atoms: S_9  and  C_12
REMARK    5  A    between atoms: C_15  and  N_16
REMARK    6  A    between atoms: N_16  and  S_17
REMARK    7  A    between atoms: S_17  and  C_20
REMARK                            x       y       z     vdW  Elec       q    Type
REMARK                         _______ _______ _______ _____ _____    ______ ____
ROOT
ATOM      1  C   UNL     1       1.342   9.257  19.181  0.00  0.00    +0.000 A 
ATOM      2  C   UNL     1       1.903   9.186  17.901  0.00  0.00    +0.000 A 
ATOM      3  C   UNL     1       2.651   8.058  17.535  0.00  0.00    +0.000 A 
ATOM      4  C   UNL     1       2.848   7.022  18.452  0.00  0.00    +0.000 A 
ATOM      5  C   UNL     1       2.337   7.127  19.745  0.00  0.00    +0.000 A 
ATOM      6  C   UNL     1       1.588   8.248  20.116  0.00  0.00    +0.000 A 
ENDROOT
BRANCH   1   7
ATOM      7  S   UNL     1       0.335  10.659  19.648  0.00  0.00    +0.000 S 
ATOM      8  O   UNL     1       0.983  11.301  20.769  0.00  0.00    +0.000 OA
ATOM      9  O   UNL     1      -1.027  10.172  19.765  0.00  0.00    +0.000 OA
BRANCH   7  17
ATOM     10  C   UNL     1      -0.492  16.277  19.112  0.00  0.00    +0.000 C 
ATOM     11  C   UNL     1       0.479  15.168  18.845  0.00  0.00    +0.000 A 
ATOM     12  C   UNL     1       1.829  15.428  18.689  0.00  0.00    +0.000 A 
ATOM     13  C   UNL     1       2.646  14.343  18.436  0.00  0.00    +0.000 A 
ATOM     14  C   UNL     1       4.122  14.527  18.246  0.00  0.00    +0.000 C 
ATOM     15  N   UNL     1       2.167  13.086  18.333  0.00  0.00    +0.000 NA
ATOM     16  C   UNL     1       0.852  12.950  18.523  0.00  0.00    +0.000 A 
ATOM     17  N   UNL     1       0.338  11.676  18.328  0.00  0.00    +0.000 N 
ATOM     18  N   UNL     1      -0.026  13.921  18.765  0.00  0.00    +0.000 NA
ATOM     19  H   UNL     1       0.604  11.242  17.457  0.00  0.00    +0.000 HD
ENDBRANCH   7  17
ENDBRANCH   1   7
BRANCH   4  20
ATOM     20  N   UNL     1       3.499   5.810  18.066  0.00  0.00    +0.000 N 
ATOM     21  H   UNL     1       4.298   5.561  18.652  0.00  0.00    +0.000 HD
BRANCH  20  22
ATOM     22  S   UNL     1       2.558   4.419  17.828  0.00  0.00    +0.000 S 
ATOM     23  O   UNL     1       1.239   4.887  17.449  0.00  0.00    +0.000 OA
ATOM     24  O   UNL     1       3.282   3.467  17.029  0.00  0.00    +0.000 OA
BRANCH  22  25
ATOM     25  C   UNL     1       2.304   3.658  19.361  0.00  0.00    +0.000 A 
ATOM     26  C   UNL     1       1.050   3.582  20.040  0.00  0.00    +0.000 A 
ATOM     27  C   UNL     1       1.155   2.900  21.233  0.00  0.00    +0.000 A 
ATOM     28  S   UNL     1       2.755   2.369  21.535  0.00  0.00    +0.000 S 
ATOM     29  C   UNL     1       3.318   3.047  20.069  0.00  0.00    +0.000 A 
ENDBRANCH  22  25
ENDBRANCH  20  22
ENDBRANCH   4  20
TORSDOF 5
ENDMDL
MODEL 6
REMARK VINA RESULT:      -7.7      2.637      3.761
REMARK  Name = 
REMARK  7 active torsions:
REMARK  status: ('A' for Active; 'I' for Inactive)
REMARK    1  A    between atoms: C_1  and  C_2
REMARK    2  A    between atoms: C_4  and  C_5
REMARK    3  A    between atoms: N_8  and  S_9
REMARK    4  A    between atoms: S_9  and  C_12
REMARK    5  A    between atoms: C_15  and  N_16
REMARK    6  A    between atoms: N_16  and  S_17
REMARK    7  A    between atoms: S_17  and  C_20
REMARK                            x       y       z     vdW  Elec       q    Type
REMARK                         _______ _______ _______ _____ _____    ______ ____
ROOT
ATOM      1  C   UNL     1       1.167   9.451  19.301  0.00  0.00    +0.000 A 
ATOM      2  C   UNL     1       1.395   8.462  20.265  0.00  0.00    +0.000 A 
ATOM      3  C   UNL     1       2.127   7.317  19.921  0.00  0.00    +0.000 A 
ATOM      4  C   UNL     1       2.608   7.158  18.618  0.00  0.00    +0.000 A 
ATOM      5  C   UNL     1       2.326   8.119  17.648  0.00  0.00    +0.000 A 
ATOM      6  C   UNL     1       1.598   9.266  17.984  0.00  0.00    +0.000 A 
ENDROOT
BRANCH   1   7
ATOM      7  S   UNL     1       0.288  10.947  19.733  0.00  0.00    +0.000 S 
ATOM      8  O   UNL     1       1.011  11.575  20.815  0.00  0.00    +0.000 OA
ATOM      9  O   UNL     1      -1.106  10.577  19.896  0.00  0.00    +0.000 OA
BRANCH   7  17
ATOM     10  C   UNL     1      -0.377  16.560  18.964  0.00  0.00    +0.000 C 
ATOM     11  C   UNL     1       0.569  15.416  18.759  0.00  0.00    +0.000 A 
ATOM     12  C   UNL     1       1.928  15.634  18.620  0.00  0.00    +0.000 A 
ATOM     13  C   UNL     1       2.720  14.518  18.426  0.00  0.00    +0.000 A 
ATOM     14  C   UNL     1       4.204  14.656  18.258  0.00  0.00    +0.000 C 
ATOM     15  N   UNL     1       2.209  13.271  18.361  0.00  0.00    +0.000 NA
ATOM     16  C   UNL     1       0.888  13.178  18.531  0.00  0.00    +0.000 A 
ATOM     17  N   UNL     1       0.343  11.911  18.375  0.00  0.00    +0.000 N 
ATOM     18  N   UNL     1       0.032  14.180  18.717  0.00  0.00    +0.000 NA
ATOM     19  H   UNL     1       0.614  11.436  17.526  0.00  0.00    +0.000 HD
ENDBRANCH   7  17
ENDBRANCH   1   7
BRANCH   4  20
ATOM     20  N   UNL     1       3.459   6.064  18.275  0.00  0.00    +0.000 N 
ATOM     21  H   UNL     1       4.233   5.917  18.925  0.00  0.00    +0.000 HD
BRANCH  20  22
ATOM     22  S   UNL     1       2.755   4.559  17.935  0.00  0.00    +0.000 S 
ATOM     23  O   UNL     1       1.395   4.837  17.517  0.00  0.00    +0.000 OA
ATOM     24  O   UNL     1       3.648   3.769  17.129  0.00  0.00    +0.000 OA
BRANCH  22  25
ATOM     25  C   UNL     1       2.563   3.693  19.421  0.00  0.00    +0.000 A 
ATOM     26  C   UNL     1       3.581   2.916  20.053  0.00  0.00    +0.000 A 
ATOM     27  C   UNL     1       3.138   2.358  21.234  0.00  0.00    +0.000 A 
ATOM     28  S   UNL     1       1.507   2.759  21.566  0.00  0.00    +0.000 S 
ATOM     29  C   UNL     1       1.382   3.683  20.132  0.00  0.00    +0.000 A 
ENDBRANCH  22  25
ENDBRANCH  20  22
ENDBRANCH   4  20
TORSDOF 5
ENDMDL
MODEL 7
REMARK VINA RESULT:      -7.7      2.372      3.152
REMARK  Name = 
REMARK  7 active torsions:
REMARK  status: ('A' for Active; 'I' for Inactive)
REMARK    1  A    between atoms: C_1  and  C_2
REMARK    2  A    between atoms: C_4  and  C_5
REMARK    3  A    between atoms: N_8  and  S_9
REMARK    4  A    between atoms: S_9  and  C_12
REMARK    5  A    between atoms: C_15  and  N_16
REMARK    6  A    between atoms: N_16  and  S_17
REMARK    7  A    between atoms: S_17  and  C_20
REMARK                            x       y       z     vdW  Elec       q    Type
REMARK                         _______ _______ _______ _____ _____    ______ ____
ROOT
ATOM      1  C   UNL     1       1.539   7.650  20.393  0.00  0.00    +0.000 A 
ATOM      2  C   UNL     1       2.165   7.859  19.159  0.00  0.00    +0.000 A 
ATOM      3  C   UNL     1       2.570   6.757  18.392  0.00  0.00    +0.000 A 
ATOM      4  C   UNL     1       2.364   5.459  18.869  0.00  0.00    +0.000 A 
ATOM      5  C   UNL     1       1.794   5.260  20.127  0.00  0.00    +0.000 A 
ATOM      6  C   UNL     1       1.386   6.355  20.896  0.00  0.00    +0.000 A 
ENDROOT
BRANCH   1   7
ATOM      7  S   UNL     1       0.962   9.039  21.359  0.00  0.00    +0.000 S 
ATOM      8  O   UNL     1       1.927   9.264  22.410  0.00  0.00    +0.000 OA
ATOM      9  O   UNL     1      -0.428   8.773  21.681  0.00  0.00    +0.000 OA
BRANCH   7  17
ATOM     10  C   UNL     1      -2.155  10.210  16.728  0.00  0.00    +0.000 C 
ATOM     11  C   UNL     1      -1.773  10.714  18.086  0.00  0.00    +0.000 A 
ATOM     12  C   UNL     1      -2.579  11.611  18.763  0.00  0.00    +0.000 A 
ATOM     13  C   UNL     1      -2.140  12.027  20.006  0.00  0.00    +0.000 A 
ATOM     14  C   UNL     1      -2.944  13.003  20.811  0.00  0.00    +0.000 C 
ATOM     15  N   UNL     1      -0.980  11.596  20.544  0.00  0.00    +0.000 NA
ATOM     16  C   UNL     1      -0.295  10.714  19.811  0.00  0.00    +0.000 A 
ATOM     17  N   UNL     1       0.942  10.337  20.315  0.00  0.00    +0.000 N 
ATOM     18  N   UNL     1      -0.619  10.253  18.606  0.00  0.00    +0.000 NA
ATOM     19  H   UNL     1       1.543  11.105  20.578  0.00  0.00    +0.000 HD
ENDBRANCH   7  17
ENDBRANCH   1   7
BRANCH   4  20
ATOM     20  N   UNL     1       2.652   4.320  18.057  0.00  0.00    +0.000 N 
ATOM     21  H   UNL     1       2.505   4.473  17.058  0.00  0.00    +0.000 HD
BRANCH  20  22
ATOM     22  S   UNL     1       4.138   3.528  18.262  0.00  0.00    +0.000 S 
ATOM     23  O   UNL     1       4.572   3.833  19.612  0.00  0.00    +0.000 OA
ATOM     24  O   UNL     1       4.042   2.173  17.786  0.00  0.00    +0.000 OA
BRANCH  22  25
ATOM     25  C   UNL     1       5.318   4.303  17.261  0.00  0.00    +0.000 A 
ATOM     26  C   UNL     1       6.139   5.399  17.662  0.00  0.00    +0.000 A 
ATOM     27  C   UNL     1       6.995   5.792  16.656  0.00  0.00    +0.000 A 
ATOM     28  S   UNL     1       6.798   4.853  15.237  0.00  0.00    +0.000 S 
ATOM     29  C   UNL     1       5.565   3.914  15.961  0.00  0.00    +0.000 A 
ENDBRANCH  22  25
ENDBRANCH  20  22
ENDBRANCH   4  20
TORSDOF 5
ENDMDL
MODEL 8
REMARK VINA RESULT:      -7.6      1.212      2.108
REMARK  Name = 
REMARK  7 active torsions:
REMARK  status: ('A' for Active; 'I' for Inactive)
REMARK    1  A    between atoms: C_1  and  C_2
REMARK    2  A    between atoms: C_4  and  C_5
REMARK    3  A    between atoms: N_8  and  S_9
REMARK    4  A    between atoms: S_9  and  C_12
REMARK    5  A    between atoms: C_15  and  N_16
REMARK    6  A    between atoms: N_16  and  S_17
REMARK    7  A    between atoms: S_17  and  C_20
REMARK                            x       y       z     vdW  Elec       q    Type
REMARK                         _______ _______ _______ _____ _____    ______ ____
ROOT
ATOM      1  C   UNL     1       0.867   9.413  19.133  0.00  0.00    +0.000 A 
ATOM      2  C   UNL     1       1.578   9.342  17.929  0.00  0.00    +0.000 A 
ATOM      3  C   UNL     1       2.517   8.319  17.740  0.00  0.00    +0.000 A 
ATOM      4  C   UNL     1       2.752   7.387  18.756  0.00  0.00    +0.000 A 
ATOM      5  C   UNL     1       2.083   7.500  19.975  0.00  0.00    +0.000 A 
ATOM      6  C   UNL     1       1.144   8.518  20.170  0.00  0.00    +0.000 A 
ENDROOT
BRANCH   1   7
ATOM      7  S   UNL     1      -0.377  10.675  19.373  0.00  0.00    +0.000 S 
ATOM      8  O   UNL     1      -0.150  11.699  18.379  0.00  0.00    +0.000 OA
ATOM      9  O   UNL     1      -0.367  11.006  20.786  0.00  0.00    +0.000 OA
BRANCH   7  17
ATOM     10  C   UNL     1      -5.521  12.677  17.935  0.00  0.00    +0.000 C 
ATOM     11  C   UNL     1      -4.432  11.735  17.521  0.00  0.00    +0.000 A 
ATOM     12  C   UNL     1      -4.302  11.337  16.202  0.00  0.00    +0.000 A 
ATOM     13  C   UNL     1      -3.273  10.460  15.916  0.00  0.00    +0.000 A 
ATOM     14  C   UNL     1      -3.057   9.967  14.517  0.00  0.00    +0.000 C 
ATOM     15  N   UNL     1      -2.433   9.997  16.866  0.00  0.00    +0.000 NA
ATOM     16  C   UNL     1      -2.638  10.466  18.099  0.00  0.00    +0.000 A 
ATOM     17  N   UNL     1      -1.839   9.925  19.096  0.00  0.00    +0.000 N 
ATOM     18  N   UNL     1      -3.597  11.304  18.487  0.00  0.00    +0.000 NA
ATOM     19  H   UNL     1      -1.810   8.916  19.114  0.00  0.00    +0.000 HD
ENDBRANCH   7  17
ENDBRANCH   1   7
BRANCH   4  20
ATOM     20  N   UNL     1       3.609   6.264  18.543  0.00  0.00    +0.000 N 
ATOM     21  H   UNL     1       4.256   6.082  19.312  0.00  0.00    +0.000 HD
BRANCH  20  22
ATOM     22  S   UNL     1       2.919   4.791  18.065  0.00  0.00    +0.000 S 
ATOM     23  O   UNL     1       1.629   5.119  17.491  0.00  0.00    +0.000 OA
ATOM     24  O   UNL     1       3.888   4.004  17.348  0.00  0.00    +0.000 OA
BRANCH  22  25
ATOM     25  C   UNL     1       2.524   3.882  19.484  0.00  0.00    +0.000 A 
ATOM     26  C   UNL     1       1.242   3.861  20.112  0.00  0.00    +0.000 A 
ATOM     27  C   UNL     1       1.227   3.033  21.214  0.00  0.00    +0.000 A 
ATOM     28  S   UNL     1       2.749   2.299  21.492  0.00  0.00    +0.000 S 
ATOM     29  C   UNL     1       3.439   3.085  20.139  0.00  0.00    +0.000 A 
ENDBRANCH  22  25
ENDBRANCH  20  22
ENDBRANCH   4  20
TORSDOF 5
ENDMDL
MODEL 9
REMARK VINA RESULT:      -7.6      1.066      1.274
REMARK  Name = 
REMARK  7 active torsions:
REMARK  status: ('A' for Active; 'I' for Inactive)
REMARK    1  A    between atoms: C_1  and  C_2
REMARK    2  A    between atoms: C_4  and  C_5
REMARK    3  A    between atoms: N_8  and  S_9
REMARK    4  A    between atoms: S_9  and  C_12
REMARK    5  A    between atoms: C_15  and  N_16
REMARK    6  A    between atoms: N_16  and  S_17
REMARK    7  A    between atoms: S_17  and  C_20
REMARK                            x       y       z     vdW  Elec       q    Type
REMARK                         _______ _______ _______ _____ _____    ______ ____
ROOT
ATOM      1  C   UNL     1       1.273   9.319  19.590  0.00  0.00    +0.000 A 
ATOM      2  C   UNL     1       1.733   9.523  18.284  0.00  0.00    +0.000 A 
ATOM      3  C   UNL     1       2.446   8.505  17.635  0.00  0.00    +0.000 A 
ATOM      4  C   UNL     1       2.710   7.303  18.298  0.00  0.00    +0.000 A 
ATOM      5  C   UNL     1       2.301   7.131  19.620  0.00  0.00    +0.000 A 
ATOM      6  C   UNL     1       1.587   8.141  20.273  0.00  0.00    +0.000 A 
ENDROOT
BRANCH   1   7
ATOM      7  S   UNL     1       0.311  10.581  20.415  0.00  0.00    +0.000 S 
ATOM      8  O   UNL     1       1.201  11.287  21.307  0.00  0.00    +0.000 OA
ATOM      9  O   UNL     1      -0.879   9.927  20.926  0.00  0.00    +0.000 OA
BRANCH   7  17
ATOM     10  C   UNL     1      -2.914   9.735  15.786  0.00  0.00    +0.000 C 
ATOM     11  C   UNL     1      -2.801  10.529  17.052  0.00  0.00    +0.000 A 
ATOM     12  C   UNL     1      -3.919  11.099  17.634  0.00  0.00    +0.000 A 
ATOM     13  C   UNL     1      -3.716  11.821  18.795  0.00  0.00    +0.000 A 
ATOM     14  C   UNL     1      -4.867  12.481  19.493  0.00  0.00    +0.000 C 
ATOM     15  N   UNL     1      -2.493  11.981  19.341  0.00  0.00    +0.000 NA
ATOM     16  C   UNL     1      -1.490  11.368  18.707  0.00  0.00    +0.000 A 
ATOM     17  N   UNL     1      -0.218  11.603  19.210  0.00  0.00    +0.000 N 
ATOM     18  N   UNL     1      -1.570  10.656  17.585  0.00  0.00    +0.000 NA
ATOM     19  H   UNL     1       0.008  12.577  19.348  0.00  0.00    +0.000 HD
ENDBRANCH   7  17
ENDBRANCH   1   7
BRANCH   4  20
ATOM     20  N   UNL     1       3.324   6.206  17.620  0.00  0.00    +0.000 N 
ATOM     21  H   UNL     1       3.979   6.483  16.886  0.00  0.00    +0.000 HD
BRANCH  20  22
ATOM     22  S   UNL     1       4.043   4.977  18.542  0.00  0.00    +0.000 S 
ATOM     23  O   UNL     1       4.670   4.078  17.593  0.00  0.00    +0.000 OA
ATOM     24  O   UNL     1       4.777   5.552  19.639  0.00  0.00    +0.000 OA
BRANCH  22  25
ATOM     25  C   UNL     1       2.791   4.020  19.255  0.00  0.00    +0.000 A 
ATOM     26  C   UNL     1       1.695   3.444  18.545  0.00  0.00    +0.000 A 
ATOM     27  C   UNL     1       0.869   2.721  19.379  0.00  0.00    +0.000 A 
ATOM     28  S   UNL     1       1.405   2.751  21.004  0.00  0.00    +0.000 S 
ATOM     29  C   UNL     1       2.749   3.731  20.603  0.00  0.00    +0.000 A 
ENDBRANCH  22  25
ENDBRANCH  20  22
ENDBRANCH   4  20
TORSDOF 5
ENDMDL
