MODEL 1
REMARK VINA RESULT:      -8.6      0.000      0.000
REMARK  Name = 
REMARK  6 active torsions:
REMARK  status: ('A' for Active; 'I' for Inactive)
REMARK    1  A    between atoms: C_2  and  C_18
REMARK    2  A    between atoms: N_3  and  C_4
REMARK    3  A    between atoms: C_4  and  C_5
REMARK    4  A    between atoms: N_9  and  C_10
REMARK    5  A    between atoms: C_10  and  C_11
REMARK    6  A    between atoms: C_18  and  C_19
REMARK                            x       y       z     vdW  Elec       q    Type
REMARK                         _______ _______ _______ _____ _____    ______ ____
ROOT
ATOM      1  O   UNL     1       6.920   4.855  19.460  0.00  0.00    +0.000 OA
ATOM      2  C   UNL     1       6.029   4.846  18.620  0.00  0.00    +0.000 C 
ATOM      3  N   UNL     1       4.859   4.141  18.720  0.00  0.00    +0.000 N 
ATOM      4  H   UNL     1       4.260   4.100  17.906  0.00  0.00    +0.000 HD
ENDROOT
BRANCH   2   5
ATOM      5  C   UNL     1       6.106   5.730  17.397  0.00  0.00    +0.000 C 
ATOM      6  C   UNL     1       5.302   7.026  17.447  0.00  0.00    +0.000 C 
ATOM      7  C   UNL     1       6.795   7.089  17.478  0.00  0.00    +0.000 C 
BRANCH   5   8
ATOM      8  C   UNL     1       6.206   4.925  16.100  0.00  0.00    +0.000 A 
ATOM      9  C   UNL     1       7.384   4.975  15.328  0.00  0.00    +0.000 A 
ATOM     10  C   UNL     1       7.422   4.486  14.019  0.00  0.00    +0.000 A 
ATOM     11  C   UNL     1       6.279   3.931  13.456  0.00  0.00    +0.000 A 
ATOM     12 CL   UNL     1       6.285   3.442  11.807  0.00  0.00    +0.000 Cl
ATOM     13  C   UNL     1       5.120   3.798  14.209  0.00  0.00    +0.000 A 
ATOM     14  C   UNL     1       5.091   4.276  15.522  0.00  0.00    +0.000 A 
ATOM     15 CL   UNL     1       3.605   4.083  16.391  0.00  0.00    +0.000 Cl
ENDBRANCH   5   8
ENDBRANCH   2   5
BRANCH   3  16
ATOM     16  C   UNL     1       4.541   3.284  19.840  0.00  0.00    +0.000 C 
BRANCH  16  17
ATOM     17  C   UNL     1       3.058   3.386  20.090  0.00  0.00    +0.000 C 
ATOM     18  C   UNL     1       2.386   3.024  21.474  0.00  0.00    +0.000 C 
ATOM     19  C   UNL     1       1.148   2.871  20.548  0.00  0.00    +0.000 C 
ATOM     20  C   UNL     1       0.953   4.265  19.979  0.00  0.00    +0.000 C 
ATOM     21  N   UNL     1       2.336   4.618  19.621  0.00  0.00    +0.000 NA
ATOM     22  C   UNL     1       2.142   2.219  19.555  0.00  0.00    +0.000 C 
BRANCH  21  23
ATOM     23  C   UNL     1       2.832   5.829  20.293  0.00  0.00    +0.000 C 
BRANCH  23  24
ATOM     24  C   UNL     1       2.232   7.109  19.751  0.00  0.00    +0.000 A 
ATOM     25  C   UNL     1       2.357   7.422  18.388  0.00  0.00    +0.000 A 
ATOM     26  C   UNL     1       1.821   8.605  17.879  0.00  0.00    +0.000 A 
ATOM     27  C   UNL     1       1.150   9.484  18.727  0.00  0.00    +0.000 A 
ATOM     28  C   UNL     1       1.012   9.182  20.081  0.00  0.00    +0.000 A 
ATOM     29  C   UNL     1       1.552   8.000  20.591  0.00  0.00    +0.000 A 
ENDBRANCH  23  24
ENDBRANCH  21  23
ENDBRANCH  16  17
ENDBRANCH   3  16
TORSDOF 6
ENDMDL
MODEL 2
REMARK VINA RESULT:      -8.6      3.552      7.591
REMARK  Name = 
REMARK  6 active torsions:
REMARK  status: ('A' for Active; 'I' for Inactive)
REMARK    1  A    between atoms: C_2  and  C_18
REMARK    2  A    between atoms: N_3  and  C_4
REMARK    3  A    between atoms: C_4  and  C_5
REMARK    4  A    between atoms: N_9  and  C_10
REMARK    5  A    between atoms: C_10  and  C_11
REMARK    6  A    between atoms: C_18  and  C_19
REMARK                            x       y       z     vdW  Elec       q    Type
REMARK                         _______ _______ _______ _____ _____    ______ ____
ROOT
ATOM      1  O   UNL     1       1.765   8.818  18.535  0.00  0.00    +0.000 OA
ATOM      2  C   UNL     1       1.576   8.425  19.680  0.00  0.00    +0.000 C 
ATOM      3  N   UNL     1       2.094   7.275  20.212  0.00  0.00    +0.000 N 
ATOM      4  H   UNL     1       1.759   6.981  21.121  0.00  0.00    +0.000 HD
ENDROOT
BRANCH   2   5
ATOM      5  C   UNL     1       0.803   9.263  20.671  0.00  0.00    +0.000 C 
ATOM      6  C   UNL     1      -0.274   8.540  21.474  0.00  0.00    +0.000 C 
ATOM      7  C   UNL     1       0.960   9.017  22.169  0.00  0.00    +0.000 C 
BRANCH   5   8
ATOM      8  C   UNL     1       0.577  10.692  20.175  0.00  0.00    +0.000 A 
ATOM      9  C   UNL     1       1.339  11.751  20.707  0.00  0.00    +0.000 A 
ATOM     10  C   UNL     1       0.986  13.087  20.491  0.00  0.00    +0.000 A 
ATOM     11  C   UNL     1      -0.139  13.390  19.734  0.00  0.00    +0.000 A 
ATOM     12 CL   UNL     1      -0.650  15.025  19.571  0.00  0.00    +0.000 Cl
ATOM     13  C   UNL     1      -0.874  12.377  19.134  0.00  0.00    +0.000 A 
ATOM     14  C   UNL     1      -0.509  11.043  19.340  0.00  0.00    +0.000 A 
ATOM     15 CL   UNL     1      -1.482   9.837  18.566  0.00  0.00    +0.000 Cl
ENDBRANCH   5   8
ENDBRANCH   2   5
BRANCH   3  16
ATOM     16  C   UNL     1       2.922   6.355  19.465  0.00  0.00    +0.000 C 
BRANCH  16  17
ATOM     17  C   UNL     1       2.522   4.954  19.854  0.00  0.00    +0.000 C 
ATOM     18  C   UNL     1       1.044   4.410  19.729  0.00  0.00    +0.000 C 
ATOM     19  C   UNL     1       1.587   3.416  20.792  0.00  0.00    +0.000 C 
ATOM     20  C   UNL     1       2.704   2.688  20.064  0.00  0.00    +0.000 C 
ATOM     21  N   UNL     1       3.394   3.813  19.414  0.00  0.00    +0.000 NA
ATOM     22  C   UNL     1       2.301   4.655  21.387  0.00  0.00    +0.000 C 
BRANCH  21  23
ATOM     23  C   UNL     1       3.451   3.706  17.948  0.00  0.00    +0.000 C 
BRANCH  23  24
ATOM     24  C   UNL     1       4.800   4.079  17.367  0.00  0.00    +0.000 A 
ATOM     25  C   UNL     1       4.985   4.102  15.976  0.00  0.00    +0.000 A 
ATOM     26  C   UNL     1       6.226   4.431  15.430  0.00  0.00    +0.000 A 
ATOM     27  C   UNL     1       7.292   4.746  16.270  0.00  0.00    +0.000 A 
ATOM     28  C   UNL     1       7.120   4.733  17.653  0.00  0.00    +0.000 A 
ATOM     29  C   UNL     1       5.880   4.400  18.200  0.00  0.00    +0.000 A 
ENDBRANCH  23  24
ENDBRANCH  21  23
ENDBRANCH  16  17
ENDBRANCH   3  16
TORSDOF 6
ENDMDL
MODEL 3
REMARK VINA RESULT:      -8.5      3.635      7.482
REMARK  Name = 
REMARK  6 active torsions:
REMARK  status: ('A' for Active; 'I' for Inactive)
REMARK    1  A    between atoms: C_2  and  C_18
REMARK    2  A    between atoms: N_3  and  C_4
REMARK    3  A    between atoms: C_4  and  C_5
REMARK    4  A    between atoms: N_9  and  C_10
REMARK    5  A    between atoms: C_10  and  C_11
REMARK    6  A    between atoms: C_18  and  C_19
REMARK                            x       y       z     vdW  Elec       q    Type
REMARK                         _______ _______ _______ _____ _____    ______ ____
ROOT
ATOM      1  O   UNL     1       1.378   8.914  17.842  0.00  0.00    +0.000 OA
ATOM      2  C   UNL     1       1.458   8.684  19.043  0.00  0.00    +0.000 C 
ATOM      3  N   UNL     1       2.168   7.655  19.601  0.00  0.00    +0.000 N 
ATOM      4  H   UNL     1       2.050   7.481  20.591  0.00  0.00    +0.000 HD
ENDROOT
BRANCH   2   5
ATOM      5  C   UNL     1       0.836   9.617  20.054  0.00  0.00    +0.000 C 
ATOM      6  C   UNL     1      -0.196   9.004  20.996  0.00  0.00    +0.000 C 
ATOM      7  C   UNL     1       1.126   9.437  21.542  0.00  0.00    +0.000 C 
BRANCH   5   8
ATOM      8  C   UNL     1       0.644  11.032  19.503  0.00  0.00    +0.000 A 
ATOM      9  C   UNL     1       1.531  12.060  19.878  0.00  0.00    +0.000 A 
ATOM     10  C   UNL     1       1.241  13.405  19.625  0.00  0.00    +0.000 A 
ATOM     11  C   UNL     1       0.055  13.747  18.987  0.00  0.00    +0.000 A 
ATOM     12 CL   UNL     1      -0.366  15.403  18.787  0.00  0.00    +0.000 Cl
ATOM     13  C   UNL     1      -0.811  12.758  18.539  0.00  0.00    +0.000 A 
ATOM     14  C   UNL     1      -0.509  11.415  18.781  0.00  0.00    +0.000 A 
ATOM     15 CL   UNL     1      -1.644  10.241  18.200  0.00  0.00    +0.000 Cl
ENDBRANCH   5   8
ENDBRANCH   2   5
BRANCH   3  16
ATOM     16  C   UNL     1       2.901   6.681  18.825  0.00  0.00    +0.000 C 
BRANCH  16  17
ATOM     17  C   UNL     1       2.591   5.316  19.387  0.00  0.00    +0.000 C 
ATOM     18  C   UNL     1       1.516   4.345  18.758  0.00  0.00    +0.000 C 
ATOM     19  C   UNL     1       1.569   3.761  20.197  0.00  0.00    +0.000 C 
ATOM     20  C   UNL     1       3.003   3.280  20.336  0.00  0.00    +0.000 C 
ATOM     21  N   UNL     1       3.737   4.426  19.776  0.00  0.00    +0.000 NA
ATOM     22  C   UNL     1       1.646   5.241  20.648  0.00  0.00    +0.000 C 
BRANCH  21  23
ATOM     23  C   UNL     1       4.577   4.083  18.618  0.00  0.00    +0.000 C 
BRANCH  23  24
ATOM     24  C   UNL     1       5.716   5.055  18.389  0.00  0.00    +0.000 A 
ATOM     25  C   UNL     1       6.726   5.196  19.355  0.00  0.00    +0.000 A 
ATOM     26  C   UNL     1       7.772   6.098  19.162  0.00  0.00    +0.000 A 
ATOM     27  C   UNL     1       7.823   6.863  17.999  0.00  0.00    +0.000 A 
ATOM     28  C   UNL     1       6.831   6.728  17.029  0.00  0.00    +0.000 A 
ATOM     29  C   UNL     1       5.781   5.829  17.223  0.00  0.00    +0.000 A 
ENDBRANCH  23  24
ENDBRANCH  21  23
ENDBRANCH  16  17
ENDBRANCH   3  16
TORSDOF 6
ENDMDL
MODEL 4
REMARK VINA RESULT:      -8.4      3.903      7.577
REMARK  Name = 
REMARK  6 active torsions:
REMARK  status: ('A' for Active; 'I' for Inactive)
REMARK    1  A    between atoms: C_2  and  C_18
REMARK    2  A    between atoms: N_3  and  C_4
REMARK    3  A    between atoms: C_4  and  C_5
REMARK    4  A    between atoms: N_9  and  C_10
REMARK    5  A    between atoms: C_10  and  C_11
REMARK    6  A    between atoms: C_18  and  C_19
REMARK                            x       y       z     vdW  Elec       q    Type
REMARK                         _______ _______ _______ _____ _____    ______ ____
ROOT
ATOM      1  O   UNL     1       0.291   8.905  20.981  0.00  0.00    +0.000 OA
ATOM      2  C   UNL     1       0.960   8.911  19.955  0.00  0.00    +0.000 C 
ATOM      3  N   UNL     1       1.831   7.925  19.578  0.00  0.00    +0.000 N 
ATOM      4  H   UNL     1       2.431   8.102  18.782  0.00  0.00    +0.000 HD
ENDROOT
BRANCH   2   5
ATOM      5  C   UNL     1       0.797  10.008  18.929  0.00  0.00    +0.000 C 
ATOM      6  C   UNL     1       1.778  11.174  19.022  0.00  0.00    +0.000 C 
ATOM      7  C   UNL     1       1.871  10.229  17.867  0.00  0.00    +0.000 C 
BRANCH   5   8
ATOM      8  C   UNL     1      -0.668  10.251  18.562  0.00  0.00    +0.000 A 
ATOM      9  C   UNL     1      -1.210   9.666  17.401  0.00  0.00    +0.000 A 
ATOM     10  C   UNL     1      -2.444  10.073  16.883  0.00  0.00    +0.000 A 
ATOM     11  C   UNL     1      -3.163  11.075  17.523  0.00  0.00    +0.000 A 
ATOM     12 CL   UNL     1      -4.618  11.668  16.822  0.00  0.00    +0.000 Cl
ATOM     13  C   UNL     1      -2.697  11.626  18.709  0.00  0.00    +0.000 A 
ATOM     14  C   UNL     1      -1.470  11.205  19.230  0.00  0.00    +0.000 A 
ATOM     15 CL   UNL     1      -0.951  11.948  20.707  0.00  0.00    +0.000 Cl
ENDBRANCH   5   8
ENDBRANCH   2   5
BRANCH   3  16
ATOM     16  C   UNL     1       2.091   6.746  20.373  0.00  0.00    +0.000 C 
BRANCH  16  17
ATOM     17  C   UNL     1       2.336   5.597  19.428  0.00  0.00    +0.000 C 
ATOM     18  C   UNL     1       1.817   5.578  17.936  0.00  0.00    +0.000 C 
ATOM     19  C   UNL     1       1.996   4.051  18.157  0.00  0.00    +0.000 C 
ATOM     20  C   UNL     1       3.484   3.900  18.421  0.00  0.00    +0.000 C 
ATOM     21  N   UNL     1       3.715   5.004  19.365  0.00  0.00    +0.000 NA
ATOM     22  C   UNL     1       1.414   4.325  19.566  0.00  0.00    +0.000 C 
BRANCH  21  23
ATOM     23  C   UNL     1       4.709   5.984  18.901  0.00  0.00    +0.000 C 
BRANCH  23  24
ATOM     24  C   UNL     1       5.462   5.541  17.663  0.00  0.00    +0.000 A 
ATOM     25  C   UNL     1       6.653   4.810  17.789  0.00  0.00    +0.000 A 
ATOM     26  C   UNL     1       7.363   4.408  16.657  0.00  0.00    +0.000 A 
ATOM     27  C   UNL     1       6.884   4.728  15.388  0.00  0.00    +0.000 A 
ATOM     28  C   UNL     1       5.698   5.448  15.249  0.00  0.00    +0.000 A 
ATOM     29  C   UNL     1       4.990   5.854  16.382  0.00  0.00    +0.000 A 
ENDBRANCH  23  24
ENDBRANCH  21  23
ENDBRANCH  16  17
ENDBRANCH   3  16
TORSDOF 6
ENDMDL
MODEL 5
REMARK VINA RESULT:      -8.2      1.979      3.296
REMARK  Name = 
REMARK  6 active torsions:
REMARK  status: ('A' for Active; 'I' for Inactive)
REMARK    1  A    between atoms: C_2  and  C_18
REMARK    2  A    between atoms: N_3  and  C_4
REMARK    3  A    between atoms: C_4  and  C_5
REMARK    4  A    between atoms: N_9  and  C_10
REMARK    5  A    between atoms: C_10  and  C_11
REMARK    6  A    between atoms: C_18  and  C_19
REMARK                            x       y       z     vdW  Elec       q    Type
REMARK                         _______ _______ _______ _____ _____    ______ ____
ROOT
ATOM      1  O   UNL     1       4.394   2.428  17.201  0.00  0.00    +0.000 OA
ATOM      2  C   UNL     1       4.829   3.526  17.529  0.00  0.00    +0.000 C 
ATOM      3  N   UNL     1       4.917   3.985  18.815  0.00  0.00    +0.000 N 
ATOM      4  H   UNL     1       5.161   4.957  18.955  0.00  0.00    +0.000 HD
ENDROOT
BRANCH   2   5
ATOM      5  C   UNL     1       5.420   4.464  16.503  0.00  0.00    +0.000 C 
ATOM      6  C   UNL     1       6.064   3.813  15.282  0.00  0.00    +0.000 C 
ATOM      7  C   UNL     1       4.791   4.580  15.118  0.00  0.00    +0.000 C 
BRANCH   5   8
ATOM      8  C   UNL     1       6.043   5.708  17.141  0.00  0.00    +0.000 A 
ATOM      9  C   UNL     1       5.427   6.965  16.979  0.00  0.00    +0.000 A 
ATOM     10  C   UNL     1       6.091   8.152  17.303  0.00  0.00    +0.000 A 
ATOM     11  C   UNL     1       7.388   8.104  17.799  0.00  0.00    +0.000 A 
ATOM     12 CL   UNL     1       8.255   9.564  18.079  0.00  0.00    +0.000 Cl
ATOM     13  C   UNL     1       8.002   6.882  18.039  0.00  0.00    +0.000 A 
ATOM     14  C   UNL     1       7.328   5.698  17.728  0.00  0.00    +0.000 A 
ATOM     15 CL   UNL     1       8.166   4.215  18.046  0.00  0.00    +0.000 Cl
ENDBRANCH   5   8
ENDBRANCH   2   5
BRANCH   3  16
ATOM     16  C   UNL     1       4.476   3.225  19.963  0.00  0.00    +0.000 C 
BRANCH  16  17
ATOM     17  C   UNL     1       2.990   3.436  20.112  0.00  0.00    +0.000 C 
ATOM     18  C   UNL     1       2.215   3.208  21.469  0.00  0.00    +0.000 C 
ATOM     19  C   UNL     1       1.027   3.073  20.478  0.00  0.00    +0.000 C 
ATOM     20  C   UNL     1       0.959   4.436  19.812  0.00  0.00    +0.000 C 
ATOM     21  N   UNL     1       2.381   4.677  19.522  0.00  0.00    +0.000 NA
ATOM     22  C   UNL     1       2.032   2.296  19.592  0.00  0.00    +0.000 C 
BRANCH  21  23
ATOM     23  C   UNL     1       2.916   5.896  20.148  0.00  0.00    +0.000 C 
BRANCH  23  24
ATOM     24  C   UNL     1       2.309   7.172  19.602  0.00  0.00    +0.000 A 
ATOM     25  C   UNL     1       1.632   8.053  20.460  0.00  0.00    +0.000 A 
ATOM     26  C   UNL     1       1.057   9.224  19.966  0.00  0.00    +0.000 A 
ATOM     27  C   UNL     1       1.159   9.529  18.610  0.00  0.00    +0.000 A 
ATOM     28  C   UNL     1       1.835   8.666  17.748  0.00  0.00    +0.000 A 
ATOM     29  C   UNL     1       2.407   7.491  18.241  0.00  0.00    +0.000 A 
ENDBRANCH  23  24
ENDBRANCH  21  23
ENDBRANCH  16  17
ENDBRANCH   3  16
TORSDOF 6
ENDMDL
MODEL 6
REMARK VINA RESULT:      -8.1      1.307      1.523
REMARK  Name = 
REMARK  6 active torsions:
REMARK  status: ('A' for Active; 'I' for Inactive)
REMARK    1  A    between atoms: C_2  and  C_18
REMARK    2  A    between atoms: N_3  and  C_4
REMARK    3  A    between atoms: C_4  and  C_5
REMARK    4  A    between atoms: N_9  and  C_10
REMARK    5  A    between atoms: C_10  and  C_11
REMARK    6  A    between atoms: C_18  and  C_19
REMARK                            x       y       z     vdW  Elec       q    Type
REMARK                         _______ _______ _______ _____ _____    ______ ____
ROOT
ATOM      1  O   UNL     1       5.204   5.702  19.681  0.00  0.00    +0.000 OA
ATOM      2  C   UNL     1       5.666   4.758  19.051  0.00  0.00    +0.000 C 
ATOM      3  N   UNL     1       5.285   3.451  19.200  0.00  0.00    +0.000 N 
ATOM      4  H   UNL     1       5.832   2.742  18.728  0.00  0.00    +0.000 HD
ENDROOT
BRANCH   2   5
ATOM      5  C   UNL     1       6.665   4.981  17.941  0.00  0.00    +0.000 C 
ATOM      6  C   UNL     1       7.639   6.141  18.130  0.00  0.00    +0.000 C 
ATOM      7  C   UNL     1       8.151   4.738  18.188  0.00  0.00    +0.000 C 
BRANCH   5   8
ATOM      8  C   UNL     1       6.083   4.670  16.561  0.00  0.00    +0.000 A 
ATOM      9  C   UNL     1       6.397   3.454  15.922  0.00  0.00    +0.000 A 
ATOM     10  C   UNL     1       6.118   3.246  14.567  0.00  0.00    +0.000 A 
ATOM     11  C   UNL     1       5.515   4.254  13.824  0.00  0.00    +0.000 A 
ATOM     12 CL   UNL     1       5.285   4.052  12.131  0.00  0.00    +0.000 Cl
ATOM     13  C   UNL     1       5.125   5.438  14.435  0.00  0.00    +0.000 A 
ATOM     14  C   UNL     1       5.393   5.635  15.793  0.00  0.00    +0.000 A 
ATOM     15 CL   UNL     1       4.886   7.144  16.479  0.00  0.00    +0.000 Cl
ENDBRANCH   5   8
ENDBRANCH   2   5
BRANCH   3  16
ATOM     16  C   UNL     1       4.291   3.016  20.155  0.00  0.00    +0.000 C 
BRANCH  16  17
ATOM     17  C   UNL     1       2.959   2.983  19.451  0.00  0.00    +0.000 C 
ATOM     18  C   UNL     1       1.757   2.068  19.914  0.00  0.00    +0.000 C 
ATOM     19  C   UNL     1       1.341   2.296  18.435  0.00  0.00    +0.000 C 
ATOM     20  C   UNL     1       1.132   3.798  18.349  0.00  0.00    +0.000 C 
ATOM     21  N   UNL     1       2.323   4.288  19.060  0.00  0.00    +0.000 NA
ATOM     22  C   UNL     1       2.851   2.131  18.128  0.00  0.00    +0.000 C 
BRANCH  21  23
ATOM     23  C   UNL     1       2.014   5.116  20.236  0.00  0.00    +0.000 C 
BRANCH  23  24
ATOM     24  C   UNL     1       1.834   6.584  19.910  0.00  0.00    +0.000 A 
ATOM     25  C   UNL     1       2.205   7.075  18.648  0.00  0.00    +0.000 A 
ATOM     26  C   UNL     1       2.056   8.427  18.341  0.00  0.00    +0.000 A 
ATOM     27  C   UNL     1       1.529   9.301  19.290  0.00  0.00    +0.000 A 
ATOM     28  C   UNL     1       1.150   8.825  20.544  0.00  0.00    +0.000 A 
ATOM     29  C   UNL     1       1.303   7.472  20.854  0.00  0.00    +0.000 A 
ENDBRANCH  23  24
ENDBRANCH  21  23
ENDBRANCH  16  17
ENDBRANCH   3  16
TORSDOF 6
ENDMDL
MODEL 7
REMARK VINA RESULT:      -8.0      1.868      3.065
REMARK  Name = 
REMARK  6 active torsions:
REMARK  status: ('A' for Active; 'I' for Inactive)
REMARK    1  A    between atoms: C_2  and  C_18
REMARK    2  A    between atoms: N_3  and  C_4
REMARK    3  A    between atoms: C_4  and  C_5
REMARK    4  A    between atoms: N_9  and  C_10
REMARK    5  A    between atoms: C_10  and  C_11
REMARK    6  A    between atoms: C_18  and  C_19
REMARK                            x       y       z     vdW  Elec       q    Type
REMARK                         _______ _______ _______ _____ _____    ______ ____
ROOT
ATOM      1  O   UNL     1       6.168   4.420  19.670  0.00  0.00    +0.000 OA
ATOM      2  C   UNL     1       5.549   4.026  18.688  0.00  0.00    +0.000 C 
ATOM      3  N   UNL     1       4.524   3.120  18.717  0.00  0.00    +0.000 N 
ATOM      4  H   UNL     1       4.181   2.765  17.833  0.00  0.00    +0.000 HD
ENDROOT
BRANCH   2   5
ATOM      5  C   UNL     1       5.813   4.608  17.320  0.00  0.00    +0.000 C 
ATOM      6  C   UNL     1       6.007   3.606  16.184  0.00  0.00    +0.000 C 
ATOM      7  C   UNL     1       4.777   4.455  16.210  0.00  0.00    +0.000 C 
BRANCH   5   8
ATOM      8  C   UNL     1       6.651   5.886  17.381  0.00  0.00    +0.000 A 
ATOM      9  C   UNL     1       7.750   5.967  18.259  0.00  0.00    +0.000 A 
ATOM     10  C   UNL     1       8.368   7.188  18.548  0.00  0.00    +0.000 A 
ATOM     11  C   UNL     1       7.899   8.355  17.958  0.00  0.00    +0.000 A 
ATOM     12 CL   UNL     1       8.572   9.874  18.405  0.00  0.00    +0.000 Cl
ATOM     13  C   UNL     1       6.865   8.307  17.033  0.00  0.00    +0.000 A 
ATOM     14  C   UNL     1       6.260   7.082  16.736  0.00  0.00    +0.000 A 
ATOM     15 CL   UNL     1       4.970   7.107  15.580  0.00  0.00    +0.000 Cl
ENDBRANCH   5   8
ENDBRANCH   2   5
BRANCH   3  16
ATOM     16  C   UNL     1       4.054   2.487  19.929  0.00  0.00    +0.000 C 
BRANCH  16  17
ATOM     17  C   UNL     1       2.620   2.901  20.139  0.00  0.00    +0.000 C 
ATOM     18  C   UNL     1       1.878   2.776  21.528  0.00  0.00    +0.000 C 
ATOM     19  C   UNL     1       0.642   2.812  20.587  0.00  0.00    +0.000 C 
ATOM     20  C   UNL     1       0.737   4.175  19.924  0.00  0.00    +0.000 C 
ATOM     21  N   UNL     1       2.166   4.218  19.575  0.00  0.00    +0.000 NA
ATOM     22  C   UNL     1       1.493   1.908  19.660  0.00  0.00    +0.000 C 
BRANCH  21  23
ATOM     23  C   UNL     1       2.890   5.347  20.178  0.00  0.00    +0.000 C 
BRANCH  23  24
ATOM     24  C   UNL     1       2.466   6.696  19.635  0.00  0.00    +0.000 A 
ATOM     25  C   UNL     1       2.825   7.074  18.331  0.00  0.00    +0.000 A 
ATOM     26  C   UNL     1       2.451   8.320  17.825  0.00  0.00    +0.000 A 
ATOM     27  C   UNL     1       1.710   9.196  18.615  0.00  0.00    +0.000 A 
ATOM     28  C   UNL     1       1.341   8.830  19.908  0.00  0.00    +0.000 A 
ATOM     29  C   UNL     1       1.717   7.586  20.417  0.00  0.00    +0.000 A 
ENDBRANCH  23  24
ENDBRANCH  21  23
ENDBRANCH  16  17
ENDBRANCH   3  16
TORSDOF 6
ENDMDL
MODEL 8
REMARK VINA RESULT:      -8.0      3.898      7.440
REMARK  Name = 
REMARK  6 active torsions:
REMARK  status: ('A' for Active; 'I' for Inactive)
REMARK    1  A    between atoms: C_2  and  C_18
REMARK    2  A    between atoms: N_3  and  C_4
REMARK    3  A    between atoms: C_4  and  C_5
REMARK    4  A    between atoms: N_9  and  C_10
REMARK    5  A    between atoms: C_10  and  C_11
REMARK    6  A    between atoms: C_18  and  C_19
REMARK                            x       y       z     vdW  Elec       q    Type
REMARK                         _______ _______ _______ _____ _____    ______ ____
ROOT
ATOM      1  O   UNL     1       1.999   9.721  18.089  0.00  0.00    +0.000 OA
ATOM      2  C   UNL     1       1.462   9.147  19.030  0.00  0.00    +0.000 C 
ATOM      3  N   UNL     1       1.778   7.889  19.468  0.00  0.00    +0.000 N 
ATOM      4  H   UNL     1       1.176   7.464  20.161  0.00  0.00    +0.000 HD
ENDROOT
BRANCH   2   5
ATOM      5  C   UNL     1       0.431   9.849  19.881  0.00  0.00    +0.000 C 
ATOM      6  C   UNL     1       0.225   9.296  21.289  0.00  0.00    +0.000 C 
ATOM      7  C   UNL     1       0.864  10.636  21.115  0.00  0.00    +0.000 C 
BRANCH   5   8
ATOM      8  C   UNL     1      -0.758  10.353  19.061  0.00  0.00    +0.000 A 
ATOM      9  C   UNL     1      -1.751   9.450  18.631  0.00  0.00    +0.000 A 
ATOM     10  C   UNL     1      -2.695   9.806  17.664  0.00  0.00    +0.000 A 
ATOM     11  C   UNL     1      -2.667  11.079  17.108  0.00  0.00    +0.000 A 
ATOM     12 CL   UNL     1      -3.744  11.482  15.828  0.00  0.00    +0.000 Cl
ATOM     13  C   UNL     1      -1.749  12.020  17.556  0.00  0.00    +0.000 A 
ATOM     14  C   UNL     1      -0.817  11.664  18.534  0.00  0.00    +0.000 A 
ATOM     15 CL   UNL     1       0.301  12.890  19.033  0.00  0.00    +0.000 Cl
ENDBRANCH   5   8
ENDBRANCH   2   5
BRANCH   3  16
ATOM     16  C   UNL     1       2.786   7.060  18.846  0.00  0.00    +0.000 C 
BRANCH  16  17
ATOM     17  C   UNL     1       2.565   5.641  19.308  0.00  0.00    +0.000 C 
ATOM     18  C   UNL     1       1.515   4.667  18.641  0.00  0.00    +0.000 C 
ATOM     19  C   UNL     1       1.652   3.977  20.025  0.00  0.00    +0.000 C 
ATOM     20  C   UNL     1       3.112   3.562  20.076  0.00  0.00    +0.000 C 
ATOM     21  N   UNL     1       3.767   4.784  19.585  0.00  0.00    +0.000 NA
ATOM     22  C   UNL     1       1.674   5.419  20.590  0.00  0.00    +0.000 C 
BRANCH  21  23
ATOM     23  C   UNL     1       4.578   4.577  18.375  0.00  0.00    +0.000 C 
BRANCH  23  24
ATOM     24  C   UNL     1       5.783   5.491  18.292  0.00  0.00    +0.000 A 
ATOM     25  C   UNL     1       6.831   5.359  19.217  0.00  0.00    +0.000 A 
ATOM     26  C   UNL     1       7.940   6.204  19.159  0.00  0.00    +0.000 A 
ATOM     27  C   UNL     1       8.014   7.184  18.172  0.00  0.00    +0.000 A 
ATOM     28  C   UNL     1       6.984   7.321  17.243  0.00  0.00    +0.000 A 
ATOM     29  C   UNL     1       5.872   6.478  17.303  0.00  0.00    +0.000 A 
ENDBRANCH  23  24
ENDBRANCH  21  23
ENDBRANCH  16  17
ENDBRANCH   3  16
TORSDOF 6
ENDMDL
MODEL 9
REMARK VINA RESULT:      -7.9      3.532      7.468
REMARK  Name = 
REMARK  6 active torsions:
REMARK  status: ('A' for Active; 'I' for Inactive)
REMARK    1  A    between atoms: C_2  and  C_18
REMARK    2  A    between atoms: N_3  and  C_4
REMARK    3  A    between atoms: C_4  and  C_5
REMARK    4  A    between atoms: N_9  and  C_10
REMARK    5  A    between atoms: C_10  and  C_11
REMARK    6  A    between atoms: C_18  and  C_19
REMARK                            x       y       z     vdW  Elec       q    Type
REMARK                         _______ _______ _______ _____ _____    ______ ____
ROOT
ATOM      1  O   UNL     1       1.195   7.997  20.957  0.00  0.00    +0.000 OA
ATOM      2  C   UNL     1       1.681   8.129  19.840  0.00  0.00    +0.000 C 
ATOM      3  N   UNL     1       2.521   7.231  19.237  0.00  0.00    +0.000 N 
ATOM      4  H   UNL     1       2.970   7.510  18.374  0.00  0.00    +0.000 HD
ENDROOT
BRANCH   2   5
ATOM      5  C   UNL     1       1.298   9.294  18.959  0.00  0.00    +0.000 C 
ATOM      6  C   UNL     1       2.341   9.743  17.939  0.00  0.00    +0.000 C 
ATOM      7  C   UNL     1       1.085   9.086  17.463  0.00  0.00    +0.000 C 
BRANCH   5   8
ATOM      8  C   UNL     1       0.436  10.323  19.695  0.00  0.00    +0.000 A 
ATOM      9  C   UNL     1       0.877  10.865  20.918  0.00  0.00    +0.000 A 
ATOM     10  C   UNL     1       0.017  11.587  21.751  0.00  0.00    +0.000 A 
ATOM     11  C   UNL     1      -1.306  11.783  21.372  0.00  0.00    +0.000 A 
ATOM     12 CL   UNL     1      -2.401  12.560  22.448  0.00  0.00    +0.000 Cl
ATOM     13  C   UNL     1      -1.759  11.326  20.142  0.00  0.00    +0.000 A 
ATOM     14  C   UNL     1      -0.890  10.618  19.306  0.00  0.00    +0.000 A 
ATOM     15 CL   UNL     1      -1.534  10.071  17.793  0.00  0.00    +0.000 Cl
ENDBRANCH   5   8
ENDBRANCH   2   5
BRANCH   3  16
ATOM     16  C   UNL     1       2.965   6.009  19.868  0.00  0.00    +0.000 C 
BRANCH  16  17
ATOM     17  C   UNL     1       2.665   4.870  18.927  0.00  0.00    +0.000 C 
ATOM     18  C   UNL     1       1.434   4.865  17.937  0.00  0.00    +0.000 C 
ATOM     19  C   UNL     1       1.695   3.336  18.016  0.00  0.00    +0.000 C 
ATOM     20  C   UNL     1       3.096   3.182  17.449  0.00  0.00    +0.000 C 
ATOM     21  N   UNL     1       3.798   4.277  18.137  0.00  0.00    +0.000 NA
ATOM     22  C   UNL     1       1.950   3.596  19.522  0.00  0.00    +0.000 C 
BRANCH  21  23
ATOM     23  C   UNL     1       4.400   5.262  17.225  0.00  0.00    +0.000 C 
BRANCH  23  24
ATOM     24  C   UNL     1       5.713   5.826  17.726  0.00  0.00    +0.000 A 
ATOM     25  C   UNL     1       6.259   6.974  17.131  0.00  0.00    +0.000 A 
ATOM     26  C   UNL     1       7.474   7.494  17.575  0.00  0.00    +0.000 A 
ATOM     27  C   UNL     1       8.154   6.875  18.622  0.00  0.00    +0.000 A 
ATOM     28  C   UNL     1       7.620   5.739  19.227  0.00  0.00    +0.000 A 
ATOM     29  C   UNL     1       6.405   5.215  18.780  0.00  0.00    +0.000 A 
ENDBRANCH  23  24
ENDBRANCH  21  23
ENDBRANCH  16  17
ENDBRANCH   3  16
TORSDOF 6
ENDMDL
