MODEL 1
REMARK VINA RESULT:      -8.9      0.000      0.000
REMARK  Name = 
REMARK  15 active torsions:
REMARK  status: ('A' for Active; 'I' for Inactive)
REMARK    1  A    between atoms: C_1  and  C_2
REMARK    2  A    between atoms: C_2  and  C_3
REMARK    3  A    between atoms: C_3  and  C_4
REMARK    4  A    between atoms: C_3  and  O_5
REMARK    5  A    between atoms: O_5  and  C_6
REMARK    6  A    between atoms: C_8  and  C_9
REMARK    7  A    between atoms: C_10  and  C_11
REMARK    8  A    between atoms: C_14  and  C_15
REMARK    9  A    between atoms: C_21  and  C_22
REMARK   10  A    between atoms: C_22  and  O_24
REMARK   11  A    between atoms: C_25  and  O_26
REMARK   12  A    between atoms: C_27  and  C_28
REMARK   13  A    between atoms: C_28  and  C_29
REMARK   14  A    between atoms: C_30  and  C_31
REMARK   15  A    between atoms: C_30  and  C_32
REMARK                            x       y       z     vdW  Elec       q    Type
REMARK                         _______ _______ _______ _____ _____    ______ ____
ROOT
ATOM      1  C   UNL     1       5.305   5.804  16.938  0.00  0.00    +0.000 A 
ATOM      2  C   UNL     1       4.455   6.481  17.844  0.00  0.00    +0.000 A 
ATOM      3  C   UNL     1       3.473   5.832  18.611  0.00  0.00    +0.000 A 
ATOM      4  C   UNL     1       3.387   4.439  18.521  0.00  0.00    +0.000 A 
ATOM      5  C   UNL     1       4.179   3.762  17.563  0.00  0.00    +0.000 A 
ATOM      6  C   UNL     1       5.123   4.425  16.728  0.00  0.00    +0.000 A 
ENDROOT
BRANCH   3   7
ATOM      7  C   UNL     1       2.602   6.675  19.452  0.00  0.00    +0.000 C 
ATOM      8  C   UNL     1       2.220   7.914  19.096  0.00  0.00    +0.000 C 
BRANCH   8   9
ATOM      9  C   UNL     1       1.386   8.809  19.922  0.00  0.00    +0.000 A 
ATOM     10  C   UNL     1       1.086   8.435  21.239  0.00  0.00    +0.000 A 
ATOM     11  C   UNL     1       0.269   9.231  22.055  0.00  0.00    +0.000 A 
ATOM     12  C   UNL     1      -0.260  10.437  21.576  0.00  0.00    +0.000 A 
ATOM     13  C   UNL     1       0.071  10.835  20.274  0.00  0.00    +0.000 A 
ATOM     14  C   UNL     1       0.886  10.035  19.459  0.00  0.00    +0.000 A 
BRANCH  12  15
ATOM     15  C   UNL     1      -1.177  11.287  22.425  0.00  0.00    +0.000 C 
ATOM     16  F   UNL     1      -1.688  10.628  23.503  0.00  0.00    +0.000 F 
ATOM     17  F   UNL     1      -0.555  12.391  22.925  0.00  0.00    +0.000 F 
ATOM     18  F   UNL     1      -2.252  11.750  21.729  0.00  0.00    +0.000 F 
ENDBRANCH  12  15
ENDBRANCH   8   9
ENDBRANCH   3   7
BRANCH   4  19
ATOM     19  C   UNL     1       2.511   3.628  19.398  0.00  0.00    +0.000 C 
ATOM     20  O   UNL     1       2.706   3.470  20.594  0.00  0.00    +0.000 OA
BRANCH  19  21
ATOM     21  O   UNL     1       1.384   3.192  18.816  0.00  0.00    +0.000 OA
ATOM     22  H   UNL     1       1.029   3.969  18.339  0.00  0.00    +0.000 HD
ENDBRANCH  19  21
ENDBRANCH   4  19
BRANCH   5  23
ATOM     23  O   UNL     1       4.077   2.392  17.405  0.00  0.00    +0.000 OA
ATOM     24  H   UNL     1       4.109   1.948  18.280  0.00  0.00    +0.000 HD
ENDBRANCH   5  23
BRANCH   1  25
ATOM     25  O   UNL     1       6.258   6.666  16.463  0.00  0.00    +0.000 OA
BRANCH  25  26
ATOM     26  C   UNL     1       7.473   6.932  17.150  0.00  0.00    +0.000 C 
ATOM     27  C   UNL     1       7.550   6.071  18.408  0.00  0.00    +0.000 C 
BRANCH  26  29
ATOM     28  C   UNL     1       8.612   8.709  18.564  0.00  0.00    +0.000 C 
ATOM     29  C   UNL     1       7.523   8.417  17.541  0.00  0.00    +0.000 C 
ENDBRANCH  26  29
ENDBRANCH  25  26
ENDBRANCH   1  25
BRANCH   6  30
ATOM     30  C   UNL     1       5.785   3.586  15.640  0.00  0.00    +0.000 C 
BRANCH  30  31
ATOM     31  C   UNL     1       6.630   4.442  14.713  0.00  0.00    +0.000 C 
ATOM     32  C   UNL     1       6.782   4.356  13.376  0.00  0.00    +0.000 C 
ATOM     33  C   UNL     1       6.053   3.396  12.478  0.00  0.00    +0.000 C 
ATOM     34  C   UNL     1       7.754   5.255  12.653  0.00  0.00    +0.000 C 
ENDBRANCH  30  31
ENDBRANCH   6  30
TORSDOF 11
ENDMDL
MODEL 2
REMARK VINA RESULT:      -8.9      1.248      1.808
REMARK  Name = 
REMARK  15 active torsions:
REMARK  status: ('A' for Active; 'I' for Inactive)
REMARK    1  A    between atoms: C_1  and  C_2
REMARK    2  A    between atoms: C_2  and  C_3
REMARK    3  A    between atoms: C_3  and  C_4
REMARK    4  A    between atoms: C_3  and  O_5
REMARK    5  A    between atoms: O_5  and  C_6
REMARK    6  A    between atoms: C_8  and  C_9
REMARK    7  A    between atoms: C_10  and  C_11
REMARK    8  A    between atoms: C_14  and  C_15
REMARK    9  A    between atoms: C_21  and  C_22
REMARK   10  A    between atoms: C_22  and  O_24
REMARK   11  A    between atoms: C_25  and  O_26
REMARK   12  A    between atoms: C_27  and  C_28
REMARK   13  A    between atoms: C_28  and  C_29
REMARK   14  A    between atoms: C_30  and  C_31
REMARK   15  A    between atoms: C_30  and  C_32
REMARK                            x       y       z     vdW  Elec       q    Type
REMARK                         _______ _______ _______ _____ _____    ______ ____
ROOT
ATOM      1  C   UNL     1       5.534   6.293  16.749  0.00  0.00    +0.000 A 
ATOM      2  C   UNL     1       4.405   6.989  17.244  0.00  0.00    +0.000 A 
ATOM      3  C   UNL     1       3.277   6.347  17.780  0.00  0.00    +0.000 A 
ATOM      4  C   UNL     1       3.310   4.953  17.892  0.00  0.00    +0.000 A 
ATOM      5  C   UNL     1       4.398   4.243  17.331  0.00  0.00    +0.000 A 
ATOM      6  C   UNL     1       5.511   4.887  16.718  0.00  0.00    +0.000 A 
ENDROOT
BRANCH   3   7
ATOM      7  C   UNL     1       2.139   7.195  18.181  0.00  0.00    +0.000 C 
ATOM      8  C   UNL     1       2.230   8.532  18.296  0.00  0.00    +0.000 C 
BRANCH   8   9
ATOM      9  C   UNL     1       1.133   9.417  18.734  0.00  0.00    +0.000 A 
ATOM     10  C   UNL     1       0.071   9.669  17.854  0.00  0.00    +0.000 A 
ATOM     11  C   UNL     1      -0.979  10.529  18.207  0.00  0.00    +0.000 A 
ATOM     12  C   UNL     1      -1.001  11.152  19.462  0.00  0.00    +0.000 A 
ATOM     13  C   UNL     1       0.038  10.872  20.359  0.00  0.00    +0.000 A 
ATOM     14  C   UNL     1       1.088  10.012  20.003  0.00  0.00    +0.000 A 
BRANCH  12  15
ATOM     15  C   UNL     1      -2.101  12.116  19.843  0.00  0.00    +0.000 C 
ATOM     16  F   UNL     1      -2.462  12.042  21.155  0.00  0.00    +0.000 F 
ATOM     17  F   UNL     1      -1.757  13.416  19.626  0.00  0.00    +0.000 F 
ATOM     18  F   UNL     1      -3.244  11.911  19.131  0.00  0.00    +0.000 F 
ENDBRANCH  12  15
ENDBRANCH   8   9
ENDBRANCH   3   7
BRANCH   4  19
ATOM     19  C   UNL     1       2.258   4.177  18.589  0.00  0.00    +0.000 C 
ATOM     20  O   UNL     1       2.145   4.124  19.804  0.00  0.00    +0.000 OA
BRANCH  19  21
ATOM     21  O   UNL     1       1.328   3.644  17.783  0.00  0.00    +0.000 OA
ATOM     22  H   UNL     1       0.478   4.015  18.098  0.00  0.00    +0.000 HD
ENDBRANCH  19  21
ENDBRANCH   4  19
BRANCH   5  23
ATOM     23  O   UNL     1       4.436   2.861  17.370  0.00  0.00    +0.000 OA
ATOM     24  H   UNL     1       4.495   2.552  18.300  0.00  0.00    +0.000 HD
ENDBRANCH   5  23
BRANCH   1  25
ATOM     25  O   UNL     1       6.532   7.181  16.446  0.00  0.00    +0.000 OA
BRANCH  25  26
ATOM     26  C   UNL     1       7.610   7.466  17.326  0.00  0.00    +0.000 C 
ATOM     27  C   UNL     1       7.603   6.470  18.484  0.00  0.00    +0.000 C 
BRANCH  26  29
ATOM     28  C   UNL     1       8.792   9.500  18.285  0.00  0.00    +0.000 C 
ATOM     29  C   UNL     1       7.457   8.892  17.876  0.00  0.00    +0.000 C 
ENDBRANCH  26  29
ENDBRANCH  25  26
ENDBRANCH   1  25
BRANCH   6  30
ATOM     30  C   UNL     1       6.526   3.986  16.021  0.00  0.00    +0.000 C 
BRANCH  30  31
ATOM     31  C   UNL     1       6.026   3.533  14.660  0.00  0.00    +0.000 C 
ATOM     32  C   UNL     1       6.386   3.964  13.434  0.00  0.00    +0.000 C 
ATOM     33  C   UNL     1       7.459   4.977  13.148  0.00  0.00    +0.000 C 
ATOM     34  C   UNL     1       5.691   3.441  12.201  0.00  0.00    +0.000 C 
ENDBRANCH  30  31
ENDBRANCH   6  30
TORSDOF 11
ENDMDL
MODEL 3
REMARK VINA RESULT:      -8.9      0.608      1.065
REMARK  Name = 
REMARK  15 active torsions:
REMARK  status: ('A' for Active; 'I' for Inactive)
REMARK    1  A    between atoms: C_1  and  C_2
REMARK    2  A    between atoms: C_2  and  C_3
REMARK    3  A    between atoms: C_3  and  C_4
REMARK    4  A    between atoms: C_3  and  O_5
REMARK    5  A    between atoms: O_5  and  C_6
REMARK    6  A    between atoms: C_8  and  C_9
REMARK    7  A    between atoms: C_10  and  C_11
REMARK    8  A    between atoms: C_14  and  C_15
REMARK    9  A    between atoms: C_21  and  C_22
REMARK   10  A    between atoms: C_22  and  O_24
REMARK   11  A    between atoms: C_25  and  O_26
REMARK   12  A    between atoms: C_27  and  C_28
REMARK   13  A    between atoms: C_28  and  C_29
REMARK   14  A    between atoms: C_30  and  C_31
REMARK   15  A    between atoms: C_30  and  C_32
REMARK                            x       y       z     vdW  Elec       q    Type
REMARK                         _______ _______ _______ _____ _____    ______ ____
ROOT
ATOM      1  C   UNL     1       5.282   6.018  16.629  0.00  0.00    +0.000 A 
ATOM      2  C   UNL     1       4.358   6.853  17.301  0.00  0.00    +0.000 A 
ATOM      3  C   UNL     1       3.176   6.377  17.892  0.00  0.00    +0.000 A 
ATOM      4  C   UNL     1       2.945   4.998  17.871  0.00  0.00    +0.000 A 
ATOM      5  C   UNL     1       3.821   4.163  17.137  0.00  0.00    +0.000 A 
ATOM      6  C   UNL     1       4.982   4.652  16.472  0.00  0.00    +0.000 A 
ENDROOT
BRANCH   3   7
ATOM      7  C   UNL     1       2.265   7.373  18.486  0.00  0.00    +0.000 C 
ATOM      8  C   UNL     1       2.355   7.771  19.767  0.00  0.00    +0.000 C 
BRANCH   8   9
ATOM      9  C   UNL     1       1.442   8.731  20.417  0.00  0.00    +0.000 A 
ATOM     10  C   UNL     1       1.163   8.586  21.784  0.00  0.00    +0.000 A 
ATOM     11  C   UNL     1       0.276   9.449  22.443  0.00  0.00    +0.000 A 
ATOM     12  C   UNL     1      -0.348  10.496  21.751  0.00  0.00    +0.000 A 
ATOM     13  C   UNL     1      -0.041  10.670  20.395  0.00  0.00    +0.000 A 
ATOM     14  C   UNL     1       0.845   9.803  19.738  0.00  0.00    +0.000 A 
BRANCH  12  15
ATOM     15  C   UNL     1      -1.340  11.410  22.434  0.00  0.00    +0.000 C 
ATOM     16  F   UNL     1      -2.323  11.863  21.606  0.00  0.00    +0.000 F 
ATOM     17  F   UNL     1      -1.979  10.805  23.474  0.00  0.00    +0.000 F 
ATOM     18  F   UNL     1      -0.751  12.521  22.956  0.00  0.00    +0.000 F 
ENDBRANCH  12  15
ENDBRANCH   8   9
ENDBRANCH   3   7
BRANCH   4  19
ATOM     19  C   UNL     1       1.825   4.359  18.601  0.00  0.00    +0.000 C 
ATOM     20  O   UNL     1       0.904   3.771  18.054  0.00  0.00    +0.000 OA
BRANCH  19  21
ATOM     21  O   UNL     1       1.966   4.336  19.935  0.00  0.00    +0.000 OA
ATOM     22  H   UNL     1       2.175   5.260  20.183  0.00  0.00    +0.000 HD
ENDBRANCH  19  21
ENDBRANCH   4  19
BRANCH   5  23
ATOM     23  O   UNL     1       3.590   2.803  17.045  0.00  0.00    +0.000 OA
ATOM     24  H   UNL     1       2.838   2.550  17.623  0.00  0.00    +0.000 HD
ENDBRANCH   5  23
BRANCH   1  25
ATOM     25  O   UNL     1       6.405   6.733  16.305  0.00  0.00    +0.000 OA
BRANCH  25  26
ATOM     26  C   UNL     1       7.470   6.959  17.218  0.00  0.00    +0.000 C 
ATOM     27  C   UNL     1       7.283   6.078  18.452  0.00  0.00    +0.000 C 
BRANCH  26  29
ATOM     28  C   UNL     1       8.654   8.775  18.541  0.00  0.00    +0.000 C 
ATOM     29  C   UNL     1       7.476   8.435  17.639  0.00  0.00    +0.000 C 
ENDBRANCH  26  29
ENDBRANCH  25  26
ENDBRANCH   1  25
BRANCH   6  30
ATOM     30  C   UNL     1       5.737   3.661  15.593  0.00  0.00    +0.000 C 
BRANCH  30  31
ATOM     31  C   UNL     1       6.581   4.372  14.550  0.00  0.00    +0.000 C 
ATOM     32  C   UNL     1       6.589   4.217  13.210  0.00  0.00    +0.000 C 
ATOM     33  C   UNL     1       5.667   3.319  12.434  0.00  0.00    +0.000 C 
ATOM     34  C   UNL     1       7.582   4.964  12.355  0.00  0.00    +0.000 C 
ENDBRANCH  30  31
ENDBRANCH   6  30
TORSDOF 11
ENDMDL
MODEL 4
REMARK VINA RESULT:      -8.8      1.283      2.150
REMARK  Name = 
REMARK  15 active torsions:
REMARK  status: ('A' for Active; 'I' for Inactive)
REMARK    1  A    between atoms: C_1  and  C_2
REMARK    2  A    between atoms: C_2  and  C_3
REMARK    3  A    between atoms: C_3  and  C_4
REMARK    4  A    between atoms: C_3  and  O_5
REMARK    5  A    between atoms: O_5  and  C_6
REMARK    6  A    between atoms: C_8  and  C_9
REMARK    7  A    between atoms: C_10  and  C_11
REMARK    8  A    between atoms: C_14  and  C_15
REMARK    9  A    between atoms: C_21  and  C_22
REMARK   10  A    between atoms: C_22  and  O_24
REMARK   11  A    between atoms: C_25  and  O_26
REMARK   12  A    between atoms: C_27  and  C_28
REMARK   13  A    between atoms: C_28  and  C_29
REMARK   14  A    between atoms: C_30  and  C_31
REMARK   15  A    between atoms: C_30  and  C_32
REMARK                            x       y       z     vdW  Elec       q    Type
REMARK                         _______ _______ _______ _____ _____    ______ ____
ROOT
ATOM      1  C   UNL     1       5.561   6.355  16.974  0.00  0.00    +0.000 A 
ATOM      2  C   UNL     1       4.431   7.027  17.497  0.00  0.00    +0.000 A 
ATOM      3  C   UNL     1       3.247   6.370  17.870  0.00  0.00    +0.000 A 
ATOM      4  C   UNL     1       3.219   4.974  17.784  0.00  0.00    +0.000 A 
ATOM      5  C   UNL     1       4.313   4.299  17.192  0.00  0.00    +0.000 A 
ATOM      6  C   UNL     1       5.487   4.969  16.742  0.00  0.00    +0.000 A 
ENDROOT
BRANCH   3   7
ATOM      7  C   UNL     1       2.119   7.206  18.321  0.00  0.00    +0.000 C 
ATOM      8  C   UNL     1       2.119   8.547  18.221  0.00  0.00    +0.000 C 
BRANCH   8   9
ATOM      9  C   UNL     1       1.034   9.428  18.696  0.00  0.00    +0.000 A 
ATOM     10  C   UNL     1      -0.002   9.767  17.814  0.00  0.00    +0.000 A 
ATOM     11  C   UNL     1      -1.038  10.628  18.203  0.00  0.00    +0.000 A 
ATOM     12  C   UNL     1      -1.073  11.163  19.497  0.00  0.00    +0.000 A 
ATOM     13  C   UNL     1      -0.063  10.795  20.395  0.00  0.00    +0.000 A 
ATOM     14  C   UNL     1       0.974   9.936  20.001  0.00  0.00    +0.000 A 
BRANCH  12  15
ATOM     15  C   UNL     1      -2.158  12.127  19.921  0.00  0.00    +0.000 C 
ATOM     16  F   UNL     1      -1.855  13.433  19.675  0.00  0.00    +0.000 F 
ATOM     17  F   UNL     1      -3.342  11.895  19.288  0.00  0.00    +0.000 F 
ATOM     18  F   UNL     1      -2.429  12.053  21.254  0.00  0.00    +0.000 F 
ENDBRANCH  12  15
ENDBRANCH   8   9
ENDBRANCH   3   7
BRANCH   4  19
ATOM     19  C   UNL     1       2.096   4.158  18.302  0.00  0.00    +0.000 C 
ATOM     20  O   UNL     1       1.885   3.968  19.490  0.00  0.00    +0.000 OA
BRANCH  19  21
ATOM     21  O   UNL     1       1.220   3.755  17.369  0.00  0.00    +0.000 OA
ATOM     22  H   UNL     1       0.506   4.425  17.387  0.00  0.00    +0.000 HD
ENDBRANCH  19  21
ENDBRANCH   4  19
BRANCH   5  23
ATOM     23  O   UNL     1       4.295   2.925  17.036  0.00  0.00    +0.000 OA
ATOM     24  H   UNL     1       5.029   2.643  16.448  0.00  0.00    +0.000 HD
ENDBRANCH   5  23
BRANCH   1  25
ATOM     25  O   UNL     1       6.610   7.229  16.858  0.00  0.00    +0.000 OA
BRANCH  25  26
ATOM     26  C   UNL     1       7.304   7.759  17.979  0.00  0.00    +0.000 C 
ATOM     27  C   UNL     1       8.121   8.975  17.548  0.00  0.00    +0.000 C 
BRANCH  26  29
ATOM     28  C   UNL     1       7.551   5.796  19.572  0.00  0.00    +0.000 C 
ATOM     29  C   UNL     1       8.244   6.687  18.550  0.00  0.00    +0.000 C 
ENDBRANCH  26  29
ENDBRANCH  25  26
ENDBRANCH   1  25
BRANCH   6  30
ATOM     30  C   UNL     1       6.509   4.128  15.984  0.00  0.00    +0.000 C 
BRANCH  30  31
ATOM     31  C   UNL     1       5.963   3.661  14.646  0.00  0.00    +0.000 C 
ATOM     32  C   UNL     1       6.339   4.019  13.401  0.00  0.00    +0.000 C 
ATOM     33  C   UNL     1       7.478   4.941  13.068  0.00  0.00    +0.000 C 
ATOM     34  C   UNL     1       5.595   3.501  12.195  0.00  0.00    +0.000 C 
ENDBRANCH  30  31
ENDBRANCH   6  30
TORSDOF 11
ENDMDL
MODEL 5
REMARK VINA RESULT:      -8.7      0.647      1.459
REMARK  Name = 
REMARK  15 active torsions:
REMARK  status: ('A' for Active; 'I' for Inactive)
REMARK    1  A    between atoms: C_1  and  C_2
REMARK    2  A    between atoms: C_2  and  C_3
REMARK    3  A    between atoms: C_3  and  C_4
REMARK    4  A    between atoms: C_3  and  O_5
REMARK    5  A    between atoms: O_5  and  C_6
REMARK    6  A    between atoms: C_8  and  C_9
REMARK    7  A    between atoms: C_10  and  C_11
REMARK    8  A    between atoms: C_14  and  C_15
REMARK    9  A    between atoms: C_21  and  C_22
REMARK   10  A    between atoms: C_22  and  O_24
REMARK   11  A    between atoms: C_25  and  O_26
REMARK   12  A    between atoms: C_27  and  C_28
REMARK   13  A    between atoms: C_28  and  C_29
REMARK   14  A    between atoms: C_30  and  C_31
REMARK   15  A    between atoms: C_30  and  C_32
REMARK                            x       y       z     vdW  Elec       q    Type
REMARK                         _______ _______ _______ _____ _____    ______ ____
ROOT
ATOM      1  C   UNL     1       4.915   5.813  17.103  0.00  0.00    +0.000 A 
ATOM      2  C   UNL     1       3.940   6.508  17.857  0.00  0.00    +0.000 A 
ATOM      3  C   UNL     1       2.791   5.896  18.383  0.00  0.00    +0.000 A 
ATOM      4  C   UNL     1       2.648   4.515  18.209  0.00  0.00    +0.000 A 
ATOM      5  C   UNL     1       3.576   3.825  17.393  0.00  0.00    +0.000 A 
ATOM      6  C   UNL     1       4.703   4.457  16.794  0.00  0.00    +0.000 A 
ENDROOT
BRANCH   3   7
ATOM      7  C   UNL     1       1.818   6.760  19.077  0.00  0.00    +0.000 C 
ATOM      8  C   UNL     1       2.166   7.905  19.689  0.00  0.00    +0.000 C 
BRANCH   8   9
ATOM      9  C   UNL     1       1.237   8.780  20.432  0.00  0.00    +0.000 A 
ATOM     10  C   UNL     1       0.561   9.795  19.741  0.00  0.00    +0.000 A 
ATOM     11  C   UNL     1      -0.305  10.676  20.404  0.00  0.00    +0.000 A 
ATOM     12  C   UNL     1      -0.531  10.554  21.782  0.00  0.00    +0.000 A 
ATOM     13  C   UNL     1       0.111   9.516  22.469  0.00  0.00    +0.000 A 
ATOM     14  C   UNL     1       0.980   8.638  21.803  0.00  0.00    +0.000 A 
BRANCH  12  15
ATOM     15  C   UNL     1      -1.427  11.521  22.521  0.00  0.00    +0.000 C 
ATOM     16  F   UNL     1      -2.075  10.962  23.581  0.00  0.00    +0.000 F 
ATOM     17  F   UNL     1      -0.745  12.588  23.023  0.00  0.00    +0.000 F 
ATOM     18  F   UNL     1      -2.400  12.043  21.724  0.00  0.00    +0.000 F 
ENDBRANCH  12  15
ENDBRANCH   8   9
ENDBRANCH   3   7
BRANCH   4  19
ATOM     19  C   UNL     1       1.572   3.729  18.856  0.00  0.00    +0.000 C 
ATOM     20  O   UNL     1       0.715   3.114  18.239  0.00  0.00    +0.000 OA
BRANCH  19  21
ATOM     21  O   UNL     1       1.687   3.612  20.187  0.00  0.00    +0.000 OA
ATOM     22  H   UNL     1       2.234   2.812  20.324  0.00  0.00    +0.000 HD
ENDBRANCH  19  21
ENDBRANCH   4  19
BRANCH   5  23
ATOM     23  O   UNL     1       3.433   2.471  17.150  0.00  0.00    +0.000 OA
ATOM     24  H   UNL     1       3.570   1.964  17.979  0.00  0.00    +0.000 HD
ENDBRANCH   5  23
BRANCH   1  25
ATOM     25  O   UNL     1       5.990   6.629  16.868  0.00  0.00    +0.000 OA
BRANCH  25  26
ATOM     26  C   UNL     1       6.909   7.012  17.882  0.00  0.00    +0.000 C 
ATOM     27  C   UNL     1       7.796   8.144  17.369  0.00  0.00    +0.000 C 
BRANCH  26  29
ATOM     28  C   UNL     1       7.750   5.514  19.753  0.00  0.00    +0.000 C 
ATOM     29  C   UNL     1       7.783   5.807  18.259  0.00  0.00    +0.000 C 
ENDBRANCH  26  29
ENDBRANCH  25  26
ENDBRANCH   1  25
BRANCH   6  30
ATOM     30  C   UNL     1       5.521   3.619  15.816  0.00  0.00    +0.000 C 
BRANCH  30  31
ATOM     31  C   UNL     1       6.448   4.484  14.982  0.00  0.00    +0.000 C 
ATOM     32  C   UNL     1       6.719   4.417  13.662  0.00  0.00    +0.000 C 
ATOM     33  C   UNL     1       6.069   3.473  12.689  0.00  0.00    +0.000 C 
ATOM     34  C   UNL     1       7.754   5.322  13.041  0.00  0.00    +0.000 C 
ENDBRANCH  30  31
ENDBRANCH   6  30
TORSDOF 11
ENDMDL
MODEL 6
REMARK VINA RESULT:      -8.7      1.298      1.794
REMARK  Name = 
REMARK  15 active torsions:
REMARK  status: ('A' for Active; 'I' for Inactive)
REMARK    1  A    between atoms: C_1  and  C_2
REMARK    2  A    between atoms: C_2  and  C_3
REMARK    3  A    between atoms: C_3  and  C_4
REMARK    4  A    between atoms: C_3  and  O_5
REMARK    5  A    between atoms: O_5  and  C_6
REMARK    6  A    between atoms: C_8  and  C_9
REMARK    7  A    between atoms: C_10  and  C_11
REMARK    8  A    between atoms: C_14  and  C_15
REMARK    9  A    between atoms: C_21  and  C_22
REMARK   10  A    between atoms: C_22  and  O_24
REMARK   11  A    between atoms: C_25  and  O_26
REMARK   12  A    between atoms: C_27  and  C_28
REMARK   13  A    between atoms: C_28  and  C_29
REMARK   14  A    between atoms: C_30  and  C_31
REMARK   15  A    between atoms: C_30  and  C_32
REMARK                            x       y       z     vdW  Elec       q    Type
REMARK                         _______ _______ _______ _____ _____    ______ ____
ROOT
ATOM      1  C   UNL     1       5.592   6.288  17.069  0.00  0.00    +0.000 A 
ATOM      2  C   UNL     1       4.607   7.089  17.692  0.00  0.00    +0.000 A 
ATOM      3  C   UNL     1       3.338   6.609  18.055  0.00  0.00    +0.000 A 
ATOM      4  C   UNL     1       3.071   5.251  17.853  0.00  0.00    +0.000 A 
ATOM      5  C   UNL     1       4.019   4.458  17.163  0.00  0.00    +0.000 A 
ATOM      6  C   UNL     1       5.278   4.961  16.724  0.00  0.00    +0.000 A 
ENDROOT
BRANCH   3   7
ATOM      7  C   UNL     1       2.381   7.578  18.621  0.00  0.00    +0.000 C 
ATOM      8  C   UNL     1       1.639   8.400  17.858  0.00  0.00    +0.000 C 
BRANCH   8   9
ATOM      9  C   UNL     1       0.700   9.414  18.379  0.00  0.00    +0.000 A 
ATOM     10  C   UNL     1       0.905   9.933  19.665  0.00  0.00    +0.000 A 
ATOM     11  C   UNL     1       0.024  10.871  20.221  0.00  0.00    +0.000 A 
ATOM     12  C   UNL     1      -1.084  11.329  19.494  0.00  0.00    +0.000 A 
ATOM     13  C   UNL     1      -1.269  10.844  18.193  0.00  0.00    +0.000 A 
ATOM     14  C   UNL     1      -0.387   9.903  17.641  0.00  0.00    +0.000 A 
BRANCH  12  15
ATOM     15  C   UNL     1      -2.068  12.308  20.092  0.00  0.00    +0.000 C 
ATOM     16  F   UNL     1      -1.778  13.611  19.818  0.00  0.00    +0.000 F 
ATOM     17  F   UNL     1      -3.341  12.109  19.649  0.00  0.00    +0.000 F 
ATOM     18  F   UNL     1      -2.130  12.219  21.450  0.00  0.00    +0.000 F 
ENDBRANCH  12  15
ENDBRANCH   8   9
ENDBRANCH   3   7
BRANCH   4  19
ATOM     19  C   UNL     1       1.839   4.591  18.345  0.00  0.00    +0.000 C 
ATOM     20  O   UNL     1       1.525   4.530  19.524  0.00  0.00    +0.000 OA
BRANCH  19  21
ATOM     21  O   UNL     1       0.998   4.186  17.382  0.00  0.00    +0.000 OA
ATOM     22  H   UNL     1       1.568   4.011  16.606  0.00  0.00    +0.000 HD
ENDBRANCH  19  21
ENDBRANCH   4  19
BRANCH   5  23
ATOM     23  O   UNL     1       3.764   3.126  16.893  0.00  0.00    +0.000 OA
ATOM     24  H   UNL     1       4.410   2.557  17.364  0.00  0.00    +0.000 HD
ENDBRANCH   5  23
BRANCH   1  25
ATOM     25  O   UNL     1       6.771   6.981  16.985  0.00  0.00    +0.000 OA
BRANCH  25  26
ATOM     26  C   UNL     1       7.883   6.724  17.832  0.00  0.00    +0.000 C 
ATOM     27  C   UNL     1       7.487   5.712  18.905  0.00  0.00    +0.000 C 
BRANCH  26  29
ATOM     28  C   UNL     1       7.974   9.257  17.668  0.00  0.00    +0.000 C 
ATOM     29  C   UNL     1       8.327   8.033  18.501  0.00  0.00    +0.000 C 
ENDBRANCH  26  29
ENDBRANCH  25  26
ENDBRANCH   1  25
BRANCH   6  30
ATOM     30  C   UNL     1       6.122   4.032  15.858  0.00  0.00    +0.000 C 
BRANCH  30  31
ATOM     31  C   UNL     1       6.844   4.797  14.762  0.00  0.00    +0.000 C 
ATOM     32  C   UNL     1       6.892   4.546  13.438  0.00  0.00    +0.000 C 
ATOM     33  C   UNL     1       6.145   3.448  12.733  0.00  0.00    +0.000 C 
ATOM     34  C   UNL     1       7.754   5.385  12.527  0.00  0.00    +0.000 C 
ENDBRANCH  30  31
ENDBRANCH   6  30
TORSDOF 11
ENDMDL
MODEL 7
REMARK VINA RESULT:      -8.7      1.663      2.277
REMARK  Name = 
REMARK  15 active torsions:
REMARK  status: ('A' for Active; 'I' for Inactive)
REMARK    1  A    between atoms: C_1  and  C_2
REMARK    2  A    between atoms: C_2  and  C_3
REMARK    3  A    between atoms: C_3  and  C_4
REMARK    4  A    between atoms: C_3  and  O_5
REMARK    5  A    between atoms: O_5  and  C_6
REMARK    6  A    between atoms: C_8  and  C_9
REMARK    7  A    between atoms: C_10  and  C_11
REMARK    8  A    between atoms: C_14  and  C_15
REMARK    9  A    between atoms: C_21  and  C_22
REMARK   10  A    between atoms: C_22  and  O_24
REMARK   11  A    between atoms: C_25  and  O_26
REMARK   12  A    between atoms: C_27  and  C_28
REMARK   13  A    between atoms: C_28  and  C_29
REMARK   14  A    between atoms: C_30  and  C_31
REMARK   15  A    between atoms: C_30  and  C_32
REMARK                            x       y       z     vdW  Elec       q    Type
REMARK                         _______ _______ _______ _____ _____    ______ ____
ROOT
ATOM      1  C   UNL     1       5.515   6.370  16.926  0.00  0.00    +0.000 A 
ATOM      2  C   UNL     1       4.446   7.159  17.412  0.00  0.00    +0.000 A 
ATOM      3  C   UNL     1       3.188   6.631  17.746  0.00  0.00    +0.000 A 
ATOM      4  C   UNL     1       3.016   5.246  17.658  0.00  0.00    +0.000 A 
ATOM      5  C   UNL     1       4.051   4.458  17.101  0.00  0.00    +0.000 A 
ATOM      6  C   UNL     1       5.303   4.999  16.691  0.00  0.00    +0.000 A 
ENDROOT
BRANCH   3   7
ATOM      7  C   UNL     1       2.140   7.583  18.161  0.00  0.00    +0.000 C 
ATOM      8  C   UNL     1       2.224   8.905  17.931  0.00  0.00    +0.000 C 
BRANCH   8   9
ATOM      9  C   UNL     1       1.223   9.901  18.364  0.00  0.00    +0.000 A 
ATOM     10  C   UNL     1       1.638  11.215  18.620  0.00  0.00    +0.000 A 
ATOM     11  C   UNL     1       0.736  12.191  19.067  0.00  0.00    +0.000 A 
ATOM     12  C   UNL     1      -0.618  11.879  19.256  0.00  0.00    +0.000 A 
ATOM     13  C   UNL     1      -1.045  10.578  18.962  0.00  0.00    +0.000 A 
ATOM     14  C   UNL     1      -0.139   9.603  18.518  0.00  0.00    +0.000 A 
BRANCH  12  15
ATOM     15  C   UNL     1      -1.596  12.905  19.778  0.00  0.00    +0.000 C 
ATOM     16  F   UNL     1      -1.276  14.186  19.440  0.00  0.00    +0.000 F 
ATOM     17  F   UNL     1      -2.862  12.706  19.316  0.00  0.00    +0.000 F 
ATOM     18  F   UNL     1      -1.690  12.892  21.137  0.00  0.00    +0.000 F 
ENDBRANCH  12  15
ENDBRANCH   8   9
ENDBRANCH   3   7
BRANCH   4  19
ATOM     19  C   UNL     1       1.797   4.555  18.138  0.00  0.00    +0.000 C 
ATOM     20  O   UNL     1       0.989   4.011  17.400  0.00  0.00    +0.000 OA
BRANCH  19  21
ATOM     21  O   UNL     1       1.710   4.431  19.471  0.00  0.00    +0.000 OA
ATOM     22  H   UNL     1       2.449   4.968  19.823  0.00  0.00    +0.000 HD
ENDBRANCH  19  21
ENDBRANCH   4  19
BRANCH   5  23
ATOM     23  O   UNL     1       3.893   3.093  16.944  0.00  0.00    +0.000 OA
ATOM     24  H   UNL     1       4.705   2.624  17.235  0.00  0.00    +0.000 HD
ENDBRANCH   5  23
BRANCH   1  25
ATOM     25  O   UNL     1       6.653   7.128  16.846  0.00  0.00    +0.000 OA
BRANCH  25  26
ATOM     26  C   UNL     1       7.311   7.663  17.987  0.00  0.00    +0.000 C 
ATOM     27  C   UNL     1       8.117   8.895  17.583  0.00  0.00    +0.000 C 
BRANCH  26  29
ATOM     28  C   UNL     1       7.558   5.706  19.588  0.00  0.00    +0.000 C 
ATOM     29  C   UNL     1       8.255   6.603  18.574  0.00  0.00    +0.000 C 
ENDBRANCH  26  29
ENDBRANCH  25  26
ENDBRANCH   1  25
BRANCH   6  30
ATOM     30  C   UNL     1       6.255   4.053  15.966  0.00  0.00    +0.000 C 
BRANCH  30  31
ATOM     31  C   UNL     1       6.980   4.755  14.831  0.00  0.00    +0.000 C 
ATOM     32  C   UNL     1       6.898   4.535  13.503  0.00  0.00    +0.000 C 
ATOM     33  C   UNL     1       5.972   3.555  12.839  0.00  0.00    +0.000 C 
ATOM     34  C   UNL     1       7.785   5.289  12.543  0.00  0.00    +0.000 C 
ENDBRANCH  30  31
ENDBRANCH   6  30
TORSDOF 11
ENDMDL
MODEL 8
REMARK VINA RESULT:      -8.5      1.178      1.793
REMARK  Name = 
REMARK  15 active torsions:
REMARK  status: ('A' for Active; 'I' for Inactive)
REMARK    1  A    between atoms: C_1  and  C_2
REMARK    2  A    between atoms: C_2  and  C_3
REMARK    3  A    between atoms: C_3  and  C_4
REMARK    4  A    between atoms: C_3  and  O_5
REMARK    5  A    between atoms: O_5  and  C_6
REMARK    6  A    between atoms: C_8  and  C_9
REMARK    7  A    between atoms: C_10  and  C_11
REMARK    8  A    between atoms: C_14  and  C_15
REMARK    9  A    between atoms: C_21  and  C_22
REMARK   10  A    between atoms: C_22  and  O_24
REMARK   11  A    between atoms: C_25  and  O_26
REMARK   12  A    between atoms: C_27  and  C_28
REMARK   13  A    between atoms: C_28  and  C_29
REMARK   14  A    between atoms: C_30  and  C_31
REMARK   15  A    between atoms: C_30  and  C_32
REMARK                            x       y       z     vdW  Elec       q    Type
REMARK                         _______ _______ _______ _____ _____    ______ ____
ROOT
ATOM      1  C   UNL     1       5.604   6.435  17.073  0.00  0.00    +0.000 A 
ATOM      2  C   UNL     1       4.516   7.251  17.463  0.00  0.00    +0.000 A 
ATOM      3  C   UNL     1       3.228   6.749  17.716  0.00  0.00    +0.000 A 
ATOM      4  C   UNL     1       3.041   5.365  17.646  0.00  0.00    +0.000 A 
ATOM      5  C   UNL     1       4.101   4.549  17.183  0.00  0.00    +0.000 A 
ATOM      6  C   UNL     1       5.387   5.063  16.853  0.00  0.00    +0.000 A 
ENDROOT
BRANCH   3   7
ATOM      7  C   UNL     1       2.169   7.726  18.033  0.00  0.00    +0.000 C 
ATOM      8  C   UNL     1       2.085   8.351  19.219  0.00  0.00    +0.000 C 
BRANCH   8   9
ATOM      9  C   UNL     1       1.021   9.303  19.597  0.00  0.00    +0.000 A 
ATOM     10  C   UNL     1       0.301   9.954  18.586  0.00  0.00    +0.000 A 
ATOM     11  C   UNL     1      -0.696  10.892  18.889  0.00  0.00    +0.000 A 
ATOM     12  C   UNL     1      -1.010  11.195  20.221  0.00  0.00    +0.000 A 
ATOM     13  C   UNL     1      -0.320  10.518  21.235  0.00  0.00    +0.000 A 
ATOM     14  C   UNL     1       0.678   9.581  20.928  0.00  0.00    +0.000 A 
BRANCH  12  15
ATOM     15  C   UNL     1      -2.050  12.236  20.567  0.00  0.00    +0.000 C 
ATOM     16  F   UNL     1      -3.132  12.222  19.739  0.00  0.00    +0.000 F 
ATOM     17  F   UNL     1      -2.545  12.084  21.827  0.00  0.00    +0.000 F 
ATOM     18  F   UNL     1      -1.556  13.504  20.513  0.00  0.00    +0.000 F 
ENDBRANCH  12  15
ENDBRANCH   8   9
ENDBRANCH   3   7
BRANCH   4  19
ATOM     19  C   UNL     1       1.779   4.703  18.051  0.00  0.00    +0.000 C 
ATOM     20  O   UNL     1       1.005   4.176  17.266  0.00  0.00    +0.000 OA
BRANCH  19  21
ATOM     21  O   UNL     1       1.609   4.584  19.377  0.00  0.00    +0.000 OA
ATOM     22  H   UNL     1       1.418   5.491  19.689  0.00  0.00    +0.000 HD
ENDBRANCH  19  21
ENDBRANCH   4  19
BRANCH   5  23
ATOM     23  O   UNL     1       3.933   3.184  17.045  0.00  0.00    +0.000 OA
ATOM     24  H   UNL     1       4.582   2.828  16.401  0.00  0.00    +0.000 HD
ENDBRANCH   5  23
BRANCH   1  25
ATOM     25  O   UNL     1       6.757   7.175  17.058  0.00  0.00    +0.000 OA
BRANCH  25  26
ATOM     26  C   UNL     1       7.866   6.899  17.904  0.00  0.00    +0.000 C 
ATOM     27  C   UNL     1       7.435   5.951  19.020  0.00  0.00    +0.000 C 
BRANCH  26  29
ATOM     28  C   UNL     1       7.988   9.427  17.687  0.00  0.00    +0.000 C 
ATOM     29  C   UNL     1       8.379   8.211  18.516  0.00  0.00    +0.000 C 
ENDBRANCH  26  29
ENDBRANCH  25  26
ENDBRANCH   1  25
BRANCH   6  30
ATOM     30  C   UNL     1       6.374   4.087  16.220  0.00  0.00    +0.000 C 
BRANCH  30  31
ATOM     31  C   UNL     1       7.079   4.704  15.025  0.00  0.00    +0.000 C 
ATOM     32  C   UNL     1       6.865   4.498  13.709  0.00  0.00    +0.000 C 
ATOM     33  C   UNL     1       5.783   3.630  13.130  0.00  0.00    +0.000 C 
ATOM     34  C   UNL     1       7.750   5.149  12.675  0.00  0.00    +0.000 C 
ENDBRANCH  30  31
ENDBRANCH   6  30
TORSDOF 11
ENDMDL
MODEL 9
REMARK VINA RESULT:      -8.5      0.681      1.362
REMARK  Name = 
REMARK  15 active torsions:
REMARK  status: ('A' for Active; 'I' for Inactive)
REMARK    1  A    between atoms: C_1  and  C_2
REMARK    2  A    between atoms: C_2  and  C_3
REMARK    3  A    between atoms: C_3  and  C_4
REMARK    4  A    between atoms: C_3  and  O_5
REMARK    5  A    between atoms: O_5  and  C_6
REMARK    6  A    between atoms: C_8  and  C_9
REMARK    7  A    between atoms: C_10  and  C_11
REMARK    8  A    between atoms: C_14  and  C_15
REMARK    9  A    between atoms: C_21  and  C_22
REMARK   10  A    between atoms: C_22  and  O_24
REMARK   11  A    between atoms: C_25  and  O_26
REMARK   12  A    between atoms: C_27  and  C_28
REMARK   13  A    between atoms: C_28  and  C_29
REMARK   14  A    between atoms: C_30  and  C_31
REMARK   15  A    between atoms: C_30  and  C_32
REMARK                            x       y       z     vdW  Elec       q    Type
REMARK                         _______ _______ _______ _____ _____    ______ ____
ROOT
ATOM      1  C   UNL     1       5.267   6.110  16.921  0.00  0.00    +0.000 A 
ATOM      2  C   UNL     1       4.278   6.922  17.525  0.00  0.00    +0.000 A 
ATOM      3  C   UNL     1       3.170   6.402  18.215  0.00  0.00    +0.000 A 
ATOM      4  C   UNL     1       3.088   5.014  18.368  0.00  0.00    +0.000 A 
ATOM      5  C   UNL     1       4.028   4.191  17.703  0.00  0.00    +0.000 A 
ATOM      6  C   UNL     1       5.111   4.712  16.939  0.00  0.00    +0.000 A 
ENDROOT
BRANCH   3   7
ATOM      7  C   UNL     1       2.174   7.364  18.723  0.00  0.00    +0.000 C 
ATOM      8  C   UNL     1       2.228   7.885  19.961  0.00  0.00    +0.000 C 
BRANCH   8   9
ATOM      9  C   UNL     1       1.233   8.816  20.527  0.00  0.00    +0.000 A 
ATOM     10  C   UNL     1       0.902   9.975  19.811  0.00  0.00    +0.000 A 
ATOM     11  C   UNL     1      -0.011  10.911  20.320  0.00  0.00    +0.000 A 
ATOM     12  C   UNL     1      -0.631  10.702  21.559  0.00  0.00    +0.000 A 
ATOM     13  C   UNL     1      -0.334   9.526  22.259  0.00  0.00    +0.000 A 
ATOM     14  C   UNL     1       0.581   8.594  21.749  0.00  0.00    +0.000 A 
BRANCH  12  15
ATOM     15  C   UNL     1      -1.584  11.720  22.143  0.00  0.00    +0.000 C 
ATOM     16  F   UNL     1      -2.262  11.269  23.235  0.00  0.00    +0.000 F 
ATOM     17  F   UNL     1      -0.954  12.860  22.543  0.00  0.00    +0.000 F 
ATOM     18  F   UNL     1      -2.535  12.115  21.252  0.00  0.00    +0.000 F 
ENDBRANCH  12  15
ENDBRANCH   8   9
ENDBRANCH   3   7
BRANCH   4  19
ATOM     19  C   UNL     1       2.063   4.357  19.212  0.00  0.00    +0.000 C 
ATOM     20  O   UNL     1       1.123   3.717  18.766  0.00  0.00    +0.000 OA
BRANCH  19  21
ATOM     21  O   UNL     1       2.320   4.384  20.528  0.00  0.00    +0.000 OA
ATOM     22  H   UNL     1       1.476   4.654  20.945  0.00  0.00    +0.000 HD
ENDBRANCH  19  21
ENDBRANCH   4  19
BRANCH   5  23
ATOM     23  O   UNL     1       3.942   2.813  17.783  0.00  0.00    +0.000 OA
ATOM     24  H   UNL     1       3.893   2.426  16.882  0.00  0.00    +0.000 HD
ENDBRANCH   5  23
BRANCH   1  25
ATOM     25  O   UNL     1       6.298   6.892  16.470  0.00  0.00    +0.000 OA
BRANCH  25  26
ATOM     26  C   UNL     1       7.504   7.080  17.197  0.00  0.00    +0.000 C 
ATOM     27  C   UNL     1       7.459   6.260  18.485  0.00  0.00    +0.000 C 
BRANCH  26  29
ATOM     28  C   UNL     1       8.683   8.796  18.652  0.00  0.00    +0.000 C 
ATOM     29  C   UNL     1       7.666   8.567  17.543  0.00  0.00    +0.000 C 
ENDBRANCH  26  29
ENDBRANCH  25  26
ENDBRANCH   1  25
BRANCH   6  30
ATOM     30  C   UNL     1       5.945   3.704  16.155  0.00  0.00    +0.000 C 
BRANCH  30  31
ATOM     31  C   UNL     1       5.409   3.515  14.746  0.00  0.00    +0.000 C 
ATOM     32  C   UNL     1       5.897   3.983  13.579  0.00  0.00    +0.000 C 
ATOM     33  C   UNL     1       7.173   4.762  13.420  0.00  0.00    +0.000 C 
ATOM     34  C   UNL     1       5.152   3.755  12.287  0.00  0.00    +0.000 C 
ENDBRANCH  30  31
ENDBRANCH   6  30
TORSDOF 11
ENDMDL
