MODEL 1
REMARK VINA RESULT:      -7.0      0.000      0.000
REMARK  Name = 
REMARK  6 active torsions:
REMARK  status: ('A' for Active; 'I' for Inactive)
REMARK    1  A    between atoms: C_1  and  O_2
REMARK    2  A    between atoms: O_2  and  C_3
REMARK    3  A    between atoms: C_7  and  O_8
REMARK    4  A    between atoms: O_8  and  C_9
REMARK    5  A    between atoms: C_9  and  C_10
REMARK    6  A    between atoms: N_12  and  C_13
REMARK                            x       y       z     vdW  Elec       q    Type
REMARK                         _______ _______ _______ _____ _____    ______ ____
ROOT
ATOM      1  C   UNL     1       6.993   4.735  16.831  0.00  0.00    +0.000 C 
ENDROOT
BRANCH   1   2
ATOM      2  C   UNL     1       6.296   4.422  18.152  0.00  0.00    +0.000 C 
ATOM      3  O   UNL     1       6.765   4.754  19.234  0.00  0.00    +0.000 OA
ATOM      4  N   UNL     1       5.065   3.819  18.002  0.00  0.00    +0.000 N 
ATOM      5  H   UNL     1       4.893   3.414  17.089  0.00  0.00    +0.000 HD
BRANCH   4   6
ATOM      6  C   UNL     1       4.258   3.387  19.136  0.00  0.00    +0.000 C 
ATOM      7  C   UNL     1       3.255   4.475  19.526  0.00  0.00    +0.000 C 
ATOM      8  C   UNL     1       2.187   4.679  18.452  0.00  0.00    +0.000 C 
ATOM      9  C   UNL     1       1.463   3.374  18.137  0.00  0.00    +0.000 C 
ATOM     10  C   UNL     1       2.427   2.241  17.788  0.00  0.00    +0.000 C 
ATOM     11  C   UNL     1       3.529   2.071  18.834  0.00  0.00    +0.000 C 
ENDBRANCH   4   6
ENDBRANCH   1   2
BRANCH   1  12
ATOM     12  O   UNL     1       6.052   5.147  15.841  0.00  0.00    +0.000 OA
BRANCH  12  17
ATOM     13  C   UNL     1       5.902   3.510  12.508  0.00  0.00    +0.000 A 
ATOM     14  C   UNL     1       7.057   4.065  11.951  0.00  0.00    +0.000 A 
ATOM     15  C   UNL     1       7.835   4.960  12.686  0.00  0.00    +0.000 A 
ATOM     16  C   UNL     1       7.461   5.297  13.986  0.00  0.00    +0.000 A 
ATOM     17  C   UNL     1       6.309   4.751  14.553  0.00  0.00    +0.000 A 
ATOM     18  C   UNL     1       5.527   3.865  13.805  0.00  0.00    +0.000 A 
BRANCH  13  20
ATOM     19  C   UNL     1       3.995   3.063  11.155  0.00  0.00    +0.000 C 
ATOM     20  O   UNL     1       5.238   2.629  11.695  0.00  0.00    +0.000 OA
ENDBRANCH  13  20
ENDBRANCH  12  17
ENDBRANCH   1  12
TORSDOF 5
ENDMDL
MODEL 2
REMARK VINA RESULT:      -7.0      2.039      3.183
REMARK  Name = 
REMARK  6 active torsions:
REMARK  status: ('A' for Active; 'I' for Inactive)
REMARK    1  A    between atoms: C_1  and  O_2
REMARK    2  A    between atoms: O_2  and  C_3
REMARK    3  A    between atoms: C_7  and  O_8
REMARK    4  A    between atoms: O_8  and  C_9
REMARK    5  A    between atoms: C_9  and  C_10
REMARK    6  A    between atoms: N_12  and  C_13
REMARK                            x       y       z     vdW  Elec       q    Type
REMARK                         _______ _______ _______ _____ _____    ______ ____
ROOT
ATOM      1  C   UNL     1       5.834   5.416  19.240  0.00  0.00    +0.000 C 
ENDROOT
BRANCH   1   2
ATOM      2  C   UNL     1       4.381   5.753  18.919  0.00  0.00    +0.000 C 
ATOM      3  O   UNL     1       4.074   6.672  18.169  0.00  0.00    +0.000 OA
ATOM      4  N   UNL     1       3.471   4.880  19.475  0.00  0.00    +0.000 N 
ATOM      5  H   UNL     1       3.832   4.306  20.229  0.00  0.00    +0.000 HD
BRANCH   4   6
ATOM      6  C   UNL     1       2.031   5.052  19.338  0.00  0.00    +0.000 C 
ATOM      7  C   UNL     1       1.535   4.419  18.035  0.00  0.00    +0.000 C 
ATOM      8  C   UNL     1       1.659   2.895  18.058  0.00  0.00    +0.000 C 
ATOM      9  C   UNL     1       0.925   2.299  19.254  0.00  0.00    +0.000 C 
ATOM     10  C   UNL     1       1.351   2.934  20.577  0.00  0.00    +0.000 C 
ATOM     11  C   UNL     1       1.280   4.461  20.539  0.00  0.00    +0.000 C 
ENDBRANCH   4   6
ENDBRANCH   1   2
BRANCH   1  12
ATOM     12  O   UNL     1       6.254   4.245  18.540  0.00  0.00    +0.000 OA
BRANCH  12  17
ATOM     13  C   UNL     1       7.176   4.995  15.019  0.00  0.00    +0.000 A 
ATOM     14  C   UNL     1       6.084   4.397  14.386  0.00  0.00    +0.000 A 
ATOM     15  C   UNL     1       5.092   3.765  15.136  0.00  0.00    +0.000 A 
ATOM     16  C   UNL     1       5.190   3.735  16.527  0.00  0.00    +0.000 A 
ATOM     17  C   UNL     1       6.277   4.327  17.171  0.00  0.00    +0.000 A 
ATOM     18  C   UNL     1       7.273   4.947  16.411  0.00  0.00    +0.000 A 
BRANCH  13  20
ATOM     19  C   UNL     1       7.933   5.323  12.786  0.00  0.00    +0.000 C 
ATOM     20  O   UNL     1       8.069   5.602  14.175  0.00  0.00    +0.000 OA
ENDBRANCH  13  20
ENDBRANCH  12  17
ENDBRANCH   1  12
TORSDOF 5
ENDMDL
MODEL 3
REMARK VINA RESULT:      -6.7      1.381      1.908
REMARK  Name = 
REMARK  6 active torsions:
REMARK  status: ('A' for Active; 'I' for Inactive)
REMARK    1  A    between atoms: C_1  and  O_2
REMARK    2  A    between atoms: O_2  and  C_3
REMARK    3  A    between atoms: C_7  and  O_8
REMARK    4  A    between atoms: O_8  and  C_9
REMARK    5  A    between atoms: C_9  and  C_10
REMARK    6  A    between atoms: N_12  and  C_13
REMARK                            x       y       z     vdW  Elec       q    Type
REMARK                         _______ _______ _______ _____ _____    ______ ____
ROOT
ATOM      1  C   UNL     1       6.105   4.430  16.708  0.00  0.00    +0.000 C 
ENDROOT
BRANCH   1   2
ATOM      2  C   UNL     1       4.879   5.300  16.974  0.00  0.00    +0.000 C 
ATOM      3  O   UNL     1       4.724   6.391  16.438  0.00  0.00    +0.000 OA
ATOM      4  N   UNL     1       3.943   4.706  17.792  0.00  0.00    +0.000 N 
ATOM      5  H   UNL     1       4.280   3.914  18.328  0.00  0.00    +0.000 HD
BRANCH   4   6
ATOM      6  C   UNL     1       2.725   5.385  18.215  0.00  0.00    +0.000 C 
ATOM      7  C   UNL     1       1.489   4.605  17.762  0.00  0.00    +0.000 C 
ATOM      8  C   UNL     1       1.359   3.267  18.490  0.00  0.00    +0.000 C 
ATOM      9  C   UNL     1       1.343   3.460  20.003  0.00  0.00    +0.000 C 
ATOM     10  C   UNL     1       2.536   4.277  20.500  0.00  0.00    +0.000 C 
ATOM     11  C   UNL     1       2.700   5.591  19.736  0.00  0.00    +0.000 C 
ENDBRANCH   4   6
ENDBRANCH   1   2
BRANCH   1  12
ATOM     12  O   UNL     1       7.021   5.090  15.836  0.00  0.00    +0.000 OA
BRANCH  12  17
ATOM     13  C   UNL     1       6.110   3.533  12.586  0.00  0.00    +0.000 A 
ATOM     14  C   UNL     1       7.010   4.221  11.767  0.00  0.00    +0.000 A 
ATOM     15  C   UNL     1       7.873   5.172  12.310  0.00  0.00    +0.000 A 
ATOM     16  C   UNL     1       7.843   5.435  13.679  0.00  0.00    +0.000 A 
ATOM     17  C   UNL     1       6.948   4.756  14.508  0.00  0.00    +0.000 A 
ATOM     18  C   UNL     1       6.076   3.814  13.954  0.00  0.00    +0.000 A 
BRANCH  13  20
ATOM     19  C   UNL     1       4.211   3.105  11.216  0.00  0.00    +0.000 C 
ATOM     20  O   UNL     1       5.333   2.609  11.939  0.00  0.00    +0.000 OA
ENDBRANCH  13  20
ENDBRANCH  12  17
ENDBRANCH   1  12
TORSDOF 5
ENDMDL
MODEL 4
REMARK VINA RESULT:      -6.5      4.314      6.532
REMARK  Name = 
REMARK  6 active torsions:
REMARK  status: ('A' for Active; 'I' for Inactive)
REMARK    1  A    between atoms: C_1  and  O_2
REMARK    2  A    between atoms: O_2  and  C_3
REMARK    3  A    between atoms: C_7  and  O_8
REMARK    4  A    between atoms: O_8  and  C_9
REMARK    5  A    between atoms: C_9  and  C_10
REMARK    6  A    between atoms: N_12  and  C_13
REMARK                            x       y       z     vdW  Elec       q    Type
REMARK                         _______ _______ _______ _____ _____    ______ ____
ROOT
ATOM      1  C   UNL     1       4.866   6.177  18.299  0.00  0.00    +0.000 C 
ENDROOT
BRANCH   1   2
ATOM      2  C   UNL     1       4.940   4.753  18.845  0.00  0.00    +0.000 C 
ATOM      3  O   UNL     1       6.007   4.189  19.057  0.00  0.00    +0.000 OA
ATOM      4  N   UNL     1       3.710   4.212  19.153  0.00  0.00    +0.000 N 
ATOM      5  H   UNL     1       2.916   4.687  18.740  0.00  0.00    +0.000 HD
BRANCH   4   6
ATOM      6  C   UNL     1       3.552   2.846  19.635  0.00  0.00    +0.000 C 
ATOM      7  C   UNL     1       2.821   2.832  20.980  0.00  0.00    +0.000 C 
ATOM      8  C   UNL     1       1.365   3.278  20.844  0.00  0.00    +0.000 C 
ATOM      9  C   UNL     1       0.619   2.425  19.823  0.00  0.00    +0.000 C 
ATOM     10  C   UNL     1       1.337   2.368  18.474  0.00  0.00    +0.000 C 
ATOM     11  C   UNL     1       2.808   1.975  18.614  0.00  0.00    +0.000 C 
ENDBRANCH   4   6
ENDBRANCH   1   2
BRANCH   1  12
ATOM     12  O   UNL     1       3.591   6.435  17.714  0.00  0.00    +0.000 OA
BRANCH  12  17
ATOM     13  C   UNL     1       1.503   8.212  20.224  0.00  0.00    +0.000 A 
ATOM     14  C   UNL     1       1.151   9.322  19.452  0.00  0.00    +0.000 A 
ATOM     15  C   UNL     1       1.618   9.450  18.144  0.00  0.00    +0.000 A 
ATOM     16  C   UNL     1       2.436   8.460  17.601  0.00  0.00    +0.000 A 
ATOM     17  C   UNL     1       2.796   7.346  18.361  0.00  0.00    +0.000 A 
ATOM     18  C   UNL     1       2.335   7.232  19.676  0.00  0.00    +0.000 A 
BRANCH  13  20
ATOM     19  C   UNL     1       1.035   9.398  22.233  0.00  0.00    +0.000 C 
ATOM     20  O   UNL     1       0.964   8.191  21.483  0.00  0.00    +0.000 OA
ENDBRANCH  13  20
ENDBRANCH  12  17
ENDBRANCH   1  12
TORSDOF 5
ENDMDL
MODEL 5
REMARK VINA RESULT:      -6.5      4.000      6.968
REMARK  Name = 
REMARK  6 active torsions:
REMARK  status: ('A' for Active; 'I' for Inactive)
REMARK    1  A    between atoms: C_1  and  O_2
REMARK    2  A    between atoms: O_2  and  C_3
REMARK    3  A    between atoms: C_7  and  O_8
REMARK    4  A    between atoms: O_8  and  C_9
REMARK    5  A    between atoms: C_9  and  C_10
REMARK    6  A    between atoms: N_12  and  C_13
REMARK                            x       y       z     vdW  Elec       q    Type
REMARK                         _______ _______ _______ _____ _____    ______ ____
ROOT
ATOM      1  C   UNL     1       4.250   6.547  17.930  0.00  0.00    +0.000 C 
ENDROOT
BRANCH   1   2
ATOM      2  C   UNL     1       4.000   5.051  17.762  0.00  0.00    +0.000 C 
ATOM      3  O   UNL     1       4.254   4.458  16.721  0.00  0.00    +0.000 OA
ATOM      4  N   UNL     1       3.551   4.430  18.909  0.00  0.00    +0.000 N 
ATOM      5  H   UNL     1       3.186   5.053  19.620  0.00  0.00    +0.000 HD
BRANCH   4   6
ATOM      6  C   UNL     1       3.200   3.017  18.951  0.00  0.00    +0.000 C 
ATOM      7  C   UNL     1       3.576   2.409  20.305  0.00  0.00    +0.000 C 
ATOM      8  C   UNL     1       2.720   2.971  21.440  0.00  0.00    +0.000 C 
ATOM      9  C   UNL     1       1.234   2.773  21.162  0.00  0.00    +0.000 C 
ATOM     10  C   UNL     1       0.817   3.321  19.798  0.00  0.00    +0.000 C 
ATOM     11  C   UNL     1       1.707   2.804  18.666  0.00  0.00    +0.000 C 
ENDBRANCH   4   6
ENDBRANCH   1   2
BRANCH   1  12
ATOM     12  O   UNL     1       3.180   7.310  17.375  0.00  0.00    +0.000 OA
BRANCH  12  17
ATOM     13  C   UNL     1       1.342   8.478  20.387  0.00  0.00    +0.000 A 
ATOM     14  C   UNL     1       0.823   9.666  19.866  0.00  0.00    +0.000 A 
ATOM     15  C   UNL     1       1.103  10.042  18.551  0.00  0.00    +0.000 A 
ATOM     16  C   UNL     1       1.899   9.224  17.752  0.00  0.00    +0.000 A 
ATOM     17  C   UNL     1       2.424   8.035  18.260  0.00  0.00    +0.000 A 
ATOM     18  C   UNL     1       2.151   7.672  19.582  0.00  0.00    +0.000 A 
BRANCH  13  20
ATOM     19  C   UNL     1       0.772   9.327  22.536  0.00  0.00    +0.000 C 
ATOM     20  O   UNL     1       0.978   8.209  21.680  0.00  0.00    +0.000 OA
ENDBRANCH  13  20
ENDBRANCH  12  17
ENDBRANCH   1  12
TORSDOF 5
ENDMDL
MODEL 6
REMARK VINA RESULT:      -6.5      2.072      2.782
REMARK  Name = 
REMARK  6 active torsions:
REMARK  status: ('A' for Active; 'I' for Inactive)
REMARK    1  A    between atoms: C_1  and  O_2
REMARK    2  A    between atoms: O_2  and  C_3
REMARK    3  A    between atoms: C_7  and  O_8
REMARK    4  A    between atoms: O_8  and  C_9
REMARK    5  A    between atoms: C_9  and  C_10
REMARK    6  A    between atoms: N_12  and  C_13
REMARK                            x       y       z     vdW  Elec       q    Type
REMARK                         _______ _______ _______ _____ _____    ______ ____
ROOT
ATOM      1  C   UNL     1       5.048   6.046  18.768  0.00  0.00    +0.000 C 
ENDROOT
BRANCH   1   2
ATOM      2  C   UNL     1       4.928   4.623  19.308  0.00  0.00    +0.000 C 
ATOM      3  O   UNL     1       5.906   3.904  19.477  0.00  0.00    +0.000 OA
ATOM      4  N   UNL     1       3.644   4.268  19.661  0.00  0.00    +0.000 N 
ATOM      5  H   UNL     1       2.914   4.860  19.280  0.00  0.00    +0.000 HD
BRANCH   4   6
ATOM      6  C   UNL     1       3.301   2.937  20.146  0.00  0.00    +0.000 C 
ATOM      7  C   UNL     1       1.982   2.971  20.921  0.00  0.00    +0.000 C 
ATOM      8  C   UNL     1       0.793   3.279  20.011  0.00  0.00    +0.000 C 
ATOM      9  C   UNL     1       0.708   2.285  18.857  0.00  0.00    +0.000 C 
ATOM     10  C   UNL     1       2.020   2.180  18.080  0.00  0.00    +0.000 C 
ATOM     11  C   UNL     1       3.220   1.927  18.994  0.00  0.00    +0.000 C 
ENDBRANCH   4   6
ENDBRANCH   1   2
BRANCH   1  12
ATOM     12  O   UNL     1       4.502   6.142  17.454  0.00  0.00    +0.000 OA
BRANCH  12  17
ATOM     13  C   UNL     1       6.949   5.204  14.818  0.00  0.00    +0.000 A 
ATOM     14  C   UNL     1       6.376   3.991  14.426  0.00  0.00    +0.000 A 
ATOM     15  C   UNL     1       5.217   3.524  15.046  0.00  0.00    +0.000 A 
ATOM     16  C   UNL     1       4.622   4.276  16.058  0.00  0.00    +0.000 A 
ATOM     17  C   UNL     1       5.184   5.488  16.460  0.00  0.00    +0.000 A 
ATOM     18  C   UNL     1       6.354   5.942  15.844  0.00  0.00    +0.000 A 
BRANCH  13  20
ATOM     19  C   UNL     1       8.022   5.419  12.705  0.00  0.00    +0.000 C 
ATOM     20  O   UNL     1       8.071   5.563  14.120  0.00  0.00    +0.000 OA
ENDBRANCH  13  20
ENDBRANCH  12  17
ENDBRANCH   1  12
TORSDOF 5
ENDMDL
MODEL 7
REMARK VINA RESULT:      -6.4      1.330      1.393
REMARK  Name = 
REMARK  6 active torsions:
REMARK  status: ('A' for Active; 'I' for Inactive)
REMARK    1  A    between atoms: C_1  and  O_2
REMARK    2  A    between atoms: O_2  and  C_3
REMARK    3  A    between atoms: C_7  and  O_8
REMARK    4  A    between atoms: O_8  and  C_9
REMARK    5  A    between atoms: C_9  and  C_10
REMARK    6  A    between atoms: N_12  and  C_13
REMARK                            x       y       z     vdW  Elec       q    Type
REMARK                         _______ _______ _______ _____ _____    ______ ____
ROOT
ATOM      1  C   UNL     1       5.013   4.226  16.417  0.00  0.00    +0.000 C 
ENDROOT
BRANCH   1   2
ATOM      2  C   UNL     1       5.062   4.165  17.941  0.00  0.00    +0.000 C 
ATOM      3  O   UNL     1       6.118   4.192  18.562  0.00  0.00    +0.000 OA
ATOM      4  N   UNL     1       3.820   4.167  18.538  0.00  0.00    +0.000 N 
ATOM      5  H   UNL     1       3.047   3.934  17.924  0.00  0.00    +0.000 HD
BRANCH   4   6
ATOM      6  C   UNL     1       3.641   4.058  19.980  0.00  0.00    +0.000 C 
ATOM      7  C   UNL     1       2.524   4.991  20.455  0.00  0.00    +0.000 C 
ATOM      8  C   UNL     1       1.153   4.547  19.944  0.00  0.00    +0.000 C 
ATOM      9  C   UNL     1       0.853   3.107  20.347  0.00  0.00    +0.000 C 
ATOM     10  C   UNL     1       1.964   2.142  19.936  0.00  0.00    +0.000 C 
ATOM     11  C   UNL     1       3.344   2.612  20.399  0.00  0.00    +0.000 C 
ENDBRANCH   4   6
ENDBRANCH   1   2
BRANCH   1  12
ATOM     12  O   UNL     1       6.266   4.648  15.881  0.00  0.00    +0.000 OA
BRANCH  12  17
ATOM     13  C   UNL     1       6.035   3.401  12.387  0.00  0.00    +0.000 A 
ATOM     14  C   UNL     1       7.052   4.175  11.823  0.00  0.00    +0.000 A 
ATOM     15  C   UNL     1       7.768   5.080  12.606  0.00  0.00    +0.000 A 
ATOM     16  C   UNL     1       7.470   5.209  13.962  0.00  0.00    +0.000 A 
ATOM     17  C   UNL     1       6.456   4.443  14.538  0.00  0.00    +0.000 A 
ATOM     18  C   UNL     1       5.733   3.548  13.743  0.00  0.00    +0.000 A 
BRANCH  13  20
ATOM     19  C   UNL     1       6.121   1.334  11.211  0.00  0.00    +0.000 C 
ATOM     20  O   UNL     1       5.422   2.534  11.521  0.00  0.00    +0.000 OA
ENDBRANCH  13  20
ENDBRANCH  12  17
ENDBRANCH   1  12
TORSDOF 5
ENDMDL
MODEL 8
REMARK VINA RESULT:      -6.4      2.005      3.637
REMARK  Name = 
REMARK  6 active torsions:
REMARK  status: ('A' for Active; 'I' for Inactive)
REMARK    1  A    between atoms: C_1  and  O_2
REMARK    2  A    between atoms: O_2  and  C_3
REMARK    3  A    between atoms: C_7  and  O_8
REMARK    4  A    between atoms: O_8  and  C_9
REMARK    5  A    between atoms: C_9  and  C_10
REMARK    6  A    between atoms: N_12  and  C_13
REMARK                            x       y       z     vdW  Elec       q    Type
REMARK                         _______ _______ _______ _____ _____    ______ ____
ROOT
ATOM      1  C   UNL     1       3.290   7.267  17.437  0.00  0.00    +0.000 C 
ENDROOT
BRANCH   1   2
ATOM      2  C   UNL     1       2.780   6.414  18.595  0.00  0.00    +0.000 C 
ATOM      3  O   UNL     1       2.613   6.872  19.719  0.00  0.00    +0.000 OA
ATOM      4  N   UNL     1       2.449   5.126  18.233  0.00  0.00    +0.000 N 
ATOM      5  H   UNL     1       2.827   4.818  17.345  0.00  0.00    +0.000 HD
BRANCH   4   6
ATOM      6  C   UNL     1       1.994   4.132  19.196  0.00  0.00    +0.000 C 
ATOM      7  C   UNL     1       1.370   2.933  18.478  0.00  0.00    +0.000 C 
ATOM      8  C   UNL     1       2.409   2.138  17.686  0.00  0.00    +0.000 C 
ATOM      9  C   UNL     1       3.557   1.684  18.582  0.00  0.00    +0.000 C 
ATOM     10  C   UNL     1       4.183   2.842  19.360  0.00  0.00    +0.000 C 
ATOM     11  C   UNL     1       3.139   3.672  20.108  0.00  0.00    +0.000 C 
ENDBRANCH   4   6
ENDBRANCH   1   2
BRANCH   1  12
ATOM     12  O   UNL     1       4.682   7.547  17.581  0.00  0.00    +0.000 OA
BRANCH  12  17
ATOM     13  C   UNL     1       6.496   4.741  15.953  0.00  0.00    +0.000 A 
ATOM     14  C   UNL     1       7.368   4.423  16.998  0.00  0.00    +0.000 A 
ATOM     15  C   UNL     1       7.333   5.146  18.191  0.00  0.00    +0.000 A 
ATOM     16  C   UNL     1       6.418   6.187  18.343  0.00  0.00    +0.000 A 
ATOM     17  C   UNL     1       5.543   6.515  17.307  0.00  0.00    +0.000 A 
ATOM     18  C   UNL     1       5.593   5.795  16.110  0.00  0.00    +0.000 A 
BRANCH  13  20
ATOM     19  C   UNL     1       5.621   4.098  13.835  0.00  0.00    +0.000 C 
ATOM     20  O   UNL     1       6.612   3.944  14.844  0.00  0.00    +0.000 OA
ENDBRANCH  13  20
ENDBRANCH  12  17
ENDBRANCH   1  12
TORSDOF 5
ENDMDL
MODEL 9
REMARK VINA RESULT:      -6.4      0.979      1.127
REMARK  Name = 
REMARK  6 active torsions:
REMARK  status: ('A' for Active; 'I' for Inactive)
REMARK    1  A    between atoms: C_1  and  O_2
REMARK    2  A    between atoms: O_2  and  C_3
REMARK    3  A    between atoms: C_7  and  O_8
REMARK    4  A    between atoms: O_8  and  C_9
REMARK    5  A    between atoms: C_9  and  C_10
REMARK    6  A    between atoms: N_12  and  C_13
REMARK                            x       y       z     vdW  Elec       q    Type
REMARK                         _______ _______ _______ _____ _____    ______ ____
ROOT
ATOM      1  C   UNL     1       6.060   5.561  16.540  0.00  0.00    +0.000 C 
ENDROOT
BRANCH   1   2
ATOM      2  C   UNL     1       5.722   4.527  17.612  0.00  0.00    +0.000 C 
ATOM      3  O   UNL     1       6.509   4.226  18.501  0.00  0.00    +0.000 OA
ATOM      4  N   UNL     1       4.433   4.045  17.531  0.00  0.00    +0.000 N 
ATOM      5  H   UNL     1       3.967   4.208  16.645  0.00  0.00    +0.000 HD
BRANCH   4   6
ATOM      6  C   UNL     1       3.923   3.012  18.423  0.00  0.00    +0.000 C 
ATOM      7  C   UNL     1       3.748   3.564  19.840  0.00  0.00    +0.000 C 
ATOM      8  C   UNL     1       2.633   4.607  19.913  0.00  0.00    +0.000 C 
ATOM      9  C   UNL     1       1.314   4.043  19.393  0.00  0.00    +0.000 C 
ATOM     10  C   UNL     1       1.449   3.435  17.998  0.00  0.00    +0.000 C 
ATOM     11  C   UNL     1       2.599   2.432  17.908  0.00  0.00    +0.000 C 
ENDBRANCH   4   6
ENDBRANCH   1   2
BRANCH   1  12
ATOM     12  O   UNL     1       7.245   5.195  15.834  0.00  0.00    +0.000 OA
BRANCH  12  17
ATOM     13  C   UNL     1       6.144   3.542  12.693  0.00  0.00    +0.000 A 
ATOM     14  C   UNL     1       6.963   4.232  11.796  0.00  0.00    +0.000 A 
ATOM     15  C   UNL     1       7.838   5.218  12.254  0.00  0.00    +0.000 A 
ATOM     16  C   UNL     1       7.899   5.511  13.616  0.00  0.00    +0.000 A 
ATOM     17  C   UNL     1       7.085   4.829  14.522  0.00  0.00    +0.000 A 
ATOM     18  C   UNL     1       6.201   3.853  14.053  0.00  0.00    +0.000 A 
BRANCH  13  20
ATOM     19  C   UNL     1       5.994   1.601  11.323  0.00  0.00    +0.000 C 
ATOM     20  O   UNL     1       5.347   2.583  12.124  0.00  0.00    +0.000 OA
ENDBRANCH  13  20
ENDBRANCH  12  17
ENDBRANCH   1  12
TORSDOF 5
ENDMDL
