MODEL 1
REMARK VINA RESULT:      -8.8      0.000      0.000
REMARK  Name = 
REMARK  6 active torsions:
REMARK  status: ('A' for Active; 'I' for Inactive)
REMARK    1  A    between atoms: C_1  and  C_2
REMARK    2  A    between atoms: C_5  and  N_6
REMARK    3  A    between atoms: N_9  and  C_10
REMARK    4  A    between atoms: C_10  and  C_11
REMARK    5  A    between atoms: C_19  and  N_20
REMARK    6  A    between atoms: C_25  and  C_26
REMARK                            x       y       z     vdW  Elec       q    Type
REMARK                         _______ _______ _______ _____ _____    ______ ____
ROOT
ATOM      1  C   UNL     1       5.136   3.247  16.154  0.00  0.00    +0.000 C 
ATOM      2  C   UNL     1       5.939   4.305  16.853  0.00  0.00    +0.000 A 
ATOM      3  C   UNL     1       6.769   5.120  16.069  0.00  0.00    +0.000 A 
ATOM      4  C   UNL     1       7.571   6.106  16.642  0.00  0.00    +0.000 A 
ATOM      5  C   UNL     1       7.551   6.321  18.015  0.00  0.00    +0.000 A 
ATOM      6  C   UNL     1       6.704   5.530  18.798  0.00  0.00    +0.000 A 
ATOM      7  C   UNL     1       5.931   4.481  18.251  0.00  0.00    +0.000 A 
ENDROOT
BRANCH   7   8
ATOM      8  N   UNL     1       5.217   3.605  19.091  0.00  0.00    +0.000 N 
ATOM      9  C   UNL     1       4.016   3.833  19.773  0.00  0.00    +0.000 A 
ATOM     10  N   UNL     1       3.544   2.845  20.542  0.00  0.00    +0.000 NA
ATOM     11  C   UNL     1       2.419   3.103  21.236  0.00  0.00    +0.000 A 
ATOM     12  C   UNL     1       1.771   4.318  21.226  0.00  0.00    +0.000 A 
ATOM     13  C   UNL     1       2.329   5.290  20.426  0.00  0.00    +0.000 A 
ATOM     14  N   UNL     1       3.426   5.033  19.693  0.00  0.00    +0.000 NA
ATOM     15  H   UNL     1       5.725   2.868  19.557  0.00  0.00    +0.000 HD
BRANCH  13  16
ATOM     16  C   UNL     1       1.836   6.674  20.316  0.00  0.00    +0.000 A 
ATOM     17  C   UNL     1       1.095   7.320  21.314  0.00  0.00    +0.000 A 
ATOM     18  C   UNL     1       0.671   8.639  21.138  0.00  0.00    +0.000 A 
ATOM     19  C   UNL     1       0.991   9.288  19.960  0.00  0.00    +0.000 A 
ATOM     20  N   UNL     1       1.687   8.712  18.962  0.00  0.00    +0.000 NA
ATOM     21  C   UNL     1       2.090   7.431  19.165  0.00  0.00    +0.000 A 
ENDBRANCH  13  16
ENDBRANCH   7   8
BRANCH   5  22
ATOM     22  N   UNL     1       8.341   7.304  18.652  0.00  0.00    +0.000 N 
ATOM     23  C   UNL     1       8.462   8.615  18.245  0.00  0.00    +0.000 C 
ATOM     24  O   UNL     1       8.003   9.098  17.217  0.00  0.00    +0.000 OA
ATOM     25  N   UNL     1       9.135   9.391  19.157  0.00  0.00    +0.000 N 
ATOM     26  H   UNL     1       8.971   6.987  19.373  0.00  0.00    +0.000 HD
ATOM     27  H   UNL     1       9.786   8.943  19.783  0.00  0.00    +0.000 HD
BRANCH  25  28
ATOM     28  C   UNL     1       9.335  10.798  18.878  0.00  0.00    +0.000 C 
BRANCH  28  29
ATOM     29  C   UNL     1       9.353  11.601  20.150  0.00  0.00    +0.000 A 
ATOM     30  C   UNL     1      10.110  12.781  20.226  0.00  0.00    +0.000 A 
ATOM     31  C   UNL     1      10.096  13.561  21.383  0.00  0.00    +0.000 A 
ATOM     32  C   UNL     1       9.328  13.166  22.477  0.00  0.00    +0.000 A 
ATOM     33  C   UNL     1       8.601  11.979  22.419  0.00  0.00    +0.000 A 
ATOM     34 CL   UNL     1       7.657  11.488  23.772  0.00  0.00    +0.000 Cl
ATOM     35  C   UNL     1       8.618  11.190  21.269  0.00  0.00    +0.000 A 
ENDBRANCH  28  29
ENDBRANCH  25  28
ENDBRANCH   5  22
TORSDOF 5
ENDMDL
MODEL 2
REMARK VINA RESULT:      -8.7      1.167      1.639
REMARK  Name = 
REMARK  6 active torsions:
REMARK  status: ('A' for Active; 'I' for Inactive)
REMARK    1  A    between atoms: C_1  and  C_2
REMARK    2  A    between atoms: C_5  and  N_6
REMARK    3  A    between atoms: N_9  and  C_10
REMARK    4  A    between atoms: C_10  and  C_11
REMARK    5  A    between atoms: C_19  and  N_20
REMARK    6  A    between atoms: C_25  and  C_26
REMARK                            x       y       z     vdW  Elec       q    Type
REMARK                         _______ _______ _______ _____ _____    ______ ____
ROOT
ATOM      1  C   UNL     1       4.986   3.880  16.167  0.00  0.00    +0.000 C 
ATOM      2  C   UNL     1       5.858   4.853  16.906  0.00  0.00    +0.000 A 
ATOM      3  C   UNL     1       6.809   5.572  16.166  0.00  0.00    +0.000 A 
ATOM      4  C   UNL     1       7.680   6.471  16.780  0.00  0.00    +0.000 A 
ATOM      5  C   UNL     1       7.611   6.696  18.150  0.00  0.00    +0.000 A 
ATOM      6  C   UNL     1       6.645   6.003  18.888  0.00  0.00    +0.000 A 
ATOM      7  C   UNL     1       5.796   5.038  18.301  0.00  0.00    +0.000 A 
ENDROOT
BRANCH   7   8
ATOM      8  N   UNL     1       4.950   4.247  19.103  0.00  0.00    +0.000 N 
ATOM      9  C   UNL     1       3.718   4.587  19.674  0.00  0.00    +0.000 A 
ATOM     10  N   UNL     1       3.111   3.664  20.429  0.00  0.00    +0.000 NA
ATOM     11  C   UNL     1       1.954   4.029  21.016  0.00  0.00    +0.000 A 
ATOM     12  C   UNL     1       1.403   5.286  20.914  0.00  0.00    +0.000 A 
ATOM     13  C   UNL     1       2.098   6.186  20.137  0.00  0.00    +0.000 A 
ATOM     14  N   UNL     1       3.229   5.823  19.508  0.00  0.00    +0.000 NA
ATOM     15  H   UNL     1       5.360   3.493  19.632  0.00  0.00    +0.000 HD
BRANCH  13  16
ATOM     16  C   UNL     1       1.722   7.597  19.943  0.00  0.00    +0.000 A 
ATOM     17  C   UNL     1       1.879   8.287  18.733  0.00  0.00    +0.000 A 
ATOM     18  C   UNL     1       1.489   9.624  18.627  0.00  0.00    +0.000 A 
ATOM     19  C   UNL     1       0.954  10.251  19.737  0.00  0.00    +0.000 A 
ATOM     20  N   UNL     1       0.795   9.642  20.926  0.00  0.00    +0.000 NA
ATOM     21  C   UNL     1       1.177   8.341  20.997  0.00  0.00    +0.000 A 
ENDBRANCH  13  16
ENDBRANCH   7   8
BRANCH   5  22
ATOM     22  N   UNL     1       8.465   7.595  18.826  0.00  0.00    +0.000 N 
ATOM     23  C   UNL     1       8.609   8.933  18.530  0.00  0.00    +0.000 C 
ATOM     24  O   UNL     1       8.114   9.519  17.575  0.00  0.00    +0.000 OA
ATOM     25  N   UNL     1       9.354   9.604  19.470  0.00  0.00    +0.000 N 
ATOM     26  H   UNL     1       9.121   7.196  19.481  0.00  0.00    +0.000 HD
ATOM     27  H   UNL     1      10.021   9.084  20.017  0.00  0.00    +0.000 HD
BRANCH  25  28
ATOM     28  C   UNL     1       9.587  11.024  19.304  0.00  0.00    +0.000 C 
BRANCH  28  29
ATOM     29  C   UNL     1       9.302  11.767  20.582  0.00  0.00    +0.000 A 
ATOM     30  C   UNL     1       8.618  11.128  21.629  0.00  0.00    +0.000 A 
ATOM     31  C   UNL     1       8.391  11.788  22.836  0.00  0.00    +0.000 A 
ATOM     32  C   UNL     1       8.843  13.097  23.008  0.00  0.00    +0.000 A 
ATOM     33  C   UNL     1       9.493  13.746  21.961  0.00  0.00    +0.000 A 
ATOM     34 CL   UNL     1      10.046  15.362  22.170  0.00  0.00    +0.000 Cl
ATOM     35  C   UNL     1       9.715  13.094  20.748  0.00  0.00    +0.000 A 
ENDBRANCH  28  29
ENDBRANCH  25  28
ENDBRANCH   5  22
TORSDOF 5
ENDMDL
MODEL 3
REMARK VINA RESULT:      -8.5      1.081      1.403
REMARK  Name = 
REMARK  6 active torsions:
REMARK  status: ('A' for Active; 'I' for Inactive)
REMARK    1  A    between atoms: C_1  and  C_2
REMARK    2  A    between atoms: C_5  and  N_6
REMARK    3  A    between atoms: N_9  and  C_10
REMARK    4  A    between atoms: C_10  and  C_11
REMARK    5  A    between atoms: C_19  and  N_20
REMARK    6  A    between atoms: C_25  and  C_26
REMARK                            x       y       z     vdW  Elec       q    Type
REMARK                         _______ _______ _______ _____ _____    ______ ____
ROOT
ATOM      1  C   UNL     1       5.529   4.196  15.751  0.00  0.00    +0.000 C 
ATOM      2  C   UNL     1       6.289   5.135  16.644  0.00  0.00    +0.000 A 
ATOM      3  C   UNL     1       7.096   6.107  16.033  0.00  0.00    +0.000 A 
ATOM      4  C   UNL     1       7.859   6.997  16.789  0.00  0.00    +0.000 A 
ATOM      5  C   UNL     1       7.822   6.955  18.177  0.00  0.00    +0.000 A 
ATOM      6  C   UNL     1       6.997   6.006  18.790  0.00  0.00    +0.000 A 
ATOM      7  C   UNL     1       6.265   5.050  18.049  0.00  0.00    +0.000 A 
ENDROOT
BRANCH   7   8
ATOM      8  N   UNL     1       5.576   4.012  18.705  0.00  0.00    +0.000 N 
ATOM      9  C   UNL     1       4.336   4.059  19.354  0.00  0.00    +0.000 A 
ATOM     10  N   UNL     1       3.898   2.935  19.934  0.00  0.00    +0.000 NA
ATOM     11  C   UNL     1       2.732   3.015  20.603  0.00  0.00    +0.000 A 
ATOM     12  C   UNL     1       2.008   4.176  20.751  0.00  0.00    +0.000 A 
ATOM     13  C   UNL     1       2.534   5.294  20.144  0.00  0.00    +0.000 A 
ATOM     14  N   UNL     1       3.674   5.220  19.435  0.00  0.00    +0.000 NA
ATOM     15  H   UNL     1       6.110   3.240  19.073  0.00  0.00    +0.000 HD
BRANCH  13  16
ATOM     16  C   UNL     1       1.958   6.647  20.228  0.00  0.00    +0.000 A 
ATOM     17  C   UNL     1       1.177   7.097  21.301  0.00  0.00    +0.000 A 
ATOM     18  C   UNL     1       0.674   8.400  21.311  0.00  0.00    +0.000 A 
ATOM     19  C   UNL     1       0.957   9.230  20.242  0.00  0.00    +0.000 A 
ATOM     20  N   UNL     1       1.688   8.846  19.180  0.00  0.00    +0.000 NA
ATOM     21  C   UNL     1       2.169   7.577  19.201  0.00  0.00    +0.000 A 
ENDBRANCH  13  16
ENDBRANCH   7   8
BRANCH   5  22
ATOM     22  N   UNL     1       8.571   7.829  18.995  0.00  0.00    +0.000 N 
ATOM     23  C   UNL     1       8.795   9.164  18.737  0.00  0.00    +0.000 C 
ATOM     24  O   UNL     1       8.481   9.767  17.718  0.00  0.00    +0.000 OA
ATOM     25  N   UNL     1       9.388   9.813  19.793  0.00  0.00    +0.000 N 
ATOM     26  H   UNL     1       9.099   7.412  19.747  0.00  0.00    +0.000 HD
ATOM     27  H   UNL     1       9.941   9.275  20.441  0.00  0.00    +0.000 HD
BRANCH  25  28
ATOM     28  C   UNL     1       9.679  11.228  19.680  0.00  0.00    +0.000 C 
BRANCH  28  29
ATOM     29  C   UNL     1       9.287  11.958  20.936  0.00  0.00    +0.000 A 
ATOM     30  C   UNL     1       8.544  11.300  21.929  0.00  0.00    +0.000 A 
ATOM     31  C   UNL     1       8.216  11.950  23.119  0.00  0.00    +0.000 A 
ATOM     32  C   UNL     1       8.626  13.267  23.327  0.00  0.00    +0.000 A 
ATOM     33  C   UNL     1       9.335  13.935  22.331  0.00  0.00    +0.000 A 
ATOM     34 CL   UNL     1       9.837  15.562  22.585  0.00  0.00    +0.000 Cl
ATOM     35  C   UNL     1       9.658  13.293  21.135  0.00  0.00    +0.000 A 
ENDBRANCH  28  29
ENDBRANCH  25  28
ENDBRANCH   5  22
TORSDOF 5
ENDMDL
MODEL 4
REMARK VINA RESULT:      -8.5      0.922      1.212
REMARK  Name = 
REMARK  6 active torsions:
REMARK  status: ('A' for Active; 'I' for Inactive)
REMARK    1  A    between atoms: C_1  and  C_2
REMARK    2  A    between atoms: C_5  and  N_6
REMARK    3  A    between atoms: N_9  and  C_10
REMARK    4  A    between atoms: C_10  and  C_11
REMARK    5  A    between atoms: C_19  and  N_20
REMARK    6  A    between atoms: C_25  and  C_26
REMARK                            x       y       z     vdW  Elec       q    Type
REMARK                         _______ _______ _______ _____ _____    ______ ____
ROOT
ATOM      1  C   UNL     1       5.170   4.258  16.014  0.00  0.00    +0.000 C 
ATOM      2  C   UNL     1       6.015   5.206  16.816  0.00  0.00    +0.000 A 
ATOM      3  C   UNL     1       6.942   6.000  16.124  0.00  0.00    +0.000 A 
ATOM      4  C   UNL     1       7.787   6.883  16.796  0.00  0.00    +0.000 A 
ATOM      5  C   UNL     1       7.715   7.014  18.177  0.00  0.00    +0.000 A 
ATOM      6  C   UNL     1       6.773   6.245  18.868  0.00  0.00    +0.000 A 
ATOM      7  C   UNL     1       5.952   5.295  18.220  0.00  0.00    +0.000 A 
ENDROOT
BRANCH   7   8
ATOM      8  N   UNL     1       5.133   4.428  18.968  0.00  0.00    +0.000 N 
ATOM      9  C   UNL     1       3.886   4.687  19.551  0.00  0.00    +0.000 A 
ATOM     10  N   UNL     1       3.310   3.700  20.246  0.00  0.00    +0.000 NA
ATOM     11  C   UNL     1       2.139   3.987  20.847  0.00  0.00    +0.000 A 
ATOM     12  C   UNL     1       1.542   5.227  20.816  0.00  0.00    +0.000 A 
ATOM     13  C   UNL     1       2.206   6.195  20.098  0.00  0.00    +0.000 A 
ATOM     14  N   UNL     1       3.353   5.912  19.455  0.00  0.00    +0.000 NA
ATOM     15  H   UNL     1       5.568   3.659  19.455  0.00  0.00    +0.000 HD
BRANCH  13  16
ATOM     16  C   UNL     1       1.779   7.601  19.985  0.00  0.00    +0.000 A 
ATOM     17  C   UNL     1       1.900   8.362  18.815  0.00  0.00    +0.000 A 
ATOM     18  C   UNL     1       1.463   9.688  18.785  0.00  0.00    +0.000 A 
ATOM     19  C   UNL     1       0.917  10.233  19.933  0.00  0.00    +0.000 A 
ATOM     20  N   UNL     1       0.790   9.554  21.087  0.00  0.00    +0.000 NA
ATOM     21  C   UNL     1       1.218   8.266  21.084  0.00  0.00    +0.000 A 
ENDBRANCH  13  16
ENDBRANCH   7   8
BRANCH   5  22
ATOM     22  N   UNL     1       8.544   7.891  18.911  0.00  0.00    +0.000 N 
ATOM     23  C   UNL     1       8.725   9.230  18.639  0.00  0.00    +0.000 C 
ATOM     24  O   UNL     1       8.293   9.835  17.666  0.00  0.00    +0.000 OA
ATOM     25  N   UNL     1       9.427   9.879  19.627  0.00  0.00    +0.000 N 
ATOM     26  H   UNL     1       9.156   7.475  19.597  0.00  0.00    +0.000 HD
ATOM     27  H   UNL     1      10.053   9.342  20.205  0.00  0.00    +0.000 HD
BRANCH  25  28
ATOM     28  C   UNL     1       9.690  11.296  19.492  0.00  0.00    +0.000 C 
BRANCH  28  29
ATOM     29  C   UNL     1       9.400  12.021  20.778  0.00  0.00    +0.000 A 
ATOM     30  C   UNL     1       9.967  13.283  21.018  0.00  0.00    +0.000 A 
ATOM     31  C   UNL     1       9.666  13.988  22.184  0.00  0.00    +0.000 A 
ATOM     32  C   UNL     1       8.798  13.435  23.124  0.00  0.00    +0.000 A 
ATOM     33  C   UNL     1       8.258  12.170  22.907  0.00  0.00    +0.000 A 
ATOM     34 CL   UNL     1       7.190  11.485  24.070  0.00  0.00    +0.000 Cl
ATOM     35  C   UNL     1       8.562  11.456  21.747  0.00  0.00    +0.000 A 
ENDBRANCH  28  29
ENDBRANCH  25  28
ENDBRANCH   5  22
TORSDOF 5
ENDMDL
MODEL 5
REMARK VINA RESULT:      -8.5      1.680      2.197
REMARK  Name = 
REMARK  6 active torsions:
REMARK  status: ('A' for Active; 'I' for Inactive)
REMARK    1  A    between atoms: C_1  and  C_2
REMARK    2  A    between atoms: C_5  and  N_6
REMARK    3  A    between atoms: N_9  and  C_10
REMARK    4  A    between atoms: C_10  and  C_11
REMARK    5  A    between atoms: C_19  and  N_20
REMARK    6  A    between atoms: C_25  and  C_26
REMARK                            x       y       z     vdW  Elec       q    Type
REMARK                         _______ _______ _______ _____ _____    ______ ____
ROOT
ATOM      1  C   UNL     1       5.400   2.589  15.866  0.00  0.00    +0.000 C 
ATOM      2  C   UNL     1       5.838   3.981  16.220  0.00  0.00    +0.000 A 
ATOM      3  C   UNL     1       6.643   4.667  15.298  0.00  0.00    +0.000 A 
ATOM      4  C   UNL     1       7.118   5.951  15.562  0.00  0.00    +0.000 A 
ATOM      5  C   UNL     1       6.785   6.596  16.747  0.00  0.00    +0.000 A 
ATOM      6  C   UNL     1       5.960   5.927  17.657  0.00  0.00    +0.000 A 
ATOM      7  C   UNL     1       5.519   4.601  17.443  0.00  0.00    +0.000 A 
ENDROOT
BRANCH   7   8
ATOM      8  N   UNL     1       4.825   3.906  18.453  0.00  0.00    +0.000 N 
ATOM      9  C   UNL     1       3.736   4.335  19.220  0.00  0.00    +0.000 A 
ATOM     10  N   UNL     1       3.263   3.496  20.148  0.00  0.00    +0.000 NA
ATOM     11  C   UNL     1       2.252   3.949  20.915  0.00  0.00    +0.000 A 
ATOM     12  C   UNL     1       1.723   5.216  20.820  0.00  0.00    +0.000 A 
ATOM     13  C   UNL     1       2.276   6.027  19.854  0.00  0.00    +0.000 A 
ATOM     14  N   UNL     1       3.255   5.574  19.052  0.00  0.00    +0.000 NA
ATOM     15  H   UNL     1       5.311   3.177  18.953  0.00  0.00    +0.000 HD
BRANCH  13  16
ATOM     16  C   UNL     1       1.905   7.434  19.624  0.00  0.00    +0.000 A 
ATOM     17  C   UNL     1       2.074   8.095  18.399  0.00  0.00    +0.000 A 
ATOM     18  C   UNL     1       1.688   9.430  18.257  0.00  0.00    +0.000 A 
ATOM     19  C   UNL     1       1.145  10.083  19.347  0.00  0.00    +0.000 A 
ATOM     20  N   UNL     1       0.974   9.503  20.549  0.00  0.00    +0.000 NA
ATOM     21  C   UNL     1       1.352   8.204  20.655  0.00  0.00    +0.000 A 
ENDBRANCH  13  16
ENDBRANCH   7   8
BRANCH   5  22
ATOM     22  N   UNL     1       7.236   7.895  17.070  0.00  0.00    +0.000 N 
ATOM     23  C   UNL     1       8.087   8.207  18.108  0.00  0.00    +0.000 C 
ATOM     24  O   UNL     1       8.490   7.435  18.970  0.00  0.00    +0.000 OA
ATOM     25  N   UNL     1       8.511   9.514  18.068  0.00  0.00    +0.000 N 
ATOM     26  H   UNL     1       6.791   8.665  16.594  0.00  0.00    +0.000 HD
ATOM     27  H   UNL     1       7.930  10.194  17.605  0.00  0.00    +0.000 HD
BRANCH  25  28
ATOM     28  C   UNL     1       9.421   9.994  19.088  0.00  0.00    +0.000 C 
BRANCH  28  29
ATOM     29  C   UNL     1       9.893  11.387  18.774  0.00  0.00    +0.000 A 
ATOM     30  C   UNL     1      10.620  11.635  17.598  0.00  0.00    +0.000 A 
ATOM     31  C   UNL     1      11.020  12.931  17.270  0.00  0.00    +0.000 A 
ATOM     32  C   UNL     1      10.700  13.992  18.117  0.00  0.00    +0.000 A 
ATOM     33  C   UNL     1      10.008  13.746  19.301  0.00  0.00    +0.000 A 
ATOM     34 CL   UNL     1       9.618  15.055  20.349  0.00  0.00    +0.000 Cl
ATOM     35  C   UNL     1       9.612  12.452  19.639  0.00  0.00    +0.000 A 
ENDBRANCH  28  29
ENDBRANCH  25  28
ENDBRANCH   5  22
TORSDOF 5
ENDMDL
MODEL 6
REMARK VINA RESULT:      -8.4      1.944      2.455
REMARK  Name = 
REMARK  6 active torsions:
REMARK  status: ('A' for Active; 'I' for Inactive)
REMARK    1  A    between atoms: C_1  and  C_2
REMARK    2  A    between atoms: C_5  and  N_6
REMARK    3  A    between atoms: N_9  and  C_10
REMARK    4  A    between atoms: C_10  and  C_11
REMARK    5  A    between atoms: C_19  and  N_20
REMARK    6  A    between atoms: C_25  and  C_26
REMARK                            x       y       z     vdW  Elec       q    Type
REMARK                         _______ _______ _______ _____ _____    ______ ____
ROOT
ATOM      1  C   UNL     1       5.213   4.173  15.863  0.00  0.00    +0.000 C 
ATOM      2  C   UNL     1       6.065   5.131  16.644  0.00  0.00    +0.000 A 
ATOM      3  C   UNL     1       6.899   5.999  15.923  0.00  0.00    +0.000 A 
ATOM      4  C   UNL     1       7.746   6.898  16.572  0.00  0.00    +0.000 A 
ATOM      5  C   UNL     1       7.766   6.971  17.960  0.00  0.00    +0.000 A 
ATOM      6  C   UNL     1       6.916   6.127  18.681  0.00  0.00    +0.000 A 
ATOM      7  C   UNL     1       6.098   5.162  18.051  0.00  0.00    +0.000 A 
ENDROOT
BRANCH   7   8
ATOM      8  N   UNL     1       5.378   4.224  18.817  0.00  0.00    +0.000 N 
ATOM      9  C   UNL     1       4.147   4.384  19.465  0.00  0.00    +0.000 A 
ATOM     10  N   UNL     1       3.676   3.345  20.163  0.00  0.00    +0.000 NA
ATOM     11  C   UNL     1       2.519   3.537  20.826  0.00  0.00    +0.000 A 
ATOM     12  C   UNL     1       1.838   4.733  20.854  0.00  0.00    +0.000 A 
ATOM     13  C   UNL     1       2.397   5.760  20.128  0.00  0.00    +0.000 A 
ATOM     14  N   UNL     1       3.527   5.571  19.425  0.00  0.00    +0.000 NA
ATOM     15  H   UNL     1       5.889   3.477  19.263  0.00  0.00    +0.000 HD
BRANCH  13  16
ATOM     16  C   UNL     1       1.870   7.135  20.071  0.00  0.00    +0.000 A 
ATOM     17  C   UNL     1       1.198   7.757  21.132  0.00  0.00    +0.000 A 
ATOM     18  C   UNL     1       0.736   9.069  21.003  0.00  0.00    +0.000 A 
ATOM     19  C   UNL     1       0.949   9.734  19.810  0.00  0.00    +0.000 A 
ATOM     20  N   UNL     1       1.574   9.180  18.755  0.00  0.00    +0.000 NA
ATOM     21  C   UNL     1       2.017   7.907  18.912  0.00  0.00    +0.000 A 
ENDBRANCH  13  16
ENDBRANCH   7   8
BRANCH   5  22
ATOM     22  N   UNL     1       8.601   7.860  18.672  0.00  0.00    +0.000 N 
ATOM     23  C   UNL     1       8.433   9.226  18.742  0.00  0.00    +0.000 C 
ATOM     24  O   UNL     1       7.613   9.887  18.116  0.00  0.00    +0.000 OA
ATOM     25  N   UNL     1       9.271   9.815  19.658  0.00  0.00    +0.000 N 
ATOM     26  H   UNL     1       9.463   7.485  19.037  0.00  0.00    +0.000 HD
ATOM     27  H   UNL     1      10.136   9.351  19.887  0.00  0.00    +0.000 HD
BRANCH  25  28
ATOM     28  C   UNL     1       9.207  11.248  19.857  0.00  0.00    +0.000 C 
BRANCH  28  29
ATOM     29  C   UNL     1      10.108  11.965  18.889  0.00  0.00    +0.000 A 
ATOM     30  C   UNL     1      11.185  11.287  18.296  0.00  0.00    +0.000 A 
ATOM     31  C   UNL     1      11.998  11.926  17.359  0.00  0.00    +0.000 A 
ATOM     32  C   UNL     1      11.743  13.251  17.008  0.00  0.00    +0.000 A 
ATOM     33  C   UNL     1      10.696  13.939  17.618  0.00  0.00    +0.000 A 
ATOM     34 CL   UNL     1      10.386  15.576  17.189  0.00  0.00    +0.000 Cl
ATOM     35  C   UNL     1       9.886  13.308  18.562  0.00  0.00    +0.000 A 
ENDBRANCH  28  29
ENDBRANCH  25  28
ENDBRANCH   5  22
TORSDOF 5
ENDMDL
MODEL 7
REMARK VINA RESULT:      -8.4      4.058      9.654
REMARK  Name = 
REMARK  6 active torsions:
REMARK  status: ('A' for Active; 'I' for Inactive)
REMARK    1  A    between atoms: C_1  and  C_2
REMARK    2  A    between atoms: C_5  and  N_6
REMARK    3  A    between atoms: N_9  and  C_10
REMARK    4  A    between atoms: C_10  and  C_11
REMARK    5  A    between atoms: C_19  and  N_20
REMARK    6  A    between atoms: C_25  and  C_26
REMARK                            x       y       z     vdW  Elec       q    Type
REMARK                         _______ _______ _______ _____ _____    ______ ____
ROOT
ATOM      1  C   UNL     1      10.833  12.869  20.795  0.00  0.00    +0.000 C 
ATOM      2  C   UNL     1      10.087  11.949  19.873  0.00  0.00    +0.000 A 
ATOM      3  C   UNL     1       9.674  10.708  20.381  0.00  0.00    +0.000 A 
ATOM      4  C   UNL     1       9.004   9.782  19.582  0.00  0.00    +0.000 A 
ATOM      5  C   UNL     1       8.707  10.077  18.257  0.00  0.00    +0.000 A 
ATOM      6  C   UNL     1       9.092  11.325  17.754  0.00  0.00    +0.000 A 
ATOM      7  C   UNL     1       9.830  12.254  18.522  0.00  0.00    +0.000 A 
ENDROOT
BRANCH   7   8
ATOM      8  N   UNL     1      10.337  13.427  17.932  0.00  0.00    +0.000 N 
ATOM      9  C   UNL     1       9.834  14.732  18.008  0.00  0.00    +0.000 A 
ATOM     10  N   UNL     1      10.483  15.685  17.328  0.00  0.00    +0.000 NA
ATOM     11  C   UNL     1       9.951  16.923  17.367  0.00  0.00    +0.000 A 
ATOM     12  C   UNL     1       8.781  17.237  18.019  0.00  0.00    +0.000 A 
ATOM     13  C   UNL     1       8.162  16.198  18.677  0.00  0.00    +0.000 A 
ATOM     14  N   UNL     1       8.704  14.968  18.686  0.00  0.00    +0.000 NA
ATOM     15  H   UNL     1      10.898  13.340  17.098  0.00  0.00    +0.000 HD
BRANCH  13  16
ATOM     16  C   UNL     1       6.873  16.299  19.384  0.00  0.00    +0.000 A 
ATOM     17  C   UNL     1       6.508  15.478  20.460  0.00  0.00    +0.000 A 
ATOM     18  C   UNL     1       5.269  15.641  21.084  0.00  0.00    +0.000 A 
ATOM     19  C   UNL     1       4.413  16.621  20.616  0.00  0.00    +0.000 A 
ATOM     20  N   UNL     1       4.706  17.426  19.579  0.00  0.00    +0.000 NA
ATOM     21  C   UNL     1       5.919  17.248  18.996  0.00  0.00    +0.000 A 
ENDBRANCH  13  16
ENDBRANCH   7   8
BRANCH   5  22
ATOM     22  N   UNL     1       8.031   9.181  17.401  0.00  0.00    +0.000 N 
ATOM     23  C   UNL     1       7.809   7.846  17.661  0.00  0.00    +0.000 C 
ATOM     24  O   UNL     1       8.255   7.210  18.608  0.00  0.00    +0.000 OA
ATOM     25  N   UNL     1       6.961   7.264  16.749  0.00  0.00    +0.000 N 
ATOM     26  H   UNL     1       7.821   9.508  16.470  0.00  0.00    +0.000 HD
ATOM     27  H   UNL     1       6.895   7.667  15.828  0.00  0.00    +0.000 HD
BRANCH  25  28
ATOM     28  C   UNL     1       6.620   5.864  16.894  0.00  0.00    +0.000 C 
BRANCH  28  29
ATOM     29  C   UNL     1       5.166   5.699  17.241  0.00  0.00    +0.000 A 
ATOM     30  C   UNL     1       4.600   4.415  17.308  0.00  0.00    +0.000 A 
ATOM     31  C   UNL     1       3.266   4.245  17.677  0.00  0.00    +0.000 A 
ATOM     32  C   UNL     1       2.482   5.357  17.981  0.00  0.00    +0.000 A 
ATOM     33  C   UNL     1       3.029   6.635  17.884  0.00  0.00    +0.000 A 
ATOM     34 CL   UNL     1       2.060   8.009  18.254  0.00  0.00    +0.000 Cl
ATOM     35  C   UNL     1       4.360   6.812  17.507  0.00  0.00    +0.000 A 
ENDBRANCH  28  29
ENDBRANCH  25  28
ENDBRANCH   5  22
TORSDOF 5
ENDMDL
MODEL 8
REMARK VINA RESULT:      -8.1      5.533      9.725
REMARK  Name = 
REMARK  6 active torsions:
REMARK  status: ('A' for Active; 'I' for Inactive)
REMARK    1  A    between atoms: C_1  and  C_2
REMARK    2  A    between atoms: C_5  and  N_6
REMARK    3  A    between atoms: N_9  and  C_10
REMARK    4  A    between atoms: C_10  and  C_11
REMARK    5  A    between atoms: C_19  and  N_20
REMARK    6  A    between atoms: C_25  and  C_26
REMARK                            x       y       z     vdW  Elec       q    Type
REMARK                         _______ _______ _______ _____ _____    ______ ____
ROOT
ATOM      1  C   UNL     1      -2.598  12.569  19.720  0.00  0.00    +0.000 C 
ATOM      2  C   UNL     1      -1.421  11.724  19.328  0.00  0.00    +0.000 A 
ATOM      3  C   UNL     1      -1.574  10.857  18.235  0.00  0.00    +0.000 A 
ATOM      4  C   UNL     1      -0.541  10.015  17.825  0.00  0.00    +0.000 A 
ATOM      5  C   UNL     1       0.683  10.029  18.482  0.00  0.00    +0.000 A 
ATOM      6  C   UNL     1       0.850  10.911  19.555  0.00  0.00    +0.000 A 
ATOM      7  C   UNL     1      -0.201  11.727  20.032  0.00  0.00    +0.000 A 
ENDROOT
BRANCH   7   8
ATOM      8  N   UNL     1      -0.043  12.480  21.211  0.00  0.00    +0.000 N 
ATOM      9  C   UNL     1       0.195  13.853  21.346  0.00  0.00    +0.000 A 
ATOM     10  N   UNL     1       0.340  14.337  22.585  0.00  0.00    +0.000 NA
ATOM     11  C   UNL     1       0.625  15.649  22.693  0.00  0.00    +0.000 A 
ATOM     12  C   UNL     1       0.813  16.486  21.616  0.00  0.00    +0.000 A 
ATOM     13  C   UNL     1       0.668  15.910  20.374  0.00  0.00    +0.000 A 
ATOM     14  N   UNL     1       0.339  14.612  20.252  0.00  0.00    +0.000 NA
ATOM     15  H   UNL     1       0.281  12.008  22.041  0.00  0.00    +0.000 HD
BRANCH  13  16
ATOM     16  C   UNL     1       0.885  16.604  19.093  0.00  0.00    +0.000 A 
ATOM     17  C   UNL     1      -0.136  17.223  18.359  0.00  0.00    +0.000 A 
ATOM     18  C   UNL     1       0.152  17.870  17.155  0.00  0.00    +0.000 A 
ATOM     19  C   UNL     1       1.459  17.881  16.703  0.00  0.00    +0.000 A 
ATOM     20  N   UNL     1       2.474  17.291  17.359  0.00  0.00    +0.000 NA
ATOM     21  C   UNL     1       2.165  16.675  18.529  0.00  0.00    +0.000 A 
ENDBRANCH  13  16
ENDBRANCH   7   8
BRANCH   5  22
ATOM     22  N   UNL     1       1.765   9.200  18.112  0.00  0.00    +0.000 N 
ATOM     23  C   UNL     1       2.208   8.105  18.822  0.00  0.00    +0.000 C 
ATOM     24  O   UNL     1       1.813   7.751  19.926  0.00  0.00    +0.000 OA
ATOM     25  N   UNL     1       3.145   7.373  18.133  0.00  0.00    +0.000 N 
ATOM     26  H   UNL     1       2.344   9.516  17.349  0.00  0.00    +0.000 HD
ATOM     27  H   UNL     1       3.698   7.838  17.431  0.00  0.00    +0.000 HD
BRANCH  25  28
ATOM     28  C   UNL     1       3.700   6.182  18.743  0.00  0.00    +0.000 C 
BRANCH  28  29
ATOM     29  C   UNL     1       4.884   5.681  17.961  0.00  0.00    +0.000 A 
ATOM     30  C   UNL     1       6.132   5.537  18.590  0.00  0.00    +0.000 A 
ATOM     31  C   UNL     1       7.225   5.026  17.890  0.00  0.00    +0.000 A 
ATOM     32  C   UNL     1       7.083   4.658  16.552  0.00  0.00    +0.000 A 
ATOM     33  C   UNL     1       5.856   4.830  15.915  0.00  0.00    +0.000 A 
ATOM     34 CL   UNL     1       5.682   4.380  14.263  0.00  0.00    +0.000 Cl
ATOM     35  C   UNL     1       4.761   5.348  16.607  0.00  0.00    +0.000 A 
ENDBRANCH  28  29
ENDBRANCH  25  28
ENDBRANCH   5  22
TORSDOF 5
ENDMDL
MODEL 9
REMARK VINA RESULT:      -8.1      3.661      7.737
REMARK  Name = 
REMARK  6 active torsions:
REMARK  status: ('A' for Active; 'I' for Inactive)
REMARK    1  A    between atoms: C_1  and  C_2
REMARK    2  A    between atoms: C_5  and  N_6
REMARK    3  A    between atoms: N_9  and  C_10
REMARK    4  A    between atoms: C_10  and  C_11
REMARK    5  A    between atoms: C_19  and  N_20
REMARK    6  A    between atoms: C_25  and  C_26
REMARK                            x       y       z     vdW  Elec       q    Type
REMARK                         _______ _______ _______ _____ _____    ______ ____
ROOT
ATOM      1  C   UNL     1       2.656   1.522  18.836  0.00  0.00    +0.000 C 
ATOM      2  C   UNL     1       2.539   2.991  19.124  0.00  0.00    +0.000 A 
ATOM      3  C   UNL     1       1.860   3.375  20.291  0.00  0.00    +0.000 A 
ATOM      4  C   UNL     1       1.679   4.719  20.617  0.00  0.00    +0.000 A 
ATOM      5  C   UNL     1       2.190   5.718  19.798  0.00  0.00    +0.000 A 
ATOM      6  C   UNL     1       2.892   5.340  18.648  0.00  0.00    +0.000 A 
ATOM      7  C   UNL     1       3.032   3.988  18.260  0.00  0.00    +0.000 A 
ENDROOT
BRANCH   7   8
ATOM      8  N   UNL     1       3.604   3.656  17.017  0.00  0.00    +0.000 N 
ATOM      9  C   UNL     1       4.804   4.110  16.457  0.00  0.00    +0.000 A 
ATOM     10  N   UNL     1       5.122   3.668  15.235  0.00  0.00    +0.000 NA
ATOM     11  C   UNL     1       6.251   4.161  14.688  0.00  0.00    +0.000 A 
ATOM     12  C   UNL     1       7.049   5.105  15.294  0.00  0.00    +0.000 A 
ATOM     13  C   UNL     1       6.644   5.525  16.541  0.00  0.00    +0.000 A 
ATOM     14  N   UNL     1       5.544   5.009  17.117  0.00  0.00    +0.000 NA
ATOM     15  H   UNL     1       2.993   3.346  16.277  0.00  0.00    +0.000 HD
BRANCH  13  16
ATOM     16  C   UNL     1       7.313   6.570  17.336  0.00  0.00    +0.000 A 
ATOM     17  C   UNL     1       7.380   7.917  16.955  0.00  0.00    +0.000 A 
ATOM     18  C   UNL     1       8.026   8.850  17.770  0.00  0.00    +0.000 A 
ATOM     19  C   UNL     1       8.599   8.416  18.950  0.00  0.00    +0.000 A 
ATOM     20  N   UNL     1       8.577   7.134  19.357  0.00  0.00    +0.000 NA
ATOM     21  C   UNL     1       7.938   6.252  18.548  0.00  0.00    +0.000 A 
ENDBRANCH  13  16
ENDBRANCH   7   8
BRANCH   5  22
ATOM     22  N   UNL     1       2.039   7.094  20.076  0.00  0.00    +0.000 N 
ATOM     23  C   UNL     1       1.884   8.086  19.131  0.00  0.00    +0.000 C 
ATOM     24  O   UNL     1       1.967   7.947  17.917  0.00  0.00    +0.000 OA
ATOM     25  N   UNL     1       1.563   9.300  19.689  0.00  0.00    +0.000 N 
ATOM     26  H   UNL     1       2.198   7.389  21.028  0.00  0.00    +0.000 HD
ATOM     27  H   UNL     1       1.839   9.482  20.641  0.00  0.00    +0.000 HD
BRANCH  25  28
ATOM     28  C   UNL     1       1.356  10.443  18.823  0.00  0.00    +0.000 C 
BRANCH  28  29
ATOM     29  C   UNL     1      -0.109  10.756  18.688  0.00  0.00    +0.000 A 
ATOM     30  C   UNL     1      -0.725  11.641  19.588  0.00  0.00    +0.000 A 
ATOM     31  C   UNL     1      -2.070  11.978  19.445  0.00  0.00    +0.000 A 
ATOM     32  C   UNL     1      -2.816  11.431  18.401  0.00  0.00    +0.000 A 
ATOM     33  C   UNL     1      -2.219  10.528  17.525  0.00  0.00    +0.000 A 
ATOM     34 CL   UNL     1      -3.140   9.848  16.239  0.00  0.00    +0.000 Cl
ATOM     35  C   UNL     1      -0.875  10.180  17.668  0.00  0.00    +0.000 A 
ENDBRANCH  28  29
ENDBRANCH  25  28
ENDBRANCH   5  22
TORSDOF 5
ENDMDL
