MODEL 1
REMARK VINA RESULT:      -7.3      0.000      0.000
REMARK  Name = 
REMARK  9 active torsions:
REMARK  status: ('A' for Active; 'I' for Inactive)
REMARK    1  A    between atoms: N_1  and  CA_2
REMARK    2  A    between atoms: CA_2  and  C_3
REMARK    3  A    between atoms: CA_2  and  C_6
REMARK    4  A    between atoms: C_3  and  OXT_5
REMARK    5  A    between atoms: C_6  and  C_7
REMARK    6  A    between atoms: C_6  and  C_17
REMARK    7  A    between atoms: C_7  and  C_8
REMARK    8  A    between atoms: C_12  and  N_13
REMARK    9  A    between atoms: C_17  and  O_19
REMARK                            x       y       z     vdW  Elec       q    Type
REMARK                         _______ _______ _______ _____ _____    ______ ____
ROOT
ATOM      1  C   UNL     1       5.944   5.842  16.661  0.00  0.00    +0.000 C 
ENDROOT
BRANCH   1   2
ATOM      2  C   UNL     1       6.964   6.617  17.464  0.00  0.00    +0.000 C 
ATOM      3  O   UNL     1       7.643   7.531  17.021  0.00  0.00    +0.000 OA
BRANCH   2   4
ATOM      4  O   UNL     1       7.048   6.233  18.757  0.00  0.00    +0.000 OA
ATOM      5  H   UNL     1       6.215   6.250  19.264  0.00  0.00    +0.000 HD
ENDBRANCH   2   4
ENDBRANCH   1   2
BRANCH   1   6
ATOM      6  CA  UNL     1       6.576   4.528  16.151  0.00  0.00    +0.000 C 
BRANCH   6   7
ATOM      7  N   UNL     1       7.845   4.188  16.888  0.00  0.00    +0.000 NA
ATOM      8  H1  UNL     1       8.540   3.858  16.206  0.00  0.00    +0.000 HD
ATOM      9  H2  UNL     1       7.678   3.387  17.508  0.00  0.00    +0.000 HD
ENDBRANCH   6   7
BRANCH   6  10
ATOM     10  C   UNL     1       6.972   4.551  14.654  0.00  0.00    +0.000 C 
ATOM     11  O   UNL     1       7.686   5.366  14.101  0.00  0.00    +0.000 OA
BRANCH  10  12
ATOM     12  OXT UNL     1       6.382   3.518  13.993  0.00  0.00    +0.000 OA
ATOM     13  HXT UNL     1       6.551   3.667  13.028  0.00  0.00    +0.000 HD
ENDBRANCH  10  12
ENDBRANCH   6  10
ENDBRANCH   1   6
BRANCH   1  14
ATOM     14  C   UNL     1       4.652   5.735  17.496  0.00  0.00    +0.000 C 
BRANCH  14  15
ATOM     15  C   UNL     1       4.117   4.376  17.896  0.00  0.00    +0.000 A 
ATOM     16  C   UNL     1       3.149   3.727  17.115  0.00  0.00    +0.000 A 
ATOM     17  C   UNL     1       2.504   2.575  17.574  0.00  0.00    +0.000 A 
ATOM     18  C   UNL     1       2.801   2.058  18.834  0.00  0.00    +0.000 A 
ATOM     19  C   UNL     1       3.780   2.684  19.614  0.00  0.00    +0.000 A 
ATOM     20  C   UNL     1       4.458   3.820  19.140  0.00  0.00    +0.000 A 
BRANCH  19  21
ATOM     21  N   UNL     1       4.036   2.198  20.976  0.00  0.00    +0.000 N 
ATOM     22  O   UNL     1       5.126   1.651  21.199  0.00  0.00    +0.000 OA
ATOM     23  O   UNL     1       3.138   2.339  21.819  0.00  0.00    +0.000 OA
ENDBRANCH  19  21
ENDBRANCH  14  15
ENDBRANCH   1  14
TORSDOF 9
ENDMDL
MODEL 2
REMARK VINA RESULT:      -7.3      0.226      1.051
REMARK  Name = 
REMARK  9 active torsions:
REMARK  status: ('A' for Active; 'I' for Inactive)
REMARK    1  A    between atoms: N_1  and  CA_2
REMARK    2  A    between atoms: CA_2  and  C_3
REMARK    3  A    between atoms: CA_2  and  C_6
REMARK    4  A    between atoms: C_3  and  OXT_5
REMARK    5  A    between atoms: C_6  and  C_7
REMARK    6  A    between atoms: C_6  and  C_17
REMARK    7  A    between atoms: C_7  and  C_8
REMARK    8  A    between atoms: C_12  and  N_13
REMARK    9  A    between atoms: C_17  and  O_19
REMARK                            x       y       z     vdW  Elec       q    Type
REMARK                         _______ _______ _______ _____ _____    ______ ____
ROOT
ATOM      1  C   UNL     1       6.033   5.895  16.734  0.00  0.00    +0.000 C 
ENDROOT
BRANCH   1   2
ATOM      2  C   UNL     1       7.134   6.602  17.491  0.00  0.00    +0.000 C 
ATOM      3  O   UNL     1       7.366   6.445  18.680  0.00  0.00    +0.000 OA
BRANCH   2   4
ATOM      4  O   UNL     1       7.885   7.423  16.724  0.00  0.00    +0.000 OA
ATOM      5  H   UNL     1       8.334   8.153  17.190  0.00  0.00    +0.000 HD
ENDBRANCH   2   4
ENDBRANCH   1   2
BRANCH   1   6
ATOM      6  CA  UNL     1       6.561   4.549  16.188  0.00  0.00    +0.000 C 
BRANCH   6   7
ATOM      7  N   UNL     1       7.880   4.167  16.807  0.00  0.00    +0.000 NA
ATOM      8  H1  UNL     1       8.605   4.205  16.079  0.00  0.00    +0.000 HD
ATOM      9  H2  UNL     1       7.850   3.185  17.103  0.00  0.00    +0.000 HD
ENDBRANCH   6   7
BRANCH   6  10
ATOM     10  C   UNL     1       6.813   4.537  14.660  0.00  0.00    +0.000 C 
ATOM     11  O   UNL     1       6.295   3.800  13.842  0.00  0.00    +0.000 OA
BRANCH  10  12
ATOM     12  OXT UNL     1       7.741   5.474  14.327  0.00  0.00    +0.000 OA
ATOM     13  HXT UNL     1       8.507   5.344  14.942  0.00  0.00    +0.000 HD
ENDBRANCH  10  12
ENDBRANCH   6  10
ENDBRANCH   1   6
BRANCH   1  14
ATOM     14  C   UNL     1       4.778   5.858  17.629  0.00  0.00    +0.000 C 
BRANCH  14  15
ATOM     15  C   UNL     1       4.147   4.532  17.997  0.00  0.00    +0.000 A 
ATOM     16  C   UNL     1       3.098   3.998  17.232  0.00  0.00    +0.000 A 
ATOM     17  C   UNL     1       2.378   2.883  17.673  0.00  0.00    +0.000 A 
ATOM     18  C   UNL     1       2.679   2.292  18.898  0.00  0.00    +0.000 A 
ATOM     19  C   UNL     1       3.735   2.801  19.661  0.00  0.00    +0.000 A 
ATOM     20  C   UNL     1       4.487   3.897  19.203  0.00  0.00    +0.000 A 
BRANCH  19  21
ATOM     21  N   UNL     1       4.002   2.239  20.991  0.00  0.00    +0.000 N 
ATOM     22  O   UNL     1       5.094   1.682  21.174  0.00  0.00    +0.000 OA
ATOM     23  O   UNL     1       3.110   2.332  21.848  0.00  0.00    +0.000 OA
ENDBRANCH  19  21
ENDBRANCH  14  15
ENDBRANCH   1  14
TORSDOF 9
ENDMDL
MODEL 3
REMARK VINA RESULT:      -7.2      0.157      1.028
REMARK  Name = 
REMARK  9 active torsions:
REMARK  status: ('A' for Active; 'I' for Inactive)
REMARK    1  A    between atoms: N_1  and  CA_2
REMARK    2  A    between atoms: CA_2  and  C_3
REMARK    3  A    between atoms: CA_2  and  C_6
REMARK    4  A    between atoms: C_3  and  OXT_5
REMARK    5  A    between atoms: C_6  and  C_7
REMARK    6  A    between atoms: C_6  and  C_17
REMARK    7  A    between atoms: C_7  and  C_8
REMARK    8  A    between atoms: C_12  and  N_13
REMARK    9  A    between atoms: C_17  and  O_19
REMARK                            x       y       z     vdW  Elec       q    Type
REMARK                         _______ _______ _______ _____ _____    ______ ____
ROOT
ATOM      1  C   UNL     1       5.842   5.803  16.574  0.00  0.00    +0.000 C 
ENDROOT
BRANCH   1   2
ATOM      2  C   UNL     1       6.883   6.588  17.339  0.00  0.00    +0.000 C 
ATOM      3  O   UNL     1       7.624   7.421  16.841  0.00  0.00    +0.000 OA
BRANCH   2   4
ATOM      4  O   UNL     1       6.910   6.314  18.663  0.00  0.00    +0.000 OA
ATOM      5  H   UNL     1       6.132   6.601  19.176  0.00  0.00    +0.000 HD
ENDBRANCH   2   4
ENDBRANCH   1   2
BRANCH   1   6
ATOM      6  CA  UNL     1       6.464   4.489  16.050  0.00  0.00    +0.000 C 
BRANCH   6   7
ATOM      7  N   UNL     1       7.759   4.161  16.747  0.00  0.00    +0.000 NA
ATOM      8  H1  UNL     1       7.798   4.686  17.629  0.00  0.00    +0.000 HD
ATOM      9  H2  UNL     1       8.547   4.512  16.192  0.00  0.00    +0.000 HD
ENDBRANCH   6   7
BRANCH   6  10
ATOM     10  C   UNL     1       6.811   4.507  14.541  0.00  0.00    +0.000 C 
ATOM     11  O   UNL     1       6.372   3.764  13.684  0.00  0.00    +0.000 OA
BRANCH  10  12
ATOM     12  OXT UNL     1       7.725   5.480  14.277  0.00  0.00    +0.000 OA
ATOM     13  HXT UNL     1       8.254   5.167  13.500  0.00  0.00    +0.000 HD
ENDBRANCH  10  12
ENDBRANCH   6  10
ENDBRANCH   1   6
BRANCH   1  14
ATOM     14  C   UNL     1       4.578   5.693  17.451  0.00  0.00    +0.000 C 
BRANCH  14  15
ATOM     15  C   UNL     1       4.057   4.332  17.864  0.00  0.00    +0.000 A 
ATOM     16  C   UNL     1       3.070   3.682  17.108  0.00  0.00    +0.000 A 
ATOM     17  C   UNL     1       2.440   2.527  17.584  0.00  0.00    +0.000 A 
ATOM     18  C   UNL     1       2.772   2.011  18.835  0.00  0.00    +0.000 A 
ATOM     19  C   UNL     1       3.769   2.638  19.589  0.00  0.00    +0.000 A 
ATOM     20  C   UNL     1       4.432   3.776  19.098  0.00  0.00    +0.000 A 
BRANCH  19  21
ATOM     21  N   UNL     1       4.062   2.153  20.944  0.00  0.00    +0.000 N 
ATOM     22  O   UNL     1       3.190   2.301  21.812  0.00  0.00    +0.000 OA
ATOM     23  O   UNL     1       5.175   1.645  21.149  0.00  0.00    +0.000 OA
ENDBRANCH  19  21
ENDBRANCH  14  15
ENDBRANCH   1  14
TORSDOF 9
ENDMDL
MODEL 4
REMARK VINA RESULT:      -7.2      2.177      5.689
REMARK  Name = 
REMARK  9 active torsions:
REMARK  status: ('A' for Active; 'I' for Inactive)
REMARK    1  A    between atoms: N_1  and  CA_2
REMARK    2  A    between atoms: CA_2  and  C_3
REMARK    3  A    between atoms: CA_2  and  C_6
REMARK    4  A    between atoms: C_3  and  OXT_5
REMARK    5  A    between atoms: C_6  and  C_7
REMARK    6  A    between atoms: C_6  and  C_17
REMARK    7  A    between atoms: C_7  and  C_8
REMARK    8  A    between atoms: C_12  and  N_13
REMARK    9  A    between atoms: C_17  and  O_19
REMARK                            x       y       z     vdW  Elec       q    Type
REMARK                         _______ _______ _______ _____ _____    ______ ____
ROOT
ATOM      1  C   UNL     1       2.767   3.589  20.288  0.00  0.00    +0.000 C 
ENDROOT
BRANCH   1   2
ATOM      2  C   UNL     1       1.493   3.264  21.034  0.00  0.00    +0.000 C 
ATOM      3  O   UNL     1       1.441   2.594  22.053  0.00  0.00    +0.000 OA
BRANCH   2   4
ATOM      4  O   UNL     1       0.385   3.816  20.489  0.00  0.00    +0.000 OA
ATOM      5  H   UNL     1      -0.417   3.804  21.044  0.00  0.00    +0.000 HD
ENDBRANCH   2   4
ENDBRANCH   1   2
BRANCH   1   6
ATOM      6  CA  UNL     1       2.965   2.580  19.135  0.00  0.00    +0.000 C 
BRANCH   6   7
ATOM      7  N   UNL     1       1.769   1.681  18.959  0.00  0.00    +0.000 NA
ATOM      8  H1  UNL     1       0.926   2.202  19.234  0.00  0.00    +0.000 HD
ATOM      9  H2  UNL     1       1.826   0.898  19.620  0.00  0.00    +0.000 HD
ENDBRANCH   6   7
BRANCH   6  10
ATOM     10  C   UNL     1       4.165   1.620  19.328  0.00  0.00    +0.000 C 
ATOM     11  O   UNL     1       5.031   1.698  20.179  0.00  0.00    +0.000 OA
BRANCH  10  12
ATOM     12  OXT UNL     1       4.150   0.647  18.377  0.00  0.00    +0.000 OA
ATOM     13  HXT UNL     1       3.612  -0.100  18.745  0.00  0.00    +0.000 HD
ENDBRANCH  10  12
ENDBRANCH   6  10
ENDBRANCH   1   6
BRANCH   1  14
ATOM     14  C   UNL     1       2.747   5.088  19.927  0.00  0.00    +0.000 C 
BRANCH  14  15
ATOM     15  C   UNL     1       3.832   5.671  19.046  0.00  0.00    +0.000 A 
ATOM     16  C   UNL     1       3.507   6.487  17.951  0.00  0.00    +0.000 A 
ATOM     17  C   UNL     1       4.477   6.864  17.017  0.00  0.00    +0.000 A 
ATOM     18  C   UNL     1       5.790   6.415  17.149  0.00  0.00    +0.000 A 
ATOM     19  C   UNL     1       6.132   5.618  18.247  0.00  0.00    +0.000 A 
ATOM     20  C   UNL     1       5.168   5.270  19.209  0.00  0.00    +0.000 A 
BRANCH  19  21
ATOM     21  N   UNL     1       7.491   5.070  18.346  0.00  0.00    +0.000 N 
ATOM     22  O   UNL     1       7.935   4.447  17.371  0.00  0.00    +0.000 OA
ATOM     23  O   UNL     1       8.107   5.240  19.409  0.00  0.00    +0.000 OA
ENDBRANCH  19  21
ENDBRANCH  14  15
ENDBRANCH   1  14
TORSDOF 9
ENDMDL
MODEL 5
REMARK VINA RESULT:      -7.1      1.925      6.105
REMARK  Name = 
REMARK  9 active torsions:
REMARK  status: ('A' for Active; 'I' for Inactive)
REMARK    1  A    between atoms: N_1  and  CA_2
REMARK    2  A    between atoms: CA_2  and  C_3
REMARK    3  A    between atoms: CA_2  and  C_6
REMARK    4  A    between atoms: C_3  and  OXT_5
REMARK    5  A    between atoms: C_6  and  C_7
REMARK    6  A    between atoms: C_6  and  C_17
REMARK    7  A    between atoms: C_7  and  C_8
REMARK    8  A    between atoms: C_12  and  N_13
REMARK    9  A    between atoms: C_17  and  O_19
REMARK                            x       y       z     vdW  Elec       q    Type
REMARK                         _______ _______ _______ _____ _____    ______ ____
ROOT
ATOM      1  C   UNL     1       2.900   2.625  19.374  0.00  0.00    +0.000 C 
ENDROOT
BRANCH   1   2
ATOM      2  C   UNL     1       4.131   1.748  19.421  0.00  0.00    +0.000 C 
ATOM      3  O   UNL     1       5.011   1.837  20.264  0.00  0.00    +0.000 OA
BRANCH   2   4
ATOM      4  O   UNL     1       4.170   0.808  18.450  0.00  0.00    +0.000 OA
ATOM      5  H   UNL     1       4.968   0.803  17.890  0.00  0.00    +0.000 HD
ENDBRANCH   2   4
ENDBRANCH   1   2
BRANCH   1   6
ATOM      6  CA  UNL     1       2.836   3.497  20.647  0.00  0.00    +0.000 C 
BRANCH   6   7
ATOM      7  N   UNL     1       2.650   2.668  21.891  0.00  0.00    +0.000 NA
ATOM      8  H1  UNL     1       1.914   3.100  22.464  0.00  0.00    +0.000 HD
ATOM      9  H2  UNL     1       3.498   2.716  22.466  0.00  0.00    +0.000 HD
ENDBRANCH   6   7
BRANCH   6  10
ATOM     10  C   UNL     1       1.670   4.516  20.663  0.00  0.00    +0.000 C 
ATOM     11  O   UNL     1       0.509   4.299  20.372  0.00  0.00    +0.000 OA
BRANCH  10  12
ATOM     12  OXT UNL     1       2.120   5.745  21.036  0.00  0.00    +0.000 OA
ATOM     13  HXT UNL     1       3.032   5.613  21.400  0.00  0.00    +0.000 HD
ENDBRANCH  10  12
ENDBRANCH   6  10
ENDBRANCH   1   6
BRANCH   1  14
ATOM     14  C   UNL     1       2.875   3.348  18.012  0.00  0.00    +0.000 C 
BRANCH  14  15
ATOM     15  C   UNL     1       3.832   4.490  17.741  0.00  0.00    +0.000 A 
ATOM     16  C   UNL     1       3.389   5.821  17.772  0.00  0.00    +0.000 A 
ATOM     17  C   UNL     1       4.207   6.865  17.329  0.00  0.00    +0.000 A 
ATOM     18  C   UNL     1       5.480   6.596  16.828  0.00  0.00    +0.000 A 
ATOM     19  C   UNL     1       5.941   5.276  16.812  0.00  0.00    +0.000 A 
ATOM     20  C   UNL     1       5.137   4.228  17.292  0.00  0.00    +0.000 A 
BRANCH  19  21
ATOM     21  N   UNL     1       7.245   4.974  16.206  0.00  0.00    +0.000 N 
ATOM     22  O   UNL     1       8.011   4.223  16.827  0.00  0.00    +0.000 OA
ATOM     23  O   UNL     1       7.515   5.508  15.120  0.00  0.00    +0.000 OA
ENDBRANCH  19  21
ENDBRANCH  14  15
ENDBRANCH   1  14
TORSDOF 9
ENDMDL
MODEL 6
REMARK VINA RESULT:      -7.0      2.569      3.542
REMARK  Name = 
REMARK  9 active torsions:
REMARK  status: ('A' for Active; 'I' for Inactive)
REMARK    1  A    between atoms: N_1  and  CA_2
REMARK    2  A    between atoms: CA_2  and  C_3
REMARK    3  A    between atoms: CA_2  and  C_6
REMARK    4  A    between atoms: C_3  and  OXT_5
REMARK    5  A    between atoms: C_6  and  C_7
REMARK    6  A    between atoms: C_6  and  C_17
REMARK    7  A    between atoms: C_7  and  C_8
REMARK    8  A    between atoms: C_12  and  N_13
REMARK    9  A    between atoms: C_17  and  O_19
REMARK                            x       y       z     vdW  Elec       q    Type
REMARK                         _______ _______ _______ _____ _____    ______ ____
ROOT
ATOM      1  C   UNL     1       5.471   5.960  17.270  0.00  0.00    +0.000 C 
ENDROOT
BRANCH   1   2
ATOM      2  C   UNL     1       5.602   5.903  15.765  0.00  0.00    +0.000 C 
ATOM      3  O   UNL     1       6.143   4.994  15.153  0.00  0.00    +0.000 OA
BRANCH   2   4
ATOM      4  O   UNL     1       5.030   6.948  15.126  0.00  0.00    +0.000 OA
ATOM      5  H   UNL     1       4.058   7.007  15.186  0.00  0.00    +0.000 HD
ENDBRANCH   2   4
ENDBRANCH   1   2
BRANCH   1   6
ATOM      6  CA  UNL     1       6.770   6.529  17.883  0.00  0.00    +0.000 C 
BRANCH   6   7
ATOM      7  N   UNL     1       7.638   7.196  16.848  0.00  0.00    +0.000 NA
ATOM      8  H1  UNL     1       7.093   7.941  16.396  0.00  0.00    +0.000 HD
ATOM      9  H2  UNL     1       7.853   6.530  16.098  0.00  0.00    +0.000 HD
ENDBRANCH   6   7
BRANCH   6  10
ATOM     10  C   UNL     1       7.679   5.466  18.547  0.00  0.00    +0.000 C 
ATOM     11  O   UNL     1       7.896   4.338  18.145  0.00  0.00    +0.000 OA
BRANCH  10  12
ATOM     12  OXT UNL     1       8.215   5.955  19.698  0.00  0.00    +0.000 OA
ATOM     13  HXT UNL     1       7.606   6.670  20.012  0.00  0.00    +0.000 HD
ENDBRANCH  10  12
ENDBRANCH   6  10
ENDBRANCH   1   6
BRANCH   1  14
ATOM     14  C   UNL     1       4.148   6.676  17.612  0.00  0.00    +0.000 C 
BRANCH  14  15
ATOM     15  C   UNL     1       3.069   5.947  18.385  0.00  0.00    +0.000 A 
ATOM     16  C   UNL     1       2.648   6.411  19.641  0.00  0.00    +0.000 A 
ATOM     17  C   UNL     1       1.804   5.643  20.449  0.00  0.00    +0.000 A 
ATOM     18  C   UNL     1       1.380   4.385  20.025  0.00  0.00    +0.000 A 
ATOM     19  C   UNL     1       1.776   3.919  18.767  0.00  0.00    +0.000 A 
ATOM     20  C   UNL     1       2.593   4.705  17.935  0.00  0.00    +0.000 A 
BRANCH  19  21
ATOM     21  N   UNL     1       1.407   2.560  18.351  0.00  0.00    +0.000 N 
ATOM     22  O   UNL     1       2.253   1.894  17.737  0.00  0.00    +0.000 OA
ATOM     23  O   UNL     1       0.261   2.166  18.613  0.00  0.00    +0.000 OA
ENDBRANCH  19  21
ENDBRANCH  14  15
ENDBRANCH   1  14
TORSDOF 9
ENDMDL
MODEL 7
REMARK VINA RESULT:      -6.9      1.422      2.963
REMARK  Name = 
REMARK  9 active torsions:
REMARK  status: ('A' for Active; 'I' for Inactive)
REMARK    1  A    between atoms: N_1  and  CA_2
REMARK    2  A    between atoms: CA_2  and  C_3
REMARK    3  A    between atoms: CA_2  and  C_6
REMARK    4  A    between atoms: C_3  and  OXT_5
REMARK    5  A    between atoms: C_6  and  C_7
REMARK    6  A    between atoms: C_6  and  C_17
REMARK    7  A    between atoms: C_7  and  C_8
REMARK    8  A    between atoms: C_12  and  N_13
REMARK    9  A    between atoms: C_17  and  O_19
REMARK                            x       y       z     vdW  Elec       q    Type
REMARK                         _______ _______ _______ _____ _____    ______ ____
ROOT
ATOM      1  C   UNL     1       5.925   4.873  16.981  0.00  0.00    +0.000 C 
ENDROOT
BRANCH   1   2
ATOM      2  C   UNL     1       6.747   5.020  15.720  0.00  0.00    +0.000 C 
ATOM      3  O   UNL     1       7.905   4.650  15.603  0.00  0.00    +0.000 OA
BRANCH   2   4
ATOM      4  O   UNL     1       6.072   5.581  14.691  0.00  0.00    +0.000 OA
ATOM      5  H   UNL     1       6.590   6.166  14.108  0.00  0.00    +0.000 HD
ENDBRANCH   2   4
ENDBRANCH   1   2
BRANCH   1   6
ATOM      6  CA  UNL     1       6.148   6.101  17.892  0.00  0.00    +0.000 C 
BRANCH   6   7
ATOM      7  N   UNL     1       6.701   7.276  17.129  0.00  0.00    +0.000 NA
ATOM      8  H1  UNL     1       6.728   8.089  17.758  0.00  0.00    +0.000 HD
ATOM      9  H2  UNL     1       6.049   7.538  16.381  0.00  0.00    +0.000 HD
ENDBRANCH   6   7
BRANCH   6  10
ATOM     10  C   UNL     1       7.150   5.862  19.048  0.00  0.00    +0.000 C 
ATOM     11  O   UNL     1       7.023   5.083  19.973  0.00  0.00    +0.000 OA
BRANCH  10  12
ATOM     12  OXT UNL     1       8.229   6.681  18.915  0.00  0.00    +0.000 OA
ATOM     13  HXT UNL     1       8.298   6.902  17.952  0.00  0.00    +0.000 HD
ENDBRANCH  10  12
ENDBRANCH   6  10
ENDBRANCH   1   6
BRANCH   1  14
ATOM     14  C   UNL     1       4.475   4.538  16.576  0.00  0.00    +0.000 C 
BRANCH  14  15
ATOM     15  C   UNL     1       3.532   3.913  17.582  0.00  0.00    +0.000 A 
ATOM     16  C   UNL     1       2.148   4.129  17.500  0.00  0.00    +0.000 A 
ATOM     17  C   UNL     1       1.291   3.727  18.530  0.00  0.00    +0.000 A 
ATOM     18  C   UNL     1       1.806   3.117  19.673  0.00  0.00    +0.000 A 
ATOM     19  C   UNL     1       3.181   2.877  19.758  0.00  0.00    +0.000 A 
ATOM     20  C   UNL     1       4.040   3.244  18.708  0.00  0.00    +0.000 A 
BRANCH  19  21
ATOM     21  N   UNL     1       3.741   2.315  20.995  0.00  0.00    +0.000 N 
ATOM     22  O   UNL     1       3.021   2.310  22.004  0.00  0.00    +0.000 OA
ATOM     23  O   UNL     1       4.910   1.902  20.965  0.00  0.00    +0.000 OA
ENDBRANCH  19  21
ENDBRANCH  14  15
ENDBRANCH   1  14
TORSDOF 9
ENDMDL
MODEL 8
REMARK VINA RESULT:      -6.9      1.474      2.663
REMARK  Name = 
REMARK  9 active torsions:
REMARK  status: ('A' for Active; 'I' for Inactive)
REMARK    1  A    between atoms: N_1  and  CA_2
REMARK    2  A    between atoms: CA_2  and  C_3
REMARK    3  A    between atoms: CA_2  and  C_6
REMARK    4  A    between atoms: C_3  and  OXT_5
REMARK    5  A    between atoms: C_6  and  C_7
REMARK    6  A    between atoms: C_6  and  C_17
REMARK    7  A    between atoms: C_7  and  C_8
REMARK    8  A    between atoms: C_12  and  N_13
REMARK    9  A    between atoms: C_17  and  O_19
REMARK                            x       y       z     vdW  Elec       q    Type
REMARK                         _______ _______ _______ _____ _____    ______ ____
ROOT
ATOM      1  C   UNL     1       5.863   4.913  16.842  0.00  0.00    +0.000 C 
ENDROOT
BRANCH   1   2
ATOM      2  C   UNL     1       6.517   5.144  15.499  0.00  0.00    +0.000 C 
ATOM      3  O   UNL     1       5.988   5.727  14.564  0.00  0.00    +0.000 OA
BRANCH   2   4
ATOM      4  O   UNL     1       7.780   4.670  15.418  0.00  0.00    +0.000 OA
ATOM      5  H   UNL     1       8.341   4.808  16.204  0.00  0.00    +0.000 HD
ENDBRANCH   2   4
ENDBRANCH   1   2
BRANCH   1   6
ATOM      6  CA  UNL     1       6.441   5.904  17.878  0.00  0.00    +0.000 C 
BRANCH   6   7
ATOM      7  N   UNL     1       7.254   6.992  17.226  0.00  0.00    +0.000 NA
ATOM      8  H1  UNL     1       6.677   7.841  17.170  0.00  0.00    +0.000 HD
ATOM      9  H2  UNL     1       7.450   6.738  16.251  0.00  0.00    +0.000 HD
ENDBRANCH   6   7
BRANCH   6  10
ATOM     10  C   UNL     1       7.392   5.257  18.915  0.00  0.00    +0.000 C 
ATOM     11  O   UNL     1       7.509   5.563  20.087  0.00  0.00    +0.000 OA
BRANCH  10  12
ATOM     12  OXT UNL     1       8.132   4.276  18.331  0.00  0.00    +0.000 OA
ATOM     13  HXT UNL     1       8.458   4.642  17.470  0.00  0.00    +0.000 HD
ENDBRANCH  10  12
ENDBRANCH   6  10
ENDBRANCH   1   6
BRANCH   1  14
ATOM     14  C   UNL     1       4.334   4.905  16.640  0.00  0.00    +0.000 C 
BRANCH  14  15
ATOM     15  C   UNL     1       3.449   4.114  17.580  0.00  0.00    +0.000 A 
ATOM     16  C   UNL     1       2.051   4.189  17.484  0.00  0.00    +0.000 A 
ATOM     17  C   UNL     1       1.228   3.627  18.465  0.00  0.00    +0.000 A 
ATOM     18  C   UNL     1       1.788   2.995  19.574  0.00  0.00    +0.000 A 
ATOM     19  C   UNL     1       3.180   2.895  19.672  0.00  0.00    +0.000 A 
ATOM     20  C   UNL     1       4.010   3.424  18.668  0.00  0.00    +0.000 A 
BRANCH  19  21
ATOM     21  N   UNL     1       3.779   2.309  20.878  0.00  0.00    +0.000 N 
ATOM     22  O   UNL     1       4.924   1.845  20.786  0.00  0.00    +0.000 OA
ATOM     23  O   UNL     1       3.094   2.289  21.912  0.00  0.00    +0.000 OA
ENDBRANCH  19  21
ENDBRANCH  14  15
ENDBRANCH   1  14
TORSDOF 9
ENDMDL
MODEL 9
REMARK VINA RESULT:      -6.9      2.637      6.131
REMARK  Name = 
REMARK  9 active torsions:
REMARK  status: ('A' for Active; 'I' for Inactive)
REMARK    1  A    between atoms: N_1  and  CA_2
REMARK    2  A    between atoms: CA_2  and  C_3
REMARK    3  A    between atoms: CA_2  and  C_6
REMARK    4  A    between atoms: C_3  and  OXT_5
REMARK    5  A    between atoms: C_6  and  C_7
REMARK    6  A    between atoms: C_6  and  C_17
REMARK    7  A    between atoms: C_7  and  C_8
REMARK    8  A    between atoms: C_12  and  N_13
REMARK    9  A    between atoms: C_17  and  O_19
REMARK                            x       y       z     vdW  Elec       q    Type
REMARK                         _______ _______ _______ _____ _____    ______ ____
ROOT
ATOM      1  C   UNL     1       6.083   4.473  17.160  0.00  0.00    +0.000 C 
ENDROOT
BRANCH   1   2
ATOM      2  C   UNL     1       7.472   4.984  17.469  0.00  0.00    +0.000 C 
ATOM      3  O   UNL     1       7.790   6.163  17.467  0.00  0.00    +0.000 OA
BRANCH   2   4
ATOM      4  O   UNL     1       8.354   4.010  17.789  0.00  0.00    +0.000 OA
ATOM      5  H   UNL     1       8.553   3.907  18.738  0.00  0.00    +0.000 HD
ENDBRANCH   2   4
ENDBRANCH   1   2
BRANCH   1   6
ATOM      6  CA  UNL     1       5.176   4.655  18.398  0.00  0.00    +0.000 C 
BRANCH   6   7
ATOM      7  N   UNL     1       5.963   5.040  19.624  0.00  0.00    +0.000 NA
ATOM      8  H1  UNL     1       6.324   4.183  20.062  0.00  0.00    +0.000 HD
ATOM      9  H2  UNL     1       5.334   5.453  20.321  0.00  0.00    +0.000 HD
ENDBRANCH   6   7
BRANCH   6  10
ATOM     10  C   UNL     1       4.392   3.383  18.806  0.00  0.00    +0.000 C 
ATOM     11  O   UNL     1       3.259   3.088  18.475  0.00  0.00    +0.000 OA
BRANCH  10  12
ATOM     12  OXT UNL     1       5.145   2.609  19.634  0.00  0.00    +0.000 OA
ATOM     13  HXT UNL     1       6.041   2.538  19.217  0.00  0.00    +0.000 HD
ENDBRANCH  10  12
ENDBRANCH   6  10
ENDBRANCH   1   6
BRANCH   1  14
ATOM     14  C   UNL     1       5.617   5.110  15.836  0.00  0.00    +0.000 C 
BRANCH  14  15
ATOM     15  C   UNL     1       6.222   4.658  14.523  0.00  0.00    +0.000 A 
ATOM     16  C   UNL     1       7.339   5.314  13.984  0.00  0.00    +0.000 A 
ATOM     17  C   UNL     1       7.781   5.040  12.685  0.00  0.00    +0.000 A 
ATOM     18  C   UNL     1       7.101   4.118  11.892  0.00  0.00    +0.000 A 
ATOM     19  C   UNL     1       5.998   3.442  12.425  0.00  0.00    +0.000 A 
ATOM     20  C   UNL     1       5.574   3.686  13.743  0.00  0.00    +0.000 A 
BRANCH  19  21
ATOM     21  N   UNL     1       5.224   2.535  11.567  0.00  0.00    +0.000 N 
ATOM     22  O   UNL     1       4.107   2.914  11.184  0.00  0.00    +0.000 OA
ATOM     23  O   UNL     1       5.719   1.431  11.297  0.00  0.00    +0.000 OA
ENDBRANCH  19  21
ENDBRANCH  14  15
ENDBRANCH   1  14
TORSDOF 9
ENDMDL
