MODEL 1
REMARK VINA RESULT:      -6.7      0.000      0.000
REMARK  Name = 
REMARK  7 active torsions:
REMARK  status: ('A' for Active; 'I' for Inactive)
REMARK    1  A    between atoms: C_2  and  O_3
REMARK    2  A    between atoms: C_2  and  C_4
REMARK    3  A    between atoms: C_4  and  C_5
REMARK    4  A    between atoms: C_5  and  C_6
REMARK    5  A    between atoms: C_6  and  C_7
REMARK    6  A    between atoms: C_7  and  C_8
REMARK    7  A    between atoms: C_8  and  N_9
REMARK                            x       y       z     vdW  Elec       q    Type
REMARK                         _______ _______ _______ _____ _____    ______ ____
ROOT
ATOM      1  N   UNL     1       4.261   2.430  18.721  0.00  0.00    +0.000 N 
ATOM      2  C   UNL     1       4.854   3.578  18.234  0.00  0.00    +0.000 C 
ATOM      3  N   UNL     1       5.848   4.118  18.871  0.00  0.00    +0.000 NA
ATOM      4  C   UNL     1       6.449   5.287  18.411  0.00  0.00    +0.000 A 
ATOM      5  C   UNL     1       7.520   5.794  19.155  0.00  0.00    +0.000 A 
ATOM      6  C   UNL     1       8.160   6.975  18.782  0.00  0.00    +0.000 A 
ATOM      7  C   UNL     1       7.730   7.662  17.651  0.00  0.00    +0.000 A 
ATOM      8  C   UNL     1       6.665   7.164  16.899  0.00  0.00    +0.000 A 
ATOM      9  C   UNL     1       6.020   5.974  17.274  0.00  0.00    +0.000 A 
ATOM     10  C   UNL     1       4.868   5.462  16.471  0.00  0.00    +0.000 C 
ATOM     11  C   UNL     1       4.285   4.137  16.944  0.00  0.00    +0.000 C 
ATOM     12  H   UNL     1       3.379   2.168  18.296  0.00  0.00    +0.000 HD
ENDROOT
BRANCH   1  13
ATOM     13  C   UNL     1       4.360   2.101  20.138  0.00  0.00    +0.000 C 
BRANCH  13  14
ATOM     14  C   UNL     1       3.190   2.686  20.932  0.00  0.00    +0.000 C 
BRANCH  14  15
ATOM     15  C   UNL     1       1.860   2.777  20.166  0.00  0.00    +0.000 C 
BRANCH  15  16
ATOM     16  C   UNL     1       1.236   4.180  20.203  0.00  0.00    +0.000 C 
BRANCH  16  17
ATOM     17  C   UNL     1       1.559   5.055  18.996  0.00  0.00    +0.000 C 
BRANCH  17  19
ATOM     18  O   UNL     1       2.401   7.325  18.767  0.00  0.00    +0.000 OA
ATOM     19  C   UNL     1       2.476   6.219  19.275  0.00  0.00    +0.000 C 
BRANCH  19  20
ATOM     20  O   UNL     1       3.432   5.906  20.188  0.00  0.00    +0.000 OA
ATOM     21  H   UNL     1       4.027   5.190  19.900  0.00  0.00    +0.000 HD
ENDBRANCH  19  20
ENDBRANCH  17  19
ENDBRANCH  16  17
ENDBRANCH  15  16
ENDBRANCH  14  15
ENDBRANCH  13  14
ENDBRANCH   1  13
TORSDOF 7
ENDMDL
MODEL 2
REMARK VINA RESULT:      -6.3      3.425      5.511
REMARK  Name = 
REMARK  7 active torsions:
REMARK  status: ('A' for Active; 'I' for Inactive)
REMARK    1  A    between atoms: C_2  and  O_3
REMARK    2  A    between atoms: C_2  and  C_4
REMARK    3  A    between atoms: C_4  and  C_5
REMARK    4  A    between atoms: C_5  and  C_6
REMARK    5  A    between atoms: C_6  and  C_7
REMARK    6  A    between atoms: C_7  and  C_8
REMARK    7  A    between atoms: C_8  and  N_9
REMARK                            x       y       z     vdW  Elec       q    Type
REMARK                         _______ _______ _______ _____ _____    ______ ____
ROOT
ATOM      1  N   UNL     1       2.846   5.744  19.945  0.00  0.00    +0.000 N 
ATOM      2  C   UNL     1       2.347   6.994  19.634  0.00  0.00    +0.000 C 
ATOM      3  N   UNL     1       1.654   7.655  20.510  0.00  0.00    +0.000 NA
ATOM      4  C   UNL     1       1.123   8.907  20.213  0.00  0.00    +0.000 A 
ATOM      5  C   UNL     1       0.398   9.552  21.220  0.00  0.00    +0.000 A 
ATOM      6  C   UNL     1      -0.193  10.796  20.998  0.00  0.00    +0.000 A 
ATOM      7  C   UNL     1      -0.060  11.407  19.755  0.00  0.00    +0.000 A 
ATOM      8  C   UNL     1       0.665  10.775  18.744  0.00  0.00    +0.000 A 
ATOM      9  C   UNL     1       1.260   9.522  18.968  0.00  0.00    +0.000 A 
ATOM     10  C   UNL     1       2.017   8.846  17.869  0.00  0.00    +0.000 C 
ATOM     11  C   UNL     1       2.662   7.520  18.247  0.00  0.00    +0.000 C 
ATOM     12  H   UNL     1       3.207   5.201  19.170  0.00  0.00    +0.000 HD
ENDROOT
BRANCH   1  13
ATOM     13  C   UNL     1       2.218   4.945  20.990  0.00  0.00    +0.000 C 
BRANCH  13  14
ATOM     14  C   UNL     1       1.079   4.089  20.432  0.00  0.00    +0.000 C 
BRANCH  14  15
ATOM     15  C   UNL     1       1.405   2.595  20.266  0.00  0.00    +0.000 C 
BRANCH  15  16
ATOM     16  C   UNL     1       1.723   2.204  18.816  0.00  0.00    +0.000 C 
BRANCH  16  17
ATOM     17  C   UNL     1       3.141   1.691  18.587  0.00  0.00    +0.000 C 
BRANCH  17  19
ATOM     18  O   UNL     1       4.869   2.262  20.200  0.00  0.00    +0.000 OA
ATOM     19  C   UNL     1       4.234   2.532  19.195  0.00  0.00    +0.000 C 
BRANCH  19  20
ATOM     20  O   UNL     1       4.457   3.668  18.483  0.00  0.00    +0.000 OA
ATOM     21  H   UNL     1       5.121   4.257  18.885  0.00  0.00    +0.000 HD
ENDBRANCH  19  20
ENDBRANCH  17  19
ENDBRANCH  16  17
ENDBRANCH  15  16
ENDBRANCH  14  15
ENDBRANCH  13  14
ENDBRANCH   1  13
TORSDOF 7
ENDMDL
MODEL 3
REMARK VINA RESULT:      -6.3      2.261      3.571
REMARK  Name = 
REMARK  7 active torsions:
REMARK  status: ('A' for Active; 'I' for Inactive)
REMARK    1  A    between atoms: C_2  and  O_3
REMARK    2  A    between atoms: C_2  and  C_4
REMARK    3  A    between atoms: C_4  and  C_5
REMARK    4  A    between atoms: C_5  and  C_6
REMARK    5  A    between atoms: C_6  and  C_7
REMARK    6  A    between atoms: C_7  and  C_8
REMARK    7  A    between atoms: C_8  and  N_9
REMARK                            x       y       z     vdW  Elec       q    Type
REMARK                         _______ _______ _______ _____ _____    ______ ____
ROOT
ATOM      1  N   UNL     1       3.725   5.937  19.823  0.00  0.00    +0.000 N 
ATOM      2  C   UNL     1       4.659   5.593  18.865  0.00  0.00    +0.000 C 
ATOM      3  N   UNL     1       4.303   5.474  17.622  0.00  0.00    +0.000 NA
ATOM      4  C   UNL     1       5.221   5.108  16.642  0.00  0.00    +0.000 A 
ATOM      5  C   UNL     1       4.753   5.013  15.327  0.00  0.00    +0.000 A 
ATOM      6  C   UNL     1       5.598   4.624  14.288  0.00  0.00    +0.000 A 
ATOM      7  C   UNL     1       6.930   4.325  14.561  0.00  0.00    +0.000 A 
ATOM      8  C   UNL     1       7.409   4.420  15.869  0.00  0.00    +0.000 A 
ATOM      9  C   UNL     1       6.557   4.812  16.915  0.00  0.00    +0.000 A 
ATOM     10  C   UNL     1       7.079   4.890  18.314  0.00  0.00    +0.000 C 
ATOM     11  C   UNL     1       6.078   5.377  19.353  0.00  0.00    +0.000 C 
ATOM     12  H   UNL     1       4.013   5.827  20.788  0.00  0.00    +0.000 HD
ENDROOT
BRANCH   1  13
ATOM     13  C   UNL     1       2.309   5.679  19.590  0.00  0.00    +0.000 C 
BRANCH  13  14
ATOM     14  C   UNL     1       1.665   4.974  20.785  0.00  0.00    +0.000 C 
BRANCH  14  15
ATOM     15  C   UNL     1       0.831   3.729  20.439  0.00  0.00    +0.000 C 
BRANCH  15  16
ATOM     16  C   UNL     1       1.685   2.473  20.217  0.00  0.00    +0.000 C 
BRANCH  16  17
ATOM     17  C   UNL     1       1.587   1.871  18.819  0.00  0.00    +0.000 C 
BRANCH  17  19
ATOM     18  O   UNL     1       3.766   2.005  17.746  0.00  0.00    +0.000 OA
ATOM     19  C   UNL     1       2.608   2.375  17.830  0.00  0.00    +0.000 C 
BRANCH  19  20
ATOM     20  O   UNL     1       2.090   3.320  17.002  0.00  0.00    +0.000 OA
ATOM     21  H   UNL     1       2.303   4.233  17.270  0.00  0.00    +0.000 HD
ENDBRANCH  19  20
ENDBRANCH  17  19
ENDBRANCH  16  17
ENDBRANCH  15  16
ENDBRANCH  14  15
ENDBRANCH  13  14
ENDBRANCH   1  13
TORSDOF 7
ENDMDL
MODEL 4
REMARK VINA RESULT:      -6.3      3.764      6.387
REMARK  Name = 
REMARK  7 active torsions:
REMARK  status: ('A' for Active; 'I' for Inactive)
REMARK    1  A    between atoms: C_2  and  O_3
REMARK    2  A    between atoms: C_2  and  C_4
REMARK    3  A    between atoms: C_4  and  C_5
REMARK    4  A    between atoms: C_5  and  C_6
REMARK    5  A    between atoms: C_6  and  C_7
REMARK    6  A    between atoms: C_7  and  C_8
REMARK    7  A    between atoms: C_8  and  N_9
REMARK                            x       y       z     vdW  Elec       q    Type
REMARK                         _______ _______ _______ _____ _____    ______ ____
ROOT
ATOM      1  N   UNL     1       6.029   5.844  17.554  0.00  0.00    +0.000 N 
ATOM      2  C   UNL     1       4.850   5.542  18.208  0.00  0.00    +0.000 C 
ATOM      3  N   UNL     1       4.774   4.483  18.955  0.00  0.00    +0.000 NA
ATOM      4  C   UNL     1       3.592   4.146  19.608  0.00  0.00    +0.000 A 
ATOM      5  C   UNL     1       3.602   2.993  20.400  0.00  0.00    +0.000 A 
ATOM      6  C   UNL     1       2.453   2.566  21.065  0.00  0.00    +0.000 A 
ATOM      7  C   UNL     1       1.276   3.298  20.942  0.00  0.00    +0.000 A 
ATOM      8  C   UNL     1       1.255   4.452  20.158  0.00  0.00    +0.000 A 
ATOM      9  C   UNL     1       2.412   4.882  19.488  0.00  0.00    +0.000 A 
ATOM     10  C   UNL     1       2.370   6.109  18.634  0.00  0.00    +0.000 C 
ATOM     11  C   UNL     1       3.697   6.505  18.002  0.00  0.00    +0.000 C 
ATOM     12  H   UNL     1       5.973   6.563  16.842  0.00  0.00    +0.000 HD
ENDROOT
BRANCH   1  13
ATOM     13  C   UNL     1       6.994   4.792  17.263  0.00  0.00    +0.000 C 
BRANCH  13  14
ATOM     14  C   UNL     1       6.625   4.029  15.988  0.00  0.00    +0.000 C 
BRANCH  14  15
ATOM     15  C   UNL     1       6.325   4.910  14.763  0.00  0.00    +0.000 C 
BRANCH  15  16
ATOM     16  C   UNL     1       5.463   4.202  13.708  0.00  0.00    +0.000 C 
BRANCH  16  17
ATOM     17  C   UNL     1       6.250   3.485  12.616  0.00  0.00    +0.000 C 
BRANCH  17  19
ATOM     18  O   UNL     1       5.783   1.503  11.286  0.00  0.00    +0.000 OA
ATOM     19  C   UNL     1       5.434   2.588  11.720  0.00  0.00    +0.000 C 
BRANCH  19  20
ATOM     20  O   UNL     1       4.219   3.124  11.434  0.00  0.00    +0.000 OA
ATOM     21  H   UNL     1       4.267   4.019  11.052  0.00  0.00    +0.000 HD
ENDBRANCH  19  20
ENDBRANCH  17  19
ENDBRANCH  16  17
ENDBRANCH  15  16
ENDBRANCH  14  15
ENDBRANCH  13  14
ENDBRANCH   1  13
TORSDOF 7
ENDMDL
MODEL 5
REMARK VINA RESULT:      -6.3      4.470      7.502
REMARK  Name = 
REMARK  7 active torsions:
REMARK  status: ('A' for Active; 'I' for Inactive)
REMARK    1  A    between atoms: C_2  and  O_3
REMARK    2  A    between atoms: C_2  and  C_4
REMARK    3  A    between atoms: C_4  and  C_5
REMARK    4  A    between atoms: C_5  and  C_6
REMARK    5  A    between atoms: C_6  and  C_7
REMARK    6  A    between atoms: C_7  and  C_8
REMARK    7  A    between atoms: C_8  and  N_9
REMARK                            x       y       z     vdW  Elec       q    Type
REMARK                         _______ _______ _______ _____ _____    ______ ____
ROOT
ATOM      1  N   UNL     1       7.524   7.551  16.947  0.00  0.00    +0.000 N 
ATOM      2  C   UNL     1       6.571   6.553  16.913  0.00  0.00    +0.000 C 
ATOM      3  N   UNL     1       5.392   6.761  17.417  0.00  0.00    +0.000 NA
ATOM      4  C   UNL     1       4.422   5.764  17.413  0.00  0.00    +0.000 A 
ATOM      5  C   UNL     1       3.176   6.078  17.968  0.00  0.00    +0.000 A 
ATOM      6  C   UNL     1       2.156   5.129  18.032  0.00  0.00    +0.000 A 
ATOM      7  C   UNL     1       2.378   3.848  17.536  0.00  0.00    +0.000 A 
ATOM      8  C   UNL     1       3.615   3.524  16.977  0.00  0.00    +0.000 A 
ATOM      9  C   UNL     1       4.642   4.480  16.912  0.00  0.00    +0.000 A 
ATOM     10  C   UNL     1       5.969   4.113  16.330  0.00  0.00    +0.000 C 
ATOM     11  C   UNL     1       6.984   5.246  16.265  0.00  0.00    +0.000 C 
ATOM     12  H   UNL     1       8.472   7.273  16.720  0.00  0.00    +0.000 HD
ENDROOT
BRANCH   1  13
ATOM     13  C   UNL     1       7.438   8.611  17.945  0.00  0.00    +0.000 C 
BRANCH  13  14
ATOM     14  C   UNL     1       8.657   9.535  17.887  0.00  0.00    +0.000 C 
BRANCH  14  15
ATOM     15  C   UNL     1       9.194   9.995  19.253  0.00  0.00    +0.000 C 
BRANCH  15  16
ATOM     16  C   UNL     1      10.047  11.269  19.167  0.00  0.00    +0.000 C 
BRANCH  16  17
ATOM     17  C   UNL     1       9.865  12.077  17.886  0.00  0.00    +0.000 C 
BRANCH  17  19
ATOM     18  O   UNL     1      11.274  13.669  16.706  0.00  0.00    +0.000 OA
ATOM     19  C   UNL     1      11.138  12.596  17.268  0.00  0.00    +0.000 C 
BRANCH  19  20
ATOM     20  O   UNL     1      12.166  11.717  17.405  0.00  0.00    +0.000 OA
ATOM     21  H   UNL     1      11.943  10.938  17.946  0.00  0.00    +0.000 HD
ENDBRANCH  19  20
ENDBRANCH  17  19
ENDBRANCH  16  17
ENDBRANCH  15  16
ENDBRANCH  14  15
ENDBRANCH  13  14
ENDBRANCH   1  13
TORSDOF 7
ENDMDL
MODEL 6
REMARK VINA RESULT:      -6.3      0.977      1.034
REMARK  Name = 
REMARK  7 active torsions:
REMARK  status: ('A' for Active; 'I' for Inactive)
REMARK    1  A    between atoms: C_2  and  O_3
REMARK    2  A    between atoms: C_2  and  C_4
REMARK    3  A    between atoms: C_4  and  C_5
REMARK    4  A    between atoms: C_5  and  C_6
REMARK    5  A    between atoms: C_6  and  C_7
REMARK    6  A    between atoms: C_7  and  C_8
REMARK    7  A    between atoms: C_8  and  N_9
REMARK                            x       y       z     vdW  Elec       q    Type
REMARK                         _______ _______ _______ _____ _____    ______ ____
ROOT
ATOM      1  N   UNL     1       3.628   2.575  17.779  0.00  0.00    +0.000 N 
ATOM      2  C   UNL     1       4.471   3.649  17.568  0.00  0.00    +0.000 C 
ATOM      3  N   UNL     1       5.356   3.966  18.463  0.00  0.00    +0.000 NA
ATOM      4  C   UNL     1       6.202   5.057  18.283  0.00  0.00    +0.000 A 
ATOM      5  C   UNL     1       7.133   5.321  19.294  0.00  0.00    +0.000 A 
ATOM      6  C   UNL     1       7.999   6.410  19.208  0.00  0.00    +0.000 A 
ATOM      7  C   UNL     1       7.941   7.249  18.100  0.00  0.00    +0.000 A 
ATOM      8  C   UNL     1       7.019   6.993  17.083  0.00  0.00    +0.000 A 
ATOM      9  C   UNL     1       6.146   5.896  17.169  0.00  0.00    +0.000 A 
ATOM     10  C   UNL     1       5.150   5.645  16.083  0.00  0.00    +0.000 C 
ATOM     11  C   UNL     1       4.296   4.397  16.261  0.00  0.00    +0.000 C 
ATOM     12  H   UNL     1       2.840   2.494  17.147  0.00  0.00    +0.000 HD
ENDROOT
BRANCH   1  13
ATOM     13  C   UNL     1       3.351   2.117  19.136  0.00  0.00    +0.000 C 
BRANCH  13  14
ATOM     14  C   UNL     1       1.847   2.045  19.407  0.00  0.00    +0.000 C 
BRANCH  14  15
ATOM     15  C   UNL     1       1.366   2.831  20.638  0.00  0.00    +0.000 C 
BRANCH  15  16
ATOM     16  C   UNL     1       1.166   4.327  20.359  0.00  0.00    +0.000 C 
BRANCH  16  17
ATOM     17  C   UNL     1       2.422   5.180  20.510  0.00  0.00    +0.000 C 
BRANCH  17  19
ATOM     18  O   UNL     1       2.636   6.570  18.526  0.00  0.00    +0.000 OA
ATOM     19  C   UNL     1       2.424   6.465  19.722  0.00  0.00    +0.000 C 
BRANCH  19  20
ATOM     20  O   UNL     1       2.152   7.542  20.504  0.00  0.00    +0.000 OA
ATOM     21  H   UNL     1       1.898   8.336  20.000  0.00  0.00    +0.000 HD
ENDBRANCH  19  20
ENDBRANCH  17  19
ENDBRANCH  16  17
ENDBRANCH  15  16
ENDBRANCH  14  15
ENDBRANCH  13  14
ENDBRANCH   1  13
TORSDOF 7
ENDMDL
MODEL 7
REMARK VINA RESULT:      -6.3      3.031      6.148
REMARK  Name = 
REMARK  7 active torsions:
REMARK  status: ('A' for Active; 'I' for Inactive)
REMARK    1  A    between atoms: C_2  and  O_3
REMARK    2  A    between atoms: C_2  and  C_4
REMARK    3  A    between atoms: C_4  and  C_5
REMARK    4  A    between atoms: C_5  and  C_6
REMARK    5  A    between atoms: C_6  and  C_7
REMARK    6  A    between atoms: C_7  and  C_8
REMARK    7  A    between atoms: C_8  and  N_9
REMARK                            x       y       z     vdW  Elec       q    Type
REMARK                         _______ _______ _______ _____ _____    ______ ____
ROOT
ATOM      1  N   UNL     1       6.499   4.978  17.350  0.00  0.00    +0.000 N 
ATOM      2  C   UNL     1       5.202   4.619  17.656  0.00  0.00    +0.000 C 
ATOM      3  N   UNL     1       4.728   4.841  18.844  0.00  0.00    +0.000 NA
ATOM      4  C   UNL     1       3.430   4.469  19.183  0.00  0.00    +0.000 A 
ATOM      5  C   UNL     1       2.997   4.755  20.482  0.00  0.00    +0.000 A 
ATOM      6  C   UNL     1       1.723   4.391  20.914  0.00  0.00    +0.000 A 
ATOM      7  C   UNL     1       0.863   3.732  20.040  0.00  0.00    +0.000 A 
ATOM      8  C   UNL     1       1.282   3.445  18.740  0.00  0.00    +0.000 A 
ATOM      9  C   UNL     1       2.566   3.812  18.305  0.00  0.00    +0.000 A 
ATOM     10  C   UNL     1       3.009   3.479  16.916  0.00  0.00    +0.000 C 
ATOM     11  C   UNL     1       4.399   3.974  16.543  0.00  0.00    +0.000 C 
ATOM     12  H   UNL     1       6.873   4.610  16.483  0.00  0.00    +0.000 HD
ENDROOT
BRANCH   1  13
ATOM     13  C   UNL     1       7.489   5.119  18.412  0.00  0.00    +0.000 C 
BRANCH  13  14
ATOM     14  C   UNL     1       7.902   6.581  18.602  0.00  0.00    +0.000 C 
BRANCH  14  15
ATOM     15  C   UNL     1       7.397   7.548  17.518  0.00  0.00    +0.000 C 
BRANCH  15  16
ATOM     16  C   UNL     1       8.035   8.942  17.610  0.00  0.00    +0.000 C 
BRANCH  16  17
ATOM     17  C   UNL     1       8.812   9.207  18.895  0.00  0.00    +0.000 C 
BRANCH  17  19
ATOM     18  O   UNL     1       9.881  11.064  20.046  0.00  0.00    +0.000 OA
ATOM     19  C   UNL     1       9.319  10.617  19.060  0.00  0.00    +0.000 C 
BRANCH  19  20
ATOM     20  O   UNL     1       9.084  11.375  17.957  0.00  0.00    +0.000 OA
ATOM     21  H   UNL     1       8.438  10.980  17.343  0.00  0.00    +0.000 HD
ENDBRANCH  19  20
ENDBRANCH  17  19
ENDBRANCH  16  17
ENDBRANCH  15  16
ENDBRANCH  14  15
ENDBRANCH  13  14
ENDBRANCH   1  13
TORSDOF 7
ENDMDL
MODEL 8
REMARK VINA RESULT:      -6.3      4.236      7.307
REMARK  Name = 
REMARK  7 active torsions:
REMARK  status: ('A' for Active; 'I' for Inactive)
REMARK    1  A    between atoms: C_2  and  O_3
REMARK    2  A    between atoms: C_2  and  C_4
REMARK    3  A    between atoms: C_4  and  C_5
REMARK    4  A    between atoms: C_5  and  C_6
REMARK    5  A    between atoms: C_6  and  C_7
REMARK    6  A    between atoms: C_7  and  C_8
REMARK    7  A    between atoms: C_8  and  N_9
REMARK                            x       y       z     vdW  Elec       q    Type
REMARK                         _______ _______ _______ _____ _____    ______ ____
ROOT
ATOM      1  N   UNL     1       7.578   6.793  16.898  0.00  0.00    +0.000 N 
ATOM      2  C   UNL     1       6.457   5.987  16.882  0.00  0.00    +0.000 C 
ATOM      3  N   UNL     1       5.457   6.246  17.668  0.00  0.00    +0.000 NA
ATOM      4  C   UNL     1       4.326   5.436  17.685  0.00  0.00    +0.000 A 
ATOM      5  C   UNL     1       3.291   5.795  18.557  0.00  0.00    +0.000 A 
ATOM      6  C   UNL     1       2.135   5.024  18.658  0.00  0.00    +0.000 A 
ATOM      7  C   UNL     1       2.003   3.877  17.881  0.00  0.00    +0.000 A 
ATOM      8  C   UNL     1       3.026   3.511  17.005  0.00  0.00    +0.000 A 
ATOM      9  C   UNL     1       4.191   4.288  16.903  0.00  0.00    +0.000 A 
ATOM     10  C   UNL     1       5.289   3.873  15.975  0.00  0.00    +0.000 C 
ATOM     11  C   UNL     1       6.477   4.823  15.910  0.00  0.00    +0.000 C 
ATOM     12  H   UNL     1       8.393   6.436  16.413  0.00  0.00    +0.000 HD
ENDROOT
BRANCH   1  13
ATOM     13  C   UNL     1       7.890   7.588  18.080  0.00  0.00    +0.000 C 
BRANCH  13  14
ATOM     14  C   UNL     1       8.066   9.067  17.729  0.00  0.00    +0.000 C 
BRANCH  14  15
ATOM     15  C   UNL     1       8.935   9.873  18.710  0.00  0.00    +0.000 C 
BRANCH  15  16
ATOM     16  C   UNL     1       9.405  11.217  18.135  0.00  0.00    +0.000 C 
BRANCH  16  17
ATOM     17  C   UNL     1      10.880  11.530  18.364  0.00  0.00    +0.000 C 
BRANCH  17  19
ATOM     18  O   UNL     1      10.966  11.869  20.771  0.00  0.00    +0.000 OA
ATOM     19  C   UNL     1      11.189  12.269  19.641  0.00  0.00    +0.000 C 
BRANCH  19  20
ATOM     20  O   UNL     1      11.769  13.475  19.402  0.00  0.00    +0.000 OA
ATOM     21  H   UNL     1      11.131  14.207  19.326  0.00  0.00    +0.000 HD
ENDBRANCH  19  20
ENDBRANCH  17  19
ENDBRANCH  16  17
ENDBRANCH  15  16
ENDBRANCH  14  15
ENDBRANCH  13  14
ENDBRANCH   1  13
TORSDOF 7
ENDMDL
MODEL 9
REMARK VINA RESULT:      -6.2      4.109      6.906
REMARK  Name = 
REMARK  7 active torsions:
REMARK  status: ('A' for Active; 'I' for Inactive)
REMARK    1  A    between atoms: C_2  and  O_3
REMARK    2  A    between atoms: C_2  and  C_4
REMARK    3  A    between atoms: C_4  and  C_5
REMARK    4  A    between atoms: C_5  and  C_6
REMARK    5  A    between atoms: C_6  and  C_7
REMARK    6  A    between atoms: C_7  and  C_8
REMARK    7  A    between atoms: C_8  and  N_9
REMARK                            x       y       z     vdW  Elec       q    Type
REMARK                         _______ _______ _______ _____ _____    ______ ____
ROOT
ATOM      1  N   UNL     1       6.279   4.240  16.981  0.00  0.00    +0.000 N 
ATOM      2  C   UNL     1       5.165   4.231  17.798  0.00  0.00    +0.000 C 
ATOM      3  N   UNL     1       4.208   3.381  17.584  0.00  0.00    +0.000 NA
ATOM      4  C   UNL     1       3.067   3.366  18.381  0.00  0.00    +0.000 A 
ATOM      5  C   UNL     1       2.090   2.409  18.085  0.00  0.00    +0.000 A 
ATOM      6  C   UNL     1       0.903   2.344  18.814  0.00  0.00    +0.000 A 
ATOM      7  C   UNL     1       0.684   3.242  19.854  0.00  0.00    +0.000 A 
ATOM      8  C   UNL     1       1.653   4.199  20.160  0.00  0.00    +0.000 A 
ATOM      9  C   UNL     1       2.849   4.265  19.426  0.00  0.00    +0.000 A 
ATOM     10  C   UNL     1       3.870   5.308  19.752  0.00  0.00    +0.000 C 
ATOM     11  C   UNL     1       5.146   5.247  18.924  0.00  0.00    +0.000 C 
ATOM     12  H   UNL     1       6.894   5.040  17.072  0.00  0.00    +0.000 HD
ENDROOT
BRANCH   1  13
ATOM     13  C   UNL     1       6.197   3.703  15.628  0.00  0.00    +0.000 C 
BRANCH  13  14
ATOM     14  C   UNL     1       6.161   4.821  14.583  0.00  0.00    +0.000 C 
BRANCH  14  15
ATOM     15  C   UNL     1       7.372   4.871  13.636  0.00  0.00    +0.000 C 
BRANCH  15  16
ATOM     16  C   UNL     1       7.012   4.550  12.178  0.00  0.00    +0.000 C 
BRANCH  16  17
ATOM     17  C   UNL     1       7.058   3.069  11.819  0.00  0.00    +0.000 C 
BRANCH  17  19
ATOM     18  O   UNL     1       4.635   2.979  11.629  0.00  0.00    +0.000 OA
ATOM     19  C   UNL     1       5.714   2.412  11.627  0.00  0.00    +0.000 C 
BRANCH  19  20
ATOM     20  O   UNL     1       5.825   1.071  11.441  0.00  0.00    +0.000 OA
ATOM     21  H   UNL     1       6.617   0.683  11.855  0.00  0.00    +0.000 HD
ENDBRANCH  19  20
ENDBRANCH  17  19
ENDBRANCH  16  17
ENDBRANCH  15  16
ENDBRANCH  14  15
ENDBRANCH  13  14
ENDBRANCH   1  13
TORSDOF 7
ENDMDL
