MODEL 1
REMARK VINA RESULT:      -8.0      0.000      0.000
REMARK  Name = 
REMARK  9 active torsions:
REMARK  status: ('A' for Active; 'I' for Inactive)
REMARK    1  A    between atoms: C_1  and  N_2
REMARK    2  A    between atoms: N_2  and  C_3
REMARK    3  A    between atoms: N_2  and  C_4
REMARK    4  A    between atoms: C_4  and  C_5
REMARK    5  A    between atoms: C_5  and  N_6
REMARK    6  A    between atoms: N_6  and  C_7
REMARK    7  A    between atoms: C_9  and  C_10
REMARK    8  A    between atoms: C_13  and  N_14
REMARK    9  A    between atoms: N_17  and  C_18
REMARK                            x       y       z     vdW  Elec       q    Type
REMARK                         _______ _______ _______ _____ _____    ______ ____
ROOT
ATOM      1  C   UNL     1       8.503   8.921  18.481  0.00  0.00    +0.000 A 
ATOM      2  C   UNL     1       8.727   7.743  19.205  0.00  0.00    +0.000 A 
ATOM      3  C   UNL     1       8.037   6.562  18.913  0.00  0.00    +0.000 A 
ATOM      4  C   UNL     1       7.101   6.509  17.881  0.00  0.00    +0.000 A 
ATOM      5  C   UNL     1       6.883   7.668  17.124  0.00  0.00    +0.000 A 
ATOM      6  C   UNL     1       7.560   8.857  17.434  0.00  0.00    +0.000 A 
ENDROOT
BRANCH   1   9
ATOM      7  C   UNL     1       9.775  11.697  20.491  0.00  0.00    +0.000 A 
ATOM      8  N   UNL     1       9.170  10.553  20.106  0.00  0.00    +0.000 NA
ATOM      9  C   UNL     1       9.220  10.160  18.819  0.00  0.00    +0.000 A 
ATOM     10  N   UNL     1       9.837  10.805  17.823  0.00  0.00    +0.000 NA
ATOM     11  C   UNL     1      10.410  11.976  18.187  0.00  0.00    +0.000 A 
ATOM     12  C   UNL     1      11.071  12.868  17.292  0.00  0.00    +0.000 A 
ATOM     13  C   UNL     1      11.563  13.983  17.928  0.00  0.00    +0.000 A 
ATOM     14  S   UNL     1      11.235  13.957  19.605  0.00  0.00    +0.000 S 
ATOM     15  C   UNL     1      10.406  12.450  19.495  0.00  0.00    +0.000 A 
BRANCH   7  16
ATOM     16  N   UNL     1       9.718  12.108  21.824  0.00  0.00    +0.000 N 
ATOM     17  H   UNL     1      10.564  11.857  22.337  0.00  0.00    +0.000 HD
BRANCH  16  18
ATOM     18  C   UNL     1       8.508  11.737  22.556  0.00  0.00    +0.000 C 
BRANCH  18  19
ATOM     19  C   UNL     1       7.481  12.895  22.546  0.00  0.00    +0.000 C 
BRANCH  19  21
ATOM     20  C   UNL     1       6.453  11.624  24.354  0.00  0.00    +0.000 C 
ATOM     21  N   UNL     1       6.229  12.613  23.294  0.00  0.00    +0.000 NA
ATOM     22  C   UNL     1       5.724  13.855  23.892  0.00  0.00    +0.000 C 
ENDBRANCH  19  21
ENDBRANCH  18  19
ENDBRANCH  16  18
ENDBRANCH   7  16
ENDBRANCH   1   9
BRANCH   4  23
ATOM     23  N   UNL     1       6.379   5.331  17.570  0.00  0.00    +0.000 N 
ATOM     24  C   UNL     1       5.130   5.026  18.093  0.00  0.00    +0.000 C 
ATOM     25  O   UNL     1       4.455   5.782  18.780  0.00  0.00    +0.000 OA
ATOM     26  N   UNL     1       4.724   3.739  17.763  0.00  0.00    +0.000 N 
ATOM     27  H   UNL     1       6.663   4.809  16.754  0.00  0.00    +0.000 HD
ATOM     28  H   UNL     1       5.475   3.059  17.759  0.00  0.00    +0.000 HD
BRANCH  26  29
ATOM     29  C   UNL     1       3.480   3.252  18.244  0.00  0.00    +0.000 A 
ATOM     30  C   UNL     1       2.272   3.549  17.602  0.00  0.00    +0.000 A 
ATOM     31  C   UNL     1       1.065   3.073  18.118  0.00  0.00    +0.000 A 
ATOM     32  C   UNL     1       1.048   2.313  19.285  0.00  0.00    +0.000 A 
ATOM     33  C   UNL     1       2.247   2.019  19.936  0.00  0.00    +0.000 A 
ATOM     34  C   UNL     1       3.452   2.474  19.403  0.00  0.00    +0.000 A 
ATOM     35  F   UNL     1       4.595   2.216  20.059  0.00  0.00    +0.000 F 
ENDBRANCH  26  29
ENDBRANCH   4  23
TORSDOF 7
ENDMDL
MODEL 2
REMARK VINA RESULT:      -8.0      6.609     10.854
REMARK  Name = 
REMARK  9 active torsions:
REMARK  status: ('A' for Active; 'I' for Inactive)
REMARK    1  A    between atoms: C_1  and  N_2
REMARK    2  A    between atoms: N_2  and  C_3
REMARK    3  A    between atoms: N_2  and  C_4
REMARK    4  A    between atoms: C_4  and  C_5
REMARK    5  A    between atoms: C_5  and  N_6
REMARK    6  A    between atoms: N_6  and  C_7
REMARK    7  A    between atoms: C_9  and  C_10
REMARK    8  A    between atoms: C_13  and  N_14
REMARK    9  A    between atoms: N_17  and  C_18
REMARK                            x       y       z     vdW  Elec       q    Type
REMARK                         _______ _______ _______ _____ _____    ______ ____
ROOT
ATOM      1  C   UNL     1       2.088   7.764  19.320  0.00  0.00    +0.000 A 
ATOM      2  C   UNL     1       1.318   8.511  20.219  0.00  0.00    +0.000 A 
ATOM      3  C   UNL     1       0.888   9.807  19.914  0.00  0.00    +0.000 A 
ATOM      4  C   UNL     1       1.206  10.404  18.694  0.00  0.00    +0.000 A 
ATOM      5  C   UNL     1       1.950   9.663  17.767  0.00  0.00    +0.000 A 
ATOM      6  C   UNL     1       2.398   8.373  18.085  0.00  0.00    +0.000 A 
ENDROOT
BRANCH   1   9
ATOM      7  C   UNL     1       4.257   4.824  19.472  0.00  0.00    +0.000 A 
ATOM      8  N   UNL     1       3.772   6.060  19.222  0.00  0.00    +0.000 NA
ATOM      9  C   UNL     1       2.552   6.412  19.669  0.00  0.00    +0.000 A 
ATOM     10  N   UNL     1       1.720   5.640  20.376  0.00  0.00    +0.000 NA
ATOM     11  C   UNL     1       2.175   4.384  20.595  0.00  0.00    +0.000 A 
ATOM     12  C   UNL     1       1.443   3.362  21.269  0.00  0.00    +0.000 A 
ATOM     13  C   UNL     1       2.144   2.182  21.354  0.00  0.00    +0.000 A 
ATOM     14  S   UNL     1       3.686   2.303  20.629  0.00  0.00    +0.000 S 
ATOM     15  C   UNL     1       3.424   3.943  20.170  0.00  0.00    +0.000 A 
BRANCH   7  16
ATOM     16  N   UNL     1       5.519   4.457  19.003  0.00  0.00    +0.000 N 
ATOM     17  H   UNL     1       6.251   5.078  19.350  0.00  0.00    +0.000 HD
BRANCH  16  18
ATOM     18  C   UNL     1       5.627   4.241  17.561  0.00  0.00    +0.000 C 
BRANCH  18  19
ATOM     19  C   UNL     1       6.880   4.947  16.990  0.00  0.00    +0.000 C 
BRANCH  19  21
ATOM     20  C   UNL     1       6.827   4.819  14.556  0.00  0.00    +0.000 C 
ATOM     21  N   UNL     1       6.645   5.688  15.723  0.00  0.00    +0.000 NA
ATOM     22  C   UNL     1       5.280   6.227  15.716  0.00  0.00    +0.000 C 
ENDBRANCH  19  21
ENDBRANCH  18  19
ENDBRANCH  16  18
ENDBRANCH   7  16
ENDBRANCH   1   9
BRANCH   4  23
ATOM     23  N   UNL     1       0.794  11.718  18.364  0.00  0.00    +0.000 N 
ATOM     24  C   UNL     1       1.288  12.863  18.974  0.00  0.00    +0.000 C 
ATOM     25  O   UNL     1       2.215  12.885  19.775  0.00  0.00    +0.000 OA
ATOM     26  N   UNL     1       0.597  14.003  18.586  0.00  0.00    +0.000 N 
ATOM     27  H   UNL     1       0.310  11.851  17.488  0.00  0.00    +0.000 HD
ATOM     28  H   UNL     1      -0.398  13.859  18.462  0.00  0.00    +0.000 HD
BRANCH  26  29
ATOM     29  C   UNL     1       0.954  15.261  19.141  0.00  0.00    +0.000 A 
ATOM     30  C   UNL     1       0.232  15.836  20.194  0.00  0.00    +0.000 A 
ATOM     31  C   UNL     1       0.596  17.086  20.697  0.00  0.00    +0.000 A 
ATOM     32  C   UNL     1       1.670  17.782  20.147  0.00  0.00    +0.000 A 
ATOM     33  C   UNL     1       2.391  17.221  19.092  0.00  0.00    +0.000 A 
ATOM     34  C   UNL     1       2.040  15.961  18.610  0.00  0.00    +0.000 A 
ATOM     35  F   UNL     1       2.716  15.447  17.570  0.00  0.00    +0.000 F 
ENDBRANCH  26  29
ENDBRANCH   4  23
TORSDOF 7
ENDMDL
MODEL 3
REMARK VINA RESULT:      -7.9      5.956     10.682
REMARK  Name = 
REMARK  9 active torsions:
REMARK  status: ('A' for Active; 'I' for Inactive)
REMARK    1  A    between atoms: C_1  and  N_2
REMARK    2  A    between atoms: N_2  and  C_3
REMARK    3  A    between atoms: N_2  and  C_4
REMARK    4  A    between atoms: C_4  and  C_5
REMARK    5  A    between atoms: C_5  and  N_6
REMARK    6  A    between atoms: N_6  and  C_7
REMARK    7  A    between atoms: C_9  and  C_10
REMARK    8  A    between atoms: C_13  and  N_14
REMARK    9  A    between atoms: N_17  and  C_18
REMARK                            x       y       z     vdW  Elec       q    Type
REMARK                         _______ _______ _______ _____ _____    ______ ____
ROOT
ATOM      1  C   UNL     1       2.108   7.694  19.319  0.00  0.00    +0.000 A 
ATOM      2  C   UNL     1       1.327   8.433  20.214  0.00  0.00    +0.000 A 
ATOM      3  C   UNL     1       0.885   9.724  19.906  0.00  0.00    +0.000 A 
ATOM      4  C   UNL     1       1.200  10.324  18.687  0.00  0.00    +0.000 A 
ATOM      5  C   UNL     1       1.956   9.589  17.764  0.00  0.00    +0.000 A 
ATOM      6  C   UNL     1       2.417   8.304  18.085  0.00  0.00    +0.000 A 
ENDROOT
BRANCH   1   9
ATOM      7  C   UNL     1       4.270   4.747  19.417  0.00  0.00    +0.000 A 
ATOM      8  N   UNL     1       3.778   5.979  19.167  0.00  0.00    +0.000 NA
ATOM      9  C   UNL     1       2.585   6.347  19.671  0.00  0.00    +0.000 A 
ATOM     10  N   UNL     1       1.789   5.593  20.438  0.00  0.00    +0.000 NA
ATOM     11  C   UNL     1       2.251   4.340  20.659  0.00  0.00    +0.000 A 
ATOM     12  C   UNL     1       1.552   3.337  21.393  0.00  0.00    +0.000 A 
ATOM     13  C   UNL     1       2.252   2.156  21.466  0.00  0.00    +0.000 A 
ATOM     14  S   UNL     1       3.753   2.253  20.656  0.00  0.00    +0.000 S 
ATOM     15  C   UNL     1       3.473   3.884  20.177  0.00  0.00    +0.000 A 
BRANCH   7  16
ATOM     16  N   UNL     1       5.505   4.363  18.888  0.00  0.00    +0.000 N 
ATOM     17  H   UNL     1       6.271   4.921  19.266  0.00  0.00    +0.000 HD
BRANCH  16  18
ATOM     18  C   UNL     1       5.572   4.262  17.432  0.00  0.00    +0.000 C 
BRANCH  18  19
ATOM     19  C   UNL     1       6.859   4.930  16.891  0.00  0.00    +0.000 C 
BRANCH  19  21
ATOM     20  C   UNL     1       5.253   6.518  15.973  0.00  0.00    +0.000 C 
ATOM     21  N   UNL     1       6.657   6.292  16.332  0.00  0.00    +0.000 NA
ATOM     22  C   UNL     1       7.069   7.295  17.321  0.00  0.00    +0.000 C 
ENDBRANCH  19  21
ENDBRANCH  18  19
ENDBRANCH  16  18
ENDBRANCH   7  16
ENDBRANCH   1   9
BRANCH   4  23
ATOM     23  N   UNL     1       0.776  11.633  18.354  0.00  0.00    +0.000 N 
ATOM     24  C   UNL     1       1.292  12.786  18.929  0.00  0.00    +0.000 C 
ATOM     25  O   UNL     1       2.248  12.819  19.694  0.00  0.00    +0.000 OA
ATOM     26  N   UNL     1       0.587  13.921  18.551  0.00  0.00    +0.000 N 
ATOM     27  H   UNL     1       0.260  11.753  17.494  0.00  0.00    +0.000 HD
ATOM     28  H   UNL     1      -0.413  13.775  18.466  0.00  0.00    +0.000 HD
BRANCH  26  29
ATOM     29  C   UNL     1       0.963  15.186  19.074  0.00  0.00    +0.000 A 
ATOM     30  C   UNL     1       1.967  15.962  18.482  0.00  0.00    +0.000 A 
ATOM     31  C   UNL     1       2.328  17.191  19.039  0.00  0.00    +0.000 A 
ATOM     32  C   UNL     1       1.706  17.649  20.198  0.00  0.00    +0.000 A 
ATOM     33  C   UNL     1       0.711  16.878  20.801  0.00  0.00    +0.000 A 
ATOM     34  C   UNL     1       0.335  15.665  20.227  0.00  0.00    +0.000 A 
ATOM     35  F   UNL     1      -0.598  14.915  20.835  0.00  0.00    +0.000 F 
ENDBRANCH  26  29
ENDBRANCH   4  23
TORSDOF 7
ENDMDL
MODEL 4
REMARK VINA RESULT:      -7.9      6.046     10.742
REMARK  Name = 
REMARK  9 active torsions:
REMARK  status: ('A' for Active; 'I' for Inactive)
REMARK    1  A    between atoms: C_1  and  N_2
REMARK    2  A    between atoms: N_2  and  C_3
REMARK    3  A    between atoms: N_2  and  C_4
REMARK    4  A    between atoms: C_4  and  C_5
REMARK    5  A    between atoms: C_5  and  N_6
REMARK    6  A    between atoms: N_6  and  C_7
REMARK    7  A    between atoms: C_9  and  C_10
REMARK    8  A    between atoms: C_13  and  N_14
REMARK    9  A    between atoms: N_17  and  C_18
REMARK                            x       y       z     vdW  Elec       q    Type
REMARK                         _______ _______ _______ _____ _____    ______ ____
ROOT
ATOM      1  C   UNL     1       2.042   7.740  19.407  0.00  0.00    +0.000 A 
ATOM      2  C   UNL     1       2.333   8.333  18.173  0.00  0.00    +0.000 A 
ATOM      3  C   UNL     1       1.887   9.620  17.856  0.00  0.00    +0.000 A 
ATOM      4  C   UNL     1       1.138  10.368  18.764  0.00  0.00    +0.000 A 
ATOM      5  C   UNL     1       0.860   9.806  20.016  0.00  0.00    +0.000 A 
ATOM      6  C   UNL     1       1.290   8.506  20.323  0.00  0.00    +0.000 A 
ENDROOT
BRANCH   1   9
ATOM      7  C   UNL     1       4.099   4.719  19.315  0.00  0.00    +0.000 A 
ATOM      8  N   UNL     1       3.632   5.970  19.112  0.00  0.00    +0.000 NA
ATOM      9  C   UNL     1       2.498   6.375  19.713  0.00  0.00    +0.000 A 
ATOM     10  N   UNL     1       1.740   5.643  20.538  0.00  0.00    +0.000 NA
ATOM     11  C   UNL     1       2.174   4.373  20.715  0.00  0.00    +0.000 A 
ATOM     12  C   UNL     1       1.502   3.389  21.498  0.00  0.00    +0.000 A 
ATOM     13  C   UNL     1       2.163   2.184  21.508  0.00  0.00    +0.000 A 
ATOM     14  S   UNL     1       3.597   2.235  20.580  0.00  0.00    +0.000 S 
ATOM     15  C   UNL     1       3.336   3.879  20.133  0.00  0.00    +0.000 A 
BRANCH   7  16
ATOM     16  N   UNL     1       5.273   4.297  18.686  0.00  0.00    +0.000 N 
ATOM     17  H   UNL     1       5.439   3.299  18.820  0.00  0.00    +0.000 HD
BRANCH  16  18
ATOM     18  C   UNL     1       6.468   5.090  18.966  0.00  0.00    +0.000 C 
BRANCH  18  19
ATOM     19  C   UNL     1       7.563   4.830  17.904  0.00  0.00    +0.000 C 
BRANCH  19  21
ATOM     20  C   UNL     1       6.856   5.231  15.606  0.00  0.00    +0.000 C 
ATOM     21  N   UNL     1       7.557   5.788  16.767  0.00  0.00    +0.000 NA
ATOM     22  C   UNL     1       6.898   7.033  17.178  0.00  0.00    +0.000 C 
ENDBRANCH  19  21
ENDBRANCH  18  19
ENDBRANCH  16  18
ENDBRANCH   7  16
ENDBRANCH   1   9
BRANCH   4  23
ATOM     23  N   UNL     1       0.664  11.669  18.465  0.00  0.00    +0.000 N 
ATOM     24  C   UNL     1       1.229  12.834  18.965  0.00  0.00    +0.000 C 
ATOM     25  O   UNL     1       2.265  12.887  19.616  0.00  0.00    +0.000 OA
ATOM     26  N   UNL     1       0.472  13.957  18.656  0.00  0.00    +0.000 N 
ATOM     27  H   UNL     1       0.052  11.773  17.669  0.00  0.00    +0.000 HD
ATOM     28  H   UNL     1      -0.529  13.800  18.687  0.00  0.00    +0.000 HD
BRANCH  26  29
ATOM     29  C   UNL     1       0.891  15.233  19.118  0.00  0.00    +0.000 A 
ATOM     30  C   UNL     1       1.872  15.976  18.450  0.00  0.00    +0.000 A 
ATOM     31  C   UNL     1       2.276  17.216  18.948  0.00  0.00    +0.000 A 
ATOM     32  C   UNL     1       1.722  17.719  20.123  0.00  0.00    +0.000 A 
ATOM     33  C   UNL     1       0.750  16.982  20.800  0.00  0.00    +0.000 A 
ATOM     34  C   UNL     1       0.330  15.756  20.286  0.00  0.00    +0.000 A 
ATOM     35  F   UNL     1      -0.579  15.039  20.966  0.00  0.00    +0.000 F 
ENDBRANCH  26  29
ENDBRANCH   4  23
TORSDOF 7
ENDMDL
MODEL 5
REMARK VINA RESULT:      -7.9      6.561     10.177
REMARK  Name = 
REMARK  9 active torsions:
REMARK  status: ('A' for Active; 'I' for Inactive)
REMARK    1  A    between atoms: C_1  and  N_2
REMARK    2  A    between atoms: N_2  and  C_3
REMARK    3  A    between atoms: N_2  and  C_4
REMARK    4  A    between atoms: C_4  and  C_5
REMARK    5  A    between atoms: C_5  and  N_6
REMARK    6  A    between atoms: N_6  and  C_7
REMARK    7  A    between atoms: C_9  and  C_10
REMARK    8  A    between atoms: C_13  and  N_14
REMARK    9  A    between atoms: N_17  and  C_18
REMARK                            x       y       z     vdW  Elec       q    Type
REMARK                         _______ _______ _______ _____ _____    ______ ____
ROOT
ATOM      1  C   UNL     1       2.332   7.852  18.725  0.00  0.00    +0.000 A 
ATOM      2  C   UNL     1       1.893   7.859  20.054  0.00  0.00    +0.000 A 
ATOM      3  C   UNL     1       0.950   8.788  20.509  0.00  0.00    +0.000 A 
ATOM      4  C   UNL     1       0.404   9.741  19.650  0.00  0.00    +0.000 A 
ATOM      5  C   UNL     1       0.807   9.733  18.309  0.00  0.00    +0.000 A 
ATOM      6  C   UNL     1       1.769   8.815  17.861  0.00  0.00    +0.000 A 
ENDROOT
BRANCH   1   9
ATOM      7  C   UNL     1       4.596   4.983  18.798  0.00  0.00    +0.000 A 
ATOM      8  N   UNL     1       3.654   5.893  19.126  0.00  0.00    +0.000 NA
ATOM      9  C   UNL     1       3.343   6.884  18.271  0.00  0.00    +0.000 A 
ATOM     10  N   UNL     1       3.885   7.081  17.064  0.00  0.00    +0.000 NA
ATOM     11  C   UNL     1       4.862   6.202  16.741  0.00  0.00    +0.000 A 
ATOM     12  C   UNL     1       5.627   6.245  15.538  0.00  0.00    +0.000 A 
ATOM     13  C   UNL     1       6.552   5.230  15.466  0.00  0.00    +0.000 A 
ATOM     14  S   UNL     1       6.498   4.220  16.843  0.00  0.00    +0.000 S 
ATOM     15  C   UNL     1       5.240   5.148  17.567  0.00  0.00    +0.000 A 
BRANCH   7  16
ATOM     16  N   UNL     1       4.924   3.958  19.688  0.00  0.00    +0.000 N 
ATOM     17  H   UNL     1       5.923   3.749  19.678  0.00  0.00    +0.000 HD
BRANCH  16  18
ATOM     18  C   UNL     1       4.113   2.745  19.592  0.00  0.00    +0.000 C 
BRANCH  18  19
ATOM     19  C   UNL     1       3.080   2.679  20.742  0.00  0.00    +0.000 C 
BRANCH  19  21
ATOM     20  C   UNL     1       1.046   3.989  20.448  0.00  0.00    +0.000 C 
ATOM     21  N   UNL     1       1.663   2.668  20.297  0.00  0.00    +0.000 NA
ATOM     22  C   UNL     1       1.594   2.263  18.888  0.00  0.00    +0.000 C 
ENDBRANCH  19  21
ENDBRANCH  18  19
ENDBRANCH  16  18
ENDBRANCH   7  16
ENDBRANCH   1   9
BRANCH   4  23
ATOM     23  N   UNL     1      -0.542  10.700  20.086  0.00  0.00    +0.000 N 
ATOM     24  C   UNL     1      -0.223  11.812  20.853  0.00  0.00    +0.000 C 
ATOM     25  O   UNL     1       0.915  12.162  21.140  0.00  0.00    +0.000 OA
ATOM     26  N   UNL     1      -1.354  12.493  21.284  0.00  0.00    +0.000 N 
ATOM     27  H   UNL     1      -1.438  10.718  19.621  0.00  0.00    +0.000 HD
ATOM     28  H   UNL     1      -2.131  11.888  21.528  0.00  0.00    +0.000 HD
BRANCH  26  29
ATOM     29  C   UNL     1      -1.210  13.641  22.108  0.00  0.00    +0.000 A 
ATOM     30  C   UNL     1      -1.326  13.569  23.501  0.00  0.00    +0.000 A 
ATOM     31  C   UNL     1      -1.202  14.723  24.278  0.00  0.00    +0.000 A 
ATOM     32  C   UNL     1      -0.981  15.959  23.674  0.00  0.00    +0.000 A 
ATOM     33  C   UNL     1      -0.872  16.041  22.285  0.00  0.00    +0.000 A 
ATOM     34  C   UNL     1      -0.970  14.883  21.516  0.00  0.00    +0.000 A 
ATOM     35  F   UNL     1      -0.901  14.979  20.178  0.00  0.00    +0.000 F 
ENDBRANCH  26  29
ENDBRANCH   4  23
TORSDOF 7
ENDMDL
MODEL 6
REMARK VINA RESULT:      -7.9      0.650      1.094
REMARK  Name = 
REMARK  9 active torsions:
REMARK  status: ('A' for Active; 'I' for Inactive)
REMARK    1  A    between atoms: C_1  and  N_2
REMARK    2  A    between atoms: N_2  and  C_3
REMARK    3  A    between atoms: N_2  and  C_4
REMARK    4  A    between atoms: C_4  and  C_5
REMARK    5  A    between atoms: C_5  and  N_6
REMARK    6  A    between atoms: N_6  and  C_7
REMARK    7  A    between atoms: C_9  and  C_10
REMARK    8  A    between atoms: C_13  and  N_14
REMARK    9  A    between atoms: N_17  and  C_18
REMARK                            x       y       z     vdW  Elec       q    Type
REMARK                         _______ _______ _______ _____ _____    ______ ____
ROOT
ATOM      1  C   UNL     1       8.519   8.969  18.486  0.00  0.00    +0.000 A 
ATOM      2  C   UNL     1       7.576   8.957  17.451  0.00  0.00    +0.000 A 
ATOM      3  C   UNL     1       6.875   7.795  17.113  0.00  0.00    +0.000 A 
ATOM      4  C   UNL     1       7.084   6.600  17.802  0.00  0.00    +0.000 A 
ATOM      5  C   UNL     1       8.001   6.598  18.861  0.00  0.00    +0.000 A 
ATOM      6  C   UNL     1       8.719   7.759  19.183  0.00  0.00    +0.000 A 
ENDROOT
BRANCH   1   9
ATOM      7  C   UNL     1       9.900  11.710  20.474  0.00  0.00    +0.000 A 
ATOM      8  N   UNL     1       9.266  10.577  20.100  0.00  0.00    +0.000 NA
ATOM      9  C   UNL     1       9.265  10.195  18.810  0.00  0.00    +0.000 A 
ATOM     10  N   UNL     1       9.858  10.840  17.798  0.00  0.00    +0.000 NA
ATOM     11  C   UNL     1      10.460  12.000  18.152  0.00  0.00    +0.000 A 
ATOM     12  C   UNL     1      11.103  12.890  17.242  0.00  0.00    +0.000 A 
ATOM     13  C   UNL     1      11.632  13.993  17.871  0.00  0.00    +0.000 A 
ATOM     14  S   UNL     1      11.361  13.957  19.557  0.00  0.00    +0.000 S 
ATOM     15  C   UNL     1      10.507  12.463  19.463  0.00  0.00    +0.000 A 
BRANCH   7  16
ATOM     16  N   UNL     1       9.895  12.109  21.812  0.00  0.00    +0.000 N 
ATOM     17  H   UNL     1      10.321  11.410  22.420  0.00  0.00    +0.000 HD
BRANCH  16  18
ATOM     18  C   UNL     1       8.612  12.576  22.334  0.00  0.00    +0.000 C 
BRANCH  18  19
ATOM     19  C   UNL     1       8.063  11.599  23.401  0.00  0.00    +0.000 C 
BRANCH  19  21
ATOM     20  C   UNL     1       8.281  13.322  25.111  0.00  0.00    +0.000 C 
ATOM     21  N   UNL     1       7.427  12.259  24.571  0.00  0.00    +0.000 NA
ATOM     22  C   UNL     1       6.138  12.833  24.171  0.00  0.00    +0.000 C 
ENDBRANCH  19  21
ENDBRANCH  18  19
ENDBRANCH  16  18
ENDBRANCH   7  16
ENDBRANCH   1   9
BRANCH   4  23
ATOM     23  N   UNL     1       6.397   5.406  17.474  0.00  0.00    +0.000 N 
ATOM     24  C   UNL     1       5.163   5.051  18.002  0.00  0.00    +0.000 C 
ATOM     25  O   UNL     1       4.470   5.772  18.709  0.00  0.00    +0.000 OA
ATOM     26  N   UNL     1       4.795   3.760  17.649  0.00  0.00    +0.000 N 
ATOM     27  H   UNL     1       6.690   4.910  16.645  0.00  0.00    +0.000 HD
ATOM     28  H   UNL     1       5.567   3.103  17.624  0.00  0.00    +0.000 HD
BRANCH  26  29
ATOM     29  C   UNL     1       3.571   3.224  18.130  0.00  0.00    +0.000 A 
ATOM     30  C   UNL     1       2.341   3.549  17.545  0.00  0.00    +0.000 A 
ATOM     31  C   UNL     1       1.155   3.022  18.062  0.00  0.00    +0.000 A 
ATOM     32  C   UNL     1       1.182   2.183  19.173  0.00  0.00    +0.000 A 
ATOM     33  C   UNL     1       2.402   1.860  19.768  0.00  0.00    +0.000 A 
ATOM     34  C   UNL     1       3.586   2.367  19.233  0.00  0.00    +0.000 A 
ATOM     35  F   UNL     1       4.750   2.080  19.836  0.00  0.00    +0.000 F 
ENDBRANCH  26  29
ENDBRANCH   4  23
TORSDOF 7
ENDMDL
MODEL 7
REMARK VINA RESULT:      -7.9      0.920      1.371
REMARK  Name = 
REMARK  9 active torsions:
REMARK  status: ('A' for Active; 'I' for Inactive)
REMARK    1  A    between atoms: C_1  and  N_2
REMARK    2  A    between atoms: N_2  and  C_3
REMARK    3  A    between atoms: N_2  and  C_4
REMARK    4  A    between atoms: C_4  and  C_5
REMARK    5  A    between atoms: C_5  and  N_6
REMARK    6  A    between atoms: N_6  and  C_7
REMARK    7  A    between atoms: C_9  and  C_10
REMARK    8  A    between atoms: C_13  and  N_14
REMARK    9  A    between atoms: N_17  and  C_18
REMARK                            x       y       z     vdW  Elec       q    Type
REMARK                         _______ _______ _______ _____ _____    ______ ____
ROOT
ATOM      1  C   UNL     1       8.503   8.849  18.485  0.00  0.00    +0.000 A 
ATOM      2  C   UNL     1       8.743   7.703  19.252  0.00  0.00    +0.000 A 
ATOM      3  C   UNL     1       8.043   6.513  19.029  0.00  0.00    +0.000 A 
ATOM      4  C   UNL     1       7.080   6.419  18.024  0.00  0.00    +0.000 A 
ATOM      5  C   UNL     1       6.845   7.545  17.225  0.00  0.00    +0.000 A 
ATOM      6  C   UNL     1       7.533   8.744  17.465  0.00  0.00    +0.000 A 
ENDROOT
BRANCH   1   9
ATOM      7  C   UNL     1       9.923  11.649  20.359  0.00  0.00    +0.000 A 
ATOM      8  N   UNL     1       9.300  10.494  20.036  0.00  0.00    +0.000 NA
ATOM      9  C   UNL     1       9.231  10.100  18.751  0.00  0.00    +0.000 A 
ATOM     10  N   UNL     1       9.740  10.751  17.699  0.00  0.00    +0.000 NA
ATOM     11  C   UNL     1      10.328  11.932  18.005  0.00  0.00    +0.000 A 
ATOM     12  C   UNL     1      10.886  12.831  17.049  0.00  0.00    +0.000 A 
ATOM     13  C   UNL     1      11.421  13.954  17.634  0.00  0.00    +0.000 A 
ATOM     14  S   UNL     1      11.257  13.927  19.335  0.00  0.00    +0.000 S 
ATOM     15  C   UNL     1      10.443  12.408  19.307  0.00  0.00    +0.000 A 
BRANCH   7  16
ATOM     16  N   UNL     1       9.989  12.061  21.692  0.00  0.00    +0.000 N 
ATOM     17  H   UNL     1      10.226  11.291  22.318  0.00  0.00    +0.000 HD
BRANCH  16  18
ATOM     18  C   UNL     1       8.845  12.829  22.180  0.00  0.00    +0.000 C 
BRANCH  18  19
ATOM     19  C   UNL     1       7.848  11.914  22.931  0.00  0.00    +0.000 C 
BRANCH  19  21
ATOM     20  C   UNL     1       6.659  13.657  24.152  0.00  0.00    +0.000 C 
ATOM     21  N   UNL     1       7.436  12.419  24.267  0.00  0.00    +0.000 NA
ATOM     22  C   UNL     1       6.625  11.403  24.947  0.00  0.00    +0.000 C 
ENDBRANCH  19  21
ENDBRANCH  18  19
ENDBRANCH  16  18
ENDBRANCH   7  16
ENDBRANCH   1   9
BRANCH   4  23
ATOM     23  N   UNL     1       6.349   5.231  17.784  0.00  0.00    +0.000 N 
ATOM     24  C   UNL     1       5.144   4.923  18.400  0.00  0.00    +0.000 C 
ATOM     25  O   UNL     1       4.513   5.684  19.124  0.00  0.00    +0.000 OA
ATOM     26  N   UNL     1       4.726   3.629  18.118  0.00  0.00    +0.000 N 
ATOM     27  H   UNL     1       6.577   4.700  16.956  0.00  0.00    +0.000 HD
ATOM     28  H   UNL     1       5.481   2.955  18.068  0.00  0.00    +0.000 HD
BRANCH  26  29
ATOM     29  C   UNL     1       3.524   3.139  18.695  0.00  0.00    +0.000 A 
ATOM     30  C   UNL     1       3.453   2.756  20.039  0.00  0.00    +0.000 A 
ATOM     31  C   UNL     1       2.261   2.254  20.566  0.00  0.00    +0.000 A 
ATOM     32  C   UNL     1       1.136   2.115  19.756  0.00  0.00    +0.000 A 
ATOM     33  C   UNL     1       1.200   2.487  18.413  0.00  0.00    +0.000 A 
ATOM     34  C   UNL     1       2.385   3.012  17.898  0.00  0.00    +0.000 A 
ATOM     35  F   UNL     1       2.446   3.331  16.595  0.00  0.00    +0.000 F 
ENDBRANCH  26  29
ENDBRANCH   4  23
TORSDOF 7
ENDMDL
MODEL 8
REMARK VINA RESULT:      -7.8      6.498     10.030
REMARK  Name = 
REMARK  9 active torsions:
REMARK  status: ('A' for Active; 'I' for Inactive)
REMARK    1  A    between atoms: C_1  and  N_2
REMARK    2  A    between atoms: N_2  and  C_3
REMARK    3  A    between atoms: N_2  and  C_4
REMARK    4  A    between atoms: C_4  and  C_5
REMARK    5  A    between atoms: C_5  and  N_6
REMARK    6  A    between atoms: N_6  and  C_7
REMARK    7  A    between atoms: C_9  and  C_10
REMARK    8  A    between atoms: C_13  and  N_14
REMARK    9  A    between atoms: N_17  and  C_18
REMARK                            x       y       z     vdW  Elec       q    Type
REMARK                         _______ _______ _______ _____ _____    ______ ____
ROOT
ATOM      1  C   UNL     1       2.479   7.784  18.569  0.00  0.00    +0.000 A 
ATOM      2  C   UNL     1       1.981   8.758  17.695  0.00  0.00    +0.000 A 
ATOM      3  C   UNL     1       1.009   9.678  18.102  0.00  0.00    +0.000 A 
ATOM      4  C   UNL     1       0.502   9.666  19.401  0.00  0.00    +0.000 A 
ATOM      5  C   UNL     1       1.009   8.719  20.301  0.00  0.00    +0.000 A 
ATOM      6  C   UNL     1       1.967   7.783  19.884  0.00  0.00    +0.000 A 
ENDROOT
BRANCH   1   9
ATOM      7  C   UNL     1       4.769   4.935  18.665  0.00  0.00    +0.000 A 
ATOM      8  N   UNL     1       3.830   5.849  18.993  0.00  0.00    +0.000 NA
ATOM      9  C   UNL     1       3.483   6.809  18.116  0.00  0.00    +0.000 A 
ATOM     10  N   UNL     1       3.984   6.968  16.885  0.00  0.00    +0.000 NA
ATOM     11  C   UNL     1       4.958   6.086  16.560  0.00  0.00    +0.000 A 
ATOM     12  C   UNL     1       5.683   6.094  15.332  0.00  0.00    +0.000 A 
ATOM     13  C   UNL     1       6.613   5.084  15.264  0.00  0.00    +0.000 A 
ATOM     14  S   UNL     1       6.613   4.121  16.675  0.00  0.00    +0.000 S 
ATOM     15  C   UNL     1       5.371   5.064  17.409  0.00  0.00    +0.000 A 
BRANCH   7  16
ATOM     16  N   UNL     1       5.134   3.944  19.578  0.00  0.00    +0.000 N 
ATOM     17  H   UNL     1       6.136   3.754  19.554  0.00  0.00    +0.000 HD
BRANCH  16  18
ATOM     18  C   UNL     1       4.345   2.714  19.534  0.00  0.00    +0.000 C 
BRANCH  18  19
ATOM     19  C   UNL     1       3.208   2.750  20.583  0.00  0.00    +0.000 C 
BRANCH  19  21
ATOM     20  C   UNL     1       1.012   3.780  20.340  0.00  0.00    +0.000 C 
ATOM     21  N   UNL     1       1.842   2.615  20.015  0.00  0.00    +0.000 NA
ATOM     22  C   UNL     1       1.928   2.477  18.556  0.00  0.00    +0.000 C 
ENDBRANCH  19  21
ENDBRANCH  18  19
ENDBRANCH  16  18
ENDBRANCH   7  16
ENDBRANCH   1   9
BRANCH   4  23
ATOM     23  N   UNL     1      -0.490  10.577  19.837  0.00  0.00    +0.000 N 
ATOM     24  C   UNL     1      -0.222  11.720  20.577  0.00  0.00    +0.000 C 
ATOM     25  O   UNL     1       0.899  12.140  20.837  0.00  0.00    +0.000 OA
ATOM     26  N   UNL     1      -1.382  12.343  21.017  0.00  0.00    +0.000 N 
ATOM     27  H   UNL     1      -1.394  10.535  19.389  0.00  0.00    +0.000 HD
ATOM     28  H   UNL     1      -2.118  11.701  21.286  0.00  0.00    +0.000 HD
BRANCH  26  29
ATOM     29  C   UNL     1      -1.289  13.513  21.817  0.00  0.00    +0.000 A 
ATOM     30  C   UNL     1      -1.103  14.781  21.253  0.00  0.00    +0.000 A 
ATOM     31  C   UNL     1      -0.991  15.906  22.073  0.00  0.00    +0.000 A 
ATOM     32  C   UNL     1      -1.046  15.777  23.459  0.00  0.00    +0.000 A 
ATOM     33  C   UNL     1      -1.223  14.516  24.030  0.00  0.00    +0.000 A 
ATOM     34  C   UNL     1      -1.361  13.399  23.207  0.00  0.00    +0.000 A 
ATOM     35  F   UNL     1      -1.493  12.187  23.769  0.00  0.00    +0.000 F 
ENDBRANCH  26  29
ENDBRANCH   4  23
TORSDOF 7
ENDMDL
MODEL 9
REMARK VINA RESULT:      -7.8      5.909     10.678
REMARK  Name = 
REMARK  9 active torsions:
REMARK  status: ('A' for Active; 'I' for Inactive)
REMARK    1  A    between atoms: C_1  and  N_2
REMARK    2  A    between atoms: N_2  and  C_3
REMARK    3  A    between atoms: N_2  and  C_4
REMARK    4  A    between atoms: C_4  and  C_5
REMARK    5  A    between atoms: C_5  and  N_6
REMARK    6  A    between atoms: N_6  and  C_7
REMARK    7  A    between atoms: C_9  and  C_10
REMARK    8  A    between atoms: C_13  and  N_14
REMARK    9  A    between atoms: N_17  and  C_18
REMARK                            x       y       z     vdW  Elec       q    Type
REMARK                         _______ _______ _______ _____ _____    ______ ____
ROOT
ATOM      1  C   UNL     1       2.036   7.977  19.099  0.00  0.00    +0.000 A 
ATOM      2  C   UNL     1       1.281   8.628  20.081  0.00  0.00    +0.000 A 
ATOM      3  C   UNL     1       0.828   9.940  19.908  0.00  0.00    +0.000 A 
ATOM      4  C   UNL     1       1.106  10.650  18.741  0.00  0.00    +0.000 A 
ATOM      5  C   UNL     1       1.835  10.008  17.731  0.00  0.00    +0.000 A 
ATOM      6  C   UNL     1       2.307   8.700  17.918  0.00  0.00    +0.000 A 
ENDROOT
BRANCH   1   9
ATOM      7  C   UNL     1       3.830   4.851  18.484  0.00  0.00    +0.000 A 
ATOM      8  N   UNL     1       3.363   6.114  18.379  0.00  0.00    +0.000 NA
ATOM      9  C   UNL     1       2.525   6.605  19.310  0.00  0.00    +0.000 A 
ATOM     10  N   UNL     1       2.080   5.953  20.391  0.00  0.00    +0.000 NA
ATOM     11  C   UNL     1       2.505   4.672  20.484  0.00  0.00    +0.000 A 
ATOM     12  C   UNL     1       2.118   3.761  21.511  0.00  0.00    +0.000 A 
ATOM     13  C   UNL     1       2.701   2.525  21.364  0.00  0.00    +0.000 A 
ATOM     14  S   UNL     1       3.720   2.458  19.995  0.00  0.00    +0.000 S 
ATOM     15  C   UNL     1       3.374   4.091  19.566  0.00  0.00    +0.000 A 
BRANCH   7  16
ATOM     16  N   UNL     1       4.695   4.339  17.514  0.00  0.00    +0.000 N 
ATOM     17  H   UNL     1       4.453   3.383  17.254  0.00  0.00    +0.000 HD
BRANCH  16  18
ATOM     18  C   UNL     1       6.123   4.483  17.792  0.00  0.00    +0.000 C 
BRANCH  18  19
ATOM     19  C   UNL     1       6.747   5.595  16.915  0.00  0.00    +0.000 C 
BRANCH  19  21
ATOM     20  C   UNL     1       7.493   7.842  17.496  0.00  0.00    +0.000 C 
ATOM     21  N   UNL     1       7.786   6.408  17.598  0.00  0.00    +0.000 NA
ATOM     22  C   UNL     1       7.852   6.030  19.015  0.00  0.00    +0.000 C 
ENDBRANCH  19  21
ENDBRANCH  18  19
ENDBRANCH  16  18
ENDBRANCH   7  16
ENDBRANCH   1   9
BRANCH   4  23
ATOM     23  N   UNL     1       0.671  11.983  18.542  0.00  0.00    +0.000 N 
ATOM     24  C   UNL     1       1.211  13.081  19.197  0.00  0.00    +0.000 C 
ATOM     25  O   UNL     1       2.197  13.049  19.923  0.00  0.00    +0.000 OA
ATOM     26  N   UNL     1       0.493  14.244  18.950  0.00  0.00    +0.000 N 
ATOM     27  H   UNL     1       0.120  12.179  17.719  0.00  0.00    +0.000 HD
ATOM     28  H   UNL     1      -0.509  14.104  18.893  0.00  0.00    +0.000 HD
BRANCH  26  29
ATOM     29  C   UNL     1       0.892  15.459  19.568  0.00  0.00    +0.000 A 
ATOM     30  C   UNL     1       0.319  15.901  20.767  0.00  0.00    +0.000 A 
ATOM     31  C   UNL     1       0.719  17.113  21.333  0.00  0.00    +0.000 A 
ATOM     32  C   UNL     1       1.678  17.903  20.703  0.00  0.00    +0.000 A 
ATOM     33  C   UNL     1       2.248  17.474  19.503  0.00  0.00    +0.000 A 
ATOM     34  C   UNL     1       1.866  16.251  18.956  0.00  0.00    +0.000 A 
ATOM     35  F   UNL     1       2.393  15.867  17.782  0.00  0.00    +0.000 F 
ENDBRANCH  26  29
ENDBRANCH   4  23
TORSDOF 7
ENDMDL
