MODEL 1
REMARK VINA RESULT:      -9.6      0.000      0.000
REMARK  Name = 
REMARK  4 active torsions:
REMARK  status: ('A' for Active; 'I' for Inactive)
REMARK    1  A    between atoms: C_1  and  N_2
REMARK    2  A    between atoms: C_7  and  C_8
REMARK    3  A    between atoms: C_14  and  C_15
REMARK    4  A    between atoms: C_20  and  O_21
REMARK                            x       y       z     vdW  Elec       q    Type
REMARK                         _______ _______ _______ _____ _____    ______ ____
ROOT
ATOM      1  C   UNL     1       4.034   6.237  17.243  0.00  0.00    +0.000 A 
ATOM      2  C   UNL     1       4.882   6.893  16.353  0.00  0.00    +0.000 A 
ATOM      3  N   UNL     1       5.764   6.304  15.522  0.00  0.00    +0.000 NA
ATOM      4  C   UNL     1       5.821   4.979  15.588  0.00  0.00    +0.000 A 
ATOM      5  N   UNL     1       6.760   4.337  14.812  0.00  0.00    +0.000 N 
ATOM      6  N   UNL     1       5.014   4.227  16.332  0.00  0.00    +0.000 NA
ATOM      7  C   UNL     1       4.139   4.838  17.178  0.00  0.00    +0.000 A 
ATOM      8  H   UNL     1       6.975   4.892  13.997  0.00  0.00    +0.000 HD
ATOM      9  H   UNL     1       6.487   3.375  14.680  0.00  0.00    +0.000 HD
ENDROOT
BRANCH   1  16
ATOM     10  C   UNL     1      -0.058   9.198  21.704  0.00  0.00    +0.000 C 
ATOM     11  N   UNL     1       0.541   9.373  20.401  0.00  0.00    +0.000 N 
ATOM     12  C   UNL     1       0.311  10.436  19.568  0.00  0.00    +0.000 A 
ATOM     13  C   UNL     1       1.016  10.218  18.406  0.00  0.00    +0.000 A 
ATOM     14  C   UNL     1       1.711   8.985  18.542  0.00  0.00    +0.000 A 
ATOM     15  C   UNL     1       2.557   8.234  17.698  0.00  0.00    +0.000 A 
ATOM     16  C   UNL     1       3.156   7.033  18.142  0.00  0.00    +0.000 A 
ATOM     17  C   UNL     1       2.900   6.631  19.462  0.00  0.00    +0.000 A 
ATOM     18  C   UNL     1       2.008   7.314  20.297  0.00  0.00    +0.000 A 
ATOM     19  C   UNL     1       1.429   8.491  19.815  0.00  0.00    +0.000 A 
ENDBRANCH   1  16
BRANCH   7  20
ATOM     20  C   UNL     1       3.311   3.863  17.952  0.00  0.00    +0.000 A 
ATOM     21  C   UNL     1       1.927   3.727  17.713  0.00  0.00    +0.000 A 
ATOM     22  C   UNL     1       1.120   2.868  18.470  0.00  0.00    +0.000 A 
ATOM     23  C   UNL     1       1.687   2.058  19.443  0.00  0.00    +0.000 A 
ATOM     24  C   UNL     1       3.058   2.117  19.671  0.00  0.00    +0.000 A 
ATOM     25  C   UNL     1       3.851   3.021  18.951  0.00  0.00    +0.000 A 
BRANCH  25  26
ATOM     26  O   UNL     1       5.181   3.092  19.279  0.00  0.00    +0.000 OA
ATOM     27  H   UNL     1       5.349   2.531  20.053  0.00  0.00    +0.000 HD
ENDBRANCH  25  26
ENDBRANCH   7  20
TORSDOF 3
ENDMDL
MODEL 2
REMARK VINA RESULT:      -9.4      0.759      1.575
REMARK  Name = 
REMARK  4 active torsions:
REMARK  status: ('A' for Active; 'I' for Inactive)
REMARK    1  A    between atoms: C_1  and  N_2
REMARK    2  A    between atoms: C_7  and  C_8
REMARK    3  A    between atoms: C_14  and  C_15
REMARK    4  A    between atoms: C_20  and  O_21
REMARK                            x       y       z     vdW  Elec       q    Type
REMARK                         _______ _______ _______ _____ _____    ______ ____
ROOT
ATOM      1  C   UNL     1       4.379   6.438  17.602  0.00  0.00    +0.000 A 
ATOM      2  C   UNL     1       5.462   7.070  16.995  0.00  0.00    +0.000 A 
ATOM      3  N   UNL     1       6.546   6.458  16.478  0.00  0.00    +0.000 NA
ATOM      4  C   UNL     1       6.565   5.135  16.584  0.00  0.00    +0.000 A 
ATOM      5  N   UNL     1       7.687   4.471  16.138  0.00  0.00    +0.000 N 
ATOM      6  N   UNL     1       5.565   4.404  17.065  0.00  0.00    +0.000 NA
ATOM      7  C   UNL     1       4.482   5.037  17.598  0.00  0.00    +0.000 A 
ATOM      8  H   UNL     1       8.142   5.007  15.414  0.00  0.00    +0.000 HD
ATOM      9  H   UNL     1       7.455   3.508  15.948  0.00  0.00    +0.000 HD
ENDROOT
BRANCH   1  16
ATOM     10  C   UNL     1      -0.426  10.672  19.698  0.00  0.00    +0.000 C 
ATOM     11  N   UNL     1       0.336   9.510  20.095  0.00  0.00    +0.000 N 
ATOM     12  C   UNL     1       0.243   8.890  21.313  0.00  0.00    +0.000 A 
ATOM     13  C   UNL     1       1.157   7.861  21.330  0.00  0.00    +0.000 A 
ATOM     14  C   UNL     1       1.821   7.847  20.073  0.00  0.00    +0.000 A 
ATOM     15  C   UNL     1       2.852   7.062  19.513  0.00  0.00    +0.000 A 
ATOM     16  C   UNL     1       3.281   7.257  18.181  0.00  0.00    +0.000 A 
ATOM     17  C   UNL     1       2.625   8.242  17.428  0.00  0.00    +0.000 A 
ATOM     18  C   UNL     1       1.652   9.086  17.976  0.00  0.00    +0.000 A 
ATOM     19  C   UNL     1       1.264   8.865  19.300  0.00  0.00    +0.000 A 
ENDBRANCH   1  16
BRANCH   7  20
ATOM     20  C   UNL     1       3.449   4.083  18.106  0.00  0.00    +0.000 A 
ATOM     21  C   UNL     1       2.105   4.169  17.686  0.00  0.00    +0.000 A 
ATOM     22  C   UNL     1       1.108   3.329  18.198  0.00  0.00    +0.000 A 
ATOM     23  C   UNL     1       1.439   2.322  19.093  0.00  0.00    +0.000 A 
ATOM     24  C   UNL     1       2.764   2.163  19.489  0.00  0.00    +0.000 A 
ATOM     25  C   UNL     1       3.746   3.045  19.018  0.00  0.00    +0.000 A 
BRANCH  25  26
ATOM     26  O   UNL     1       5.018   2.890  19.509  0.00  0.00    +0.000 OA
ATOM     27  H   UNL     1       5.255   3.671  20.033  0.00  0.00    +0.000 HD
ENDBRANCH  25  26
ENDBRANCH   7  20
TORSDOF 3
ENDMDL
MODEL 3
REMARK VINA RESULT:      -9.4      1.523      2.263
REMARK  Name = 
REMARK  4 active torsions:
REMARK  status: ('A' for Active; 'I' for Inactive)
REMARK    1  A    between atoms: C_1  and  N_2
REMARK    2  A    between atoms: C_7  and  C_8
REMARK    3  A    between atoms: C_14  and  C_15
REMARK    4  A    between atoms: C_20  and  O_21
REMARK                            x       y       z     vdW  Elec       q    Type
REMARK                         _______ _______ _______ _____ _____    ______ ____
ROOT
ATOM      1  C   UNL     1       3.565   6.481  17.912  0.00  0.00    +0.000 A 
ATOM      2  C   UNL     1       4.511   6.873  16.969  0.00  0.00    +0.000 A 
ATOM      3  N   UNL     1       5.454   6.082  16.419  0.00  0.00    +0.000 NA
ATOM      4  C   UNL     1       5.470   4.825  16.844  0.00  0.00    +0.000 A 
ATOM      5  N   UNL     1       6.463   3.998  16.367  0.00  0.00    +0.000 N 
ATOM      6  N   UNL     1       4.577   4.301  17.678  0.00  0.00    +0.000 NA
ATOM      7  C   UNL     1       3.639   5.116  18.237  0.00  0.00    +0.000 A 
ATOM      8  H   UNL     1       6.770   4.313  15.458  0.00  0.00    +0.000 HD
ATOM      9  H   UNL     1       6.180   3.036  16.472  0.00  0.00    +0.000 HD
ENDROOT
BRANCH   1  16
ATOM     10  C   UNL     1      -0.489  11.496  19.870  0.00  0.00    +0.000 C 
ATOM     11  N   UNL     1       0.132  10.274  20.328  0.00  0.00    +0.000 N 
ATOM     12  C   UNL     1       0.031   9.771  21.598  0.00  0.00    +0.000 A 
ATOM     13  C   UNL     1       0.798   8.629  21.659  0.00  0.00    +0.000 A 
ATOM     14  C   UNL     1       1.376   8.424  20.376  0.00  0.00    +0.000 A 
ATOM     15  C   UNL     1       2.255   7.460  19.836  0.00  0.00    +0.000 A 
ATOM     16  C   UNL     1       2.625   7.488  18.472  0.00  0.00    +0.000 A 
ATOM     17  C   UNL     1       2.062   8.493  17.670  0.00  0.00    +0.000 A 
ATOM     18  C   UNL     1       1.247   9.504  18.191  0.00  0.00    +0.000 A 
ATOM     19  C   UNL     1       0.914   9.445  19.547  0.00  0.00    +0.000 A 
ENDBRANCH   1  16
BRANCH   7  20
ATOM     20  C   UNL     1       2.716   4.385  19.158  0.00  0.00    +0.000 A 
ATOM     21  C   UNL     1       2.966   4.324  20.546  0.00  0.00    +0.000 A 
ATOM     22  C   UNL     1       2.152   3.590  21.418  0.00  0.00    +0.000 A 
ATOM     23  C   UNL     1       1.013   2.956  20.941  0.00  0.00    +0.000 A 
ATOM     24  C   UNL     1       0.697   3.042  19.589  0.00  0.00    +0.000 A 
ATOM     25  C   UNL     1       1.547   3.727  18.711  0.00  0.00    +0.000 A 
BRANCH  25  26
ATOM     26  O   UNL     1       1.226   3.705  17.377  0.00  0.00    +0.000 OA
ATOM     27  H   UNL     1       2.038   3.786  16.853  0.00  0.00    +0.000 HD
ENDBRANCH  25  26
ENDBRANCH   7  20
TORSDOF 3
ENDMDL
MODEL 4
REMARK VINA RESULT:      -9.0      1.957      3.764
REMARK  Name = 
REMARK  4 active torsions:
REMARK  status: ('A' for Active; 'I' for Inactive)
REMARK    1  A    between atoms: C_1  and  N_2
REMARK    2  A    between atoms: C_7  and  C_8
REMARK    3  A    between atoms: C_14  and  C_15
REMARK    4  A    between atoms: C_20  and  O_21
REMARK                            x       y       z     vdW  Elec       q    Type
REMARK                         _______ _______ _______ _____ _____    ______ ____
ROOT
ATOM      1  C   UNL     1       2.933   4.766  19.102  0.00  0.00    +0.000 A 
ATOM      2  C   UNL     1       2.136   3.676  19.445  0.00  0.00    +0.000 A 
ATOM      3  N   UNL     1       2.431   2.380  19.221  0.00  0.00    +0.000 NA
ATOM      4  C   UNL     1       3.583   2.151  18.602  0.00  0.00    +0.000 A 
ATOM      5  N   UNL     1       3.892   0.847  18.284  0.00  0.00    +0.000 N 
ATOM      6  N   UNL     1       4.471   3.090  18.293  0.00  0.00    +0.000 NA
ATOM      7  C   UNL     1       4.153   4.397  18.512  0.00  0.00    +0.000 A 
ATOM      8  H   UNL     1       3.437   0.215  18.926  0.00  0.00    +0.000 HD
ATOM      9  H   UNL     1       4.888   0.760  18.149  0.00  0.00    +0.000 HD
ENDROOT
BRANCH   1  16
ATOM     10  C   UNL     1       0.299  10.718  20.850  0.00  0.00    +0.000 C 
ATOM     11  N   UNL     1       0.984  10.035  19.777  0.00  0.00    +0.000 N 
ATOM     12  C   UNL     1       1.283  10.587  18.560  0.00  0.00    +0.000 A 
ATOM     13  C   UNL     1       1.886   9.615  17.795  0.00  0.00    +0.000 A 
ATOM     14  C   UNL     1       1.967   8.431  18.579  0.00  0.00    +0.000 A 
ATOM     15  C   UNL     1       2.448   7.125  18.342  0.00  0.00    +0.000 A 
ATOM     16  C   UNL     1       2.441   6.146  19.361  0.00  0.00    +0.000 A 
ATOM     17  C   UNL     1       1.964   6.530  20.624  0.00  0.00    +0.000 A 
ATOM     18  C   UNL     1       1.414   7.793  20.869  0.00  0.00    +0.000 A 
ATOM     19  C   UNL     1       1.431   8.728  19.831  0.00  0.00    +0.000 A 
ENDBRANCH   1  16
BRANCH   7  20
ATOM     20  C   UNL     1       5.245   5.332  18.104  0.00  0.00    +0.000 A 
ATOM     21  C   UNL     1       5.159   6.081  16.910  0.00  0.00    +0.000 A 
ATOM     22  C   UNL     1       6.198   6.913  16.475  0.00  0.00    +0.000 A 
ATOM     23  C   UNL     1       7.329   7.084  17.261  0.00  0.00    +0.000 A 
ATOM     24  C   UNL     1       7.428   6.411  18.475  0.00  0.00    +0.000 A 
ATOM     25  C   UNL     1       6.412   5.534  18.876  0.00  0.00    +0.000 A 
BRANCH  25  26
ATOM     26  O   UNL     1       6.606   4.836  20.041  0.00  0.00    +0.000 OA
ATOM     27  H   UNL     1       7.457   4.373  19.997  0.00  0.00    +0.000 HD
ENDBRANCH  25  26
ENDBRANCH   7  20
TORSDOF 3
ENDMDL
MODEL 5
REMARK VINA RESULT:      -9.0      1.978      3.969
REMARK  Name = 
REMARK  4 active torsions:
REMARK  status: ('A' for Active; 'I' for Inactive)
REMARK    1  A    between atoms: C_1  and  N_2
REMARK    2  A    between atoms: C_7  and  C_8
REMARK    3  A    between atoms: C_14  and  C_15
REMARK    4  A    between atoms: C_20  and  O_21
REMARK                            x       y       z     vdW  Elec       q    Type
REMARK                         _______ _______ _______ _____ _____    ______ ____
ROOT
ATOM      1  C   UNL     1       2.918   4.900  18.871  0.00  0.00    +0.000 A 
ATOM      2  C   UNL     1       2.084   3.826  19.174  0.00  0.00    +0.000 A 
ATOM      3  N   UNL     1       2.389   2.521  19.025  0.00  0.00    +0.000 NA
ATOM      4  C   UNL     1       3.592   2.266  18.526  0.00  0.00    +0.000 A 
ATOM      5  N   UNL     1       3.921   0.950  18.285  0.00  0.00    +0.000 N 
ATOM      6  N   UNL     1       4.514   3.190  18.271  0.00  0.00    +0.000 NA
ATOM      7  C   UNL     1       4.185   4.504  18.413  0.00  0.00    +0.000 A 
ATOM      8  H   UNL     1       3.402   0.343  18.903  0.00  0.00    +0.000 HD
ATOM      9  H   UNL     1       4.924   0.854  18.249  0.00  0.00    +0.000 HD
ENDROOT
BRANCH   1  16
ATOM     10  C   UNL     1       1.009  11.362  18.972  0.00  0.00    +0.000 C 
ATOM     11  N   UNL     1       1.109  10.180  19.797  0.00  0.00    +0.000 N 
ATOM     12  C   UNL     1       0.792  10.123  21.128  0.00  0.00    +0.000 A 
ATOM     13  C   UNL     1       1.068   8.849  21.571  0.00  0.00    +0.000 A 
ATOM     14  C   UNL     1       1.560   8.101  20.466  0.00  0.00    +0.000 A 
ATOM     15  C   UNL     1       2.024   6.778  20.302  0.00  0.00    +0.000 A 
ATOM     16  C   UNL     1       2.413   6.289  19.034  0.00  0.00    +0.000 A 
ATOM     17  C   UNL     1       2.294   7.161  17.941  0.00  0.00    +0.000 A 
ATOM     18  C   UNL     1       1.908   8.498  18.083  0.00  0.00    +0.000 A 
ATOM     19  C   UNL     1       1.541   8.943  19.356  0.00  0.00    +0.000 A 
ENDBRANCH   1  16
BRANCH   7  20
ATOM     20  C   UNL     1       5.319   5.420  18.078  0.00  0.00    +0.000 A 
ATOM     21  C   UNL     1       5.300   6.208  16.907  0.00  0.00    +0.000 A 
ATOM     22  C   UNL     1       6.378   7.023  16.541  0.00  0.00    +0.000 A 
ATOM     23  C   UNL     1       7.481   7.137  17.375  0.00  0.00    +0.000 A 
ATOM     24  C   UNL     1       7.514   6.423  18.569  0.00  0.00    +0.000 A 
ATOM     25  C   UNL     1       6.459   5.564  18.902  0.00  0.00    +0.000 A 
BRANCH  25  26
ATOM     26  O   UNL     1       6.587   4.824  20.050  0.00  0.00    +0.000 OA
ATOM     27  H   UNL     1       7.127   5.316  20.687  0.00  0.00    +0.000 HD
ENDBRANCH  25  26
ENDBRANCH   7  20
TORSDOF 3
ENDMDL
MODEL 6
REMARK VINA RESULT:      -9.0      1.380      1.679
REMARK  Name = 
REMARK  4 active torsions:
REMARK  status: ('A' for Active; 'I' for Inactive)
REMARK    1  A    between atoms: C_1  and  N_2
REMARK    2  A    between atoms: C_7  and  C_8
REMARK    3  A    between atoms: C_14  and  C_15
REMARK    4  A    between atoms: C_20  and  O_21
REMARK                            x       y       z     vdW  Elec       q    Type
REMARK                         _______ _______ _______ _____ _____    ______ ____
ROOT
ATOM      1  C   UNL     1       3.645   6.209  17.834  0.00  0.00    +0.000 A 
ATOM      2  C   UNL     1       4.523   6.623  16.836  0.00  0.00    +0.000 A 
ATOM      3  N   UNL     1       5.382   5.834  16.160  0.00  0.00    +0.000 NA
ATOM      4  C   UNL     1       5.380   4.553  16.509  0.00  0.00    +0.000 A 
ATOM      5  N   UNL     1       6.293   3.720  15.899  0.00  0.00    +0.000 N 
ATOM      6  N   UNL     1       4.539   4.012  17.385  0.00  0.00    +0.000 NA
ATOM      7  C   UNL     1       3.688   4.825  18.070  0.00  0.00    +0.000 A 
ATOM      8  H   UNL     1       6.535   4.079  14.987  0.00  0.00    +0.000 HD
ATOM      9  H   UNL     1       5.980   2.765  15.973  0.00  0.00    +0.000 HD
ENDROOT
BRANCH   1  16
ATOM     10  C   UNL     1      -0.369  10.211  21.480  0.00  0.00    +0.000 C 
ATOM     11  N   UNL     1       0.295  10.106  20.201  0.00  0.00    +0.000 N 
ATOM     12  C   UNL     1       0.186  11.017  19.184  0.00  0.00    +0.000 A 
ATOM     13  C   UNL     1       0.918  10.544  18.118  0.00  0.00    +0.000 A 
ATOM     14  C   UNL     1       1.503   9.307  18.505  0.00  0.00    +0.000 A 
ATOM     15  C   UNL     1       2.319   8.358  17.852  0.00  0.00    +0.000 A 
ATOM     16  C   UNL     1       2.799   7.215  18.531  0.00  0.00    +0.000 A 
ATOM     17  C   UNL     1       2.457   7.075  19.885  0.00  0.00    +0.000 A 
ATOM     18  C   UNL     1       1.591   7.959  20.538  0.00  0.00    +0.000 A 
ATOM     19  C   UNL     1       1.131   9.071  19.828  0.00  0.00    +0.000 A 
ENDBRANCH   1  16
BRANCH   7  20
ATOM     20  C   UNL     1       2.816   4.074  19.024  0.00  0.00    +0.000 A 
ATOM     21  C   UNL     1       3.268   3.740  20.319  0.00  0.00    +0.000 A 
ATOM     22  C   UNL     1       2.494   2.981  21.206  0.00  0.00    +0.000 A 
ATOM     23  C   UNL     1       1.208   2.595  20.853  0.00  0.00    +0.000 A 
ATOM     24  C   UNL     1       0.701   2.954  19.609  0.00  0.00    +0.000 A 
ATOM     25  C   UNL     1       1.502   3.663  18.703  0.00  0.00    +0.000 A 
BRANCH  25  26
ATOM     26  O   UNL     1       0.976   3.915  17.461  0.00  0.00    +0.000 OA
ATOM     27  H   UNL     1       0.995   4.871  17.295  0.00  0.00    +0.000 HD
ENDBRANCH  25  26
ENDBRANCH   7  20
TORSDOF 3
ENDMDL
MODEL 7
REMARK VINA RESULT:      -8.8      2.242      4.138
REMARK  Name = 
REMARK  4 active torsions:
REMARK  status: ('A' for Active; 'I' for Inactive)
REMARK    1  A    between atoms: C_1  and  N_2
REMARK    2  A    between atoms: C_7  and  C_8
REMARK    3  A    between atoms: C_14  and  C_15
REMARK    4  A    between atoms: C_20  and  O_21
REMARK                            x       y       z     vdW  Elec       q    Type
REMARK                         _______ _______ _______ _____ _____    ______ ____
ROOT
ATOM      1  C   UNL     1       2.977   4.629  18.918  0.00  0.00    +0.000 A 
ATOM      2  C   UNL     1       2.090   3.577  19.134  0.00  0.00    +0.000 A 
ATOM      3  N   UNL     1       2.371   2.265  19.002  0.00  0.00    +0.000 NA
ATOM      4  C   UNL     1       3.608   1.979  18.613  0.00  0.00    +0.000 A 
ATOM      5  N   UNL     1       3.921   0.656  18.392  0.00  0.00    +0.000 N 
ATOM      6  N   UNL     1       4.574   2.878  18.452  0.00  0.00    +0.000 NA
ATOM      7  C   UNL     1       4.270   4.201  18.574  0.00  0.00    +0.000 A 
ATOM      8  H   UNL     1       3.331   0.061  18.954  0.00  0.00    +0.000 HD
ATOM      9  H   UNL     1       4.920   0.532  18.447  0.00  0.00    +0.000 HD
ENDROOT
BRANCH   1  16
ATOM     10  C   UNL     1       1.223  11.136  18.883  0.00  0.00    +0.000 C 
ATOM     11  N   UNL     1       1.249   9.956  19.717  0.00  0.00    +0.000 N 
ATOM     12  C   UNL     1       0.856   9.915  21.029  0.00  0.00    +0.000 A 
ATOM     13  C   UNL     1       1.076   8.637  21.492  0.00  0.00    +0.000 A 
ATOM     14  C   UNL     1       1.611   7.871  20.420  0.00  0.00    +0.000 A 
ATOM     15  C   UNL     1       2.051   6.536  20.289  0.00  0.00    +0.000 A 
ATOM     16  C   UNL     1       2.498   6.031  19.046  0.00  0.00    +0.000 A 
ATOM     17  C   UNL     1       2.461   6.899  17.945  0.00  0.00    +0.000 A 
ATOM     18  C   UNL     1       2.100   8.246  18.058  0.00  0.00    +0.000 A 
ATOM     19  C   UNL     1       1.674   8.707  19.306  0.00  0.00    +0.000 A 
ENDBRANCH   1  16
BRANCH   7  20
ATOM     20  C   UNL     1       5.454   5.086  18.353  0.00  0.00    +0.000 A 
ATOM     21  C   UNL     1       6.398   5.314  19.378  0.00  0.00    +0.000 A 
ATOM     22  C   UNL     1       7.478   6.191  19.215  0.00  0.00    +0.000 A 
ATOM     23  C   UNL     1       7.694   6.811  17.992  0.00  0.00    +0.000 A 
ATOM     24  C   UNL     1       6.821   6.567  16.937  0.00  0.00    +0.000 A 
ATOM     25  C   UNL     1       5.709   5.735  17.124  0.00  0.00    +0.000 A 
BRANCH  25  26
ATOM     26  O   UNL     1       4.840   5.600  16.071  0.00  0.00    +0.000 OA
ATOM     27  H   UNL     1       5.228   5.005  15.411  0.00  0.00    +0.000 HD
ENDBRANCH  25  26
ENDBRANCH   7  20
TORSDOF 3
ENDMDL
MODEL 8
REMARK VINA RESULT:      -8.7      2.532      4.804
REMARK  Name = 
REMARK  4 active torsions:
REMARK  status: ('A' for Active; 'I' for Inactive)
REMARK    1  A    between atoms: C_1  and  N_2
REMARK    2  A    between atoms: C_7  and  C_8
REMARK    3  A    between atoms: C_14  and  C_15
REMARK    4  A    between atoms: C_20  and  O_21
REMARK                            x       y       z     vdW  Elec       q    Type
REMARK                         _______ _______ _______ _____ _____    ______ ____
ROOT
ATOM      1  C   UNL     1       5.433   4.520  15.809  0.00  0.00    +0.000 A 
ATOM      2  C   UNL     1       5.156   3.852  14.618  0.00  0.00    +0.000 A 
ATOM      3  N   UNL     1       5.881   3.923  13.484  0.00  0.00    +0.000 NA
ATOM      4  C   UNL     1       6.942   4.721  13.529  0.00  0.00    +0.000 A 
ATOM      5  N   UNL     1       7.672   4.885  12.373  0.00  0.00    +0.000 N 
ATOM      6  N   UNL     1       7.364   5.351  14.621  0.00  0.00    +0.000 NA
ATOM      7  C   UNL     1       6.612   5.281  15.755  0.00  0.00    +0.000 A 
ATOM      8  H   UNL     1       7.576   4.070  11.784  0.00  0.00    +0.000 HD
ATOM      9  H   UNL     1       8.600   5.205  12.602  0.00  0.00    +0.000 HD
ENDROOT
BRANCH   1  16
ATOM     10  C   UNL     1       1.015   3.239  20.734  0.00  0.00    +0.000 C 
ATOM     11  N   UNL     1       1.764   4.306  20.110  0.00  0.00    +0.000 N 
ATOM     12  C   UNL     1       1.680   5.629  20.454  0.00  0.00    +0.000 A 
ATOM     13  C   UNL     1       2.500   6.336  19.604  0.00  0.00    +0.000 A 
ATOM     14  C   UNL     1       3.114   5.409  18.719  0.00  0.00    +0.000 A 
ATOM     15  C   UNL     1       4.013   5.528  17.636  0.00  0.00    +0.000 A 
ATOM     16  C   UNL     1       4.499   4.387  16.959  0.00  0.00    +0.000 A 
ATOM     17  C   UNL     1       4.077   3.131  17.421  0.00  0.00    +0.000 A 
ATOM     18  C   UNL     1       3.132   2.983  18.442  0.00  0.00    +0.000 A 
ATOM     19  C   UNL     1       2.668   4.137  19.079  0.00  0.00    +0.000 A 
ENDBRANCH   1  16
BRANCH   7  20
ATOM     20  C   UNL     1       7.210   6.047  16.891  0.00  0.00    +0.000 A 
ATOM     21  C   UNL     1       7.365   7.449  16.826  0.00  0.00    +0.000 A 
ATOM     22  C   UNL     1       7.982   8.179  17.849  0.00  0.00    +0.000 A 
ATOM     23  C   UNL     1       8.395   7.539  19.009  0.00  0.00    +0.000 A 
ATOM     24  C   UNL     1       8.206   6.167  19.140  0.00  0.00    +0.000 A 
ATOM     25  C   UNL     1       7.642   5.433  18.088  0.00  0.00    +0.000 A 
BRANCH  25  26
ATOM     26  O   UNL     1       7.559   4.073  18.244  0.00  0.00    +0.000 OA
ATOM     27  H   UNL     1       6.851   3.730  17.677  0.00  0.00    +0.000 HD
ENDBRANCH  25  26
ENDBRANCH   7  20
TORSDOF 3
ENDMDL
MODEL 9
REMARK VINA RESULT:      -8.7      2.922      5.233
REMARK  Name = 
REMARK  4 active torsions:
REMARK  status: ('A' for Active; 'I' for Inactive)
REMARK    1  A    between atoms: C_1  and  N_2
REMARK    2  A    between atoms: C_7  and  C_8
REMARK    3  A    between atoms: C_14  and  C_15
REMARK    4  A    between atoms: C_20  and  O_21
REMARK                            x       y       z     vdW  Elec       q    Type
REMARK                         _______ _______ _______ _____ _____    ______ ____
ROOT
ATOM      1  C   UNL     1       5.483   4.571  15.599  0.00  0.00    +0.000 A 
ATOM      2  C   UNL     1       5.261   3.942  14.376  0.00  0.00    +0.000 A 
ATOM      3  N   UNL     1       6.051   4.028  13.287  0.00  0.00    +0.000 NA
ATOM      4  C   UNL     1       7.122   4.802  13.414  0.00  0.00    +0.000 A 
ATOM      5  N   UNL     1       7.919   4.981  12.305  0.00  0.00    +0.000 N 
ATOM      6  N   UNL     1       7.495   5.393  14.545  0.00  0.00    +0.000 NA
ATOM      7  C   UNL     1       6.678   5.308  15.633  0.00  0.00    +0.000 A 
ATOM      8  H   UNL     1       7.841   4.185  11.689  0.00  0.00    +0.000 HD
ATOM      9  H   UNL     1       8.839   5.275  12.595  0.00  0.00    +0.000 HD
ENDROOT
BRANCH   1  16
ATOM     10  C   UNL     1       1.156   4.617  20.765  0.00  0.00    +0.000 C 
ATOM     11  N   UNL     1       1.819   3.739  19.828  0.00  0.00    +0.000 N 
ATOM     12  C   UNL     1       1.707   2.374  19.819  0.00  0.00    +0.000 A 
ATOM     13  C   UNL     1       2.522   1.893  18.819  0.00  0.00    +0.000 A 
ATOM     14  C   UNL     1       3.143   3.007  18.190  0.00  0.00    +0.000 A 
ATOM     15  C   UNL     1       4.080   3.150  17.143  0.00  0.00    +0.000 A 
ATOM     16  C   UNL     1       4.484   4.426  16.691  0.00  0.00    +0.000 A 
ATOM     17  C   UNL     1       3.898   5.545  17.303  0.00  0.00    +0.000 A 
ATOM     18  C   UNL     1       3.024   5.437  18.391  0.00  0.00    +0.000 A 
ATOM     19  C   UNL     1       2.658   4.156  18.813  0.00  0.00    +0.000 A 
ENDBRANCH   1  16
BRANCH   7  20
ATOM     20  C   UNL     1       7.226   6.031  16.821  0.00  0.00    +0.000 A 
ATOM     21  C   UNL     1       7.386   7.433  16.814  0.00  0.00    +0.000 A 
ATOM     22  C   UNL     1       7.957   8.124  17.890  0.00  0.00    +0.000 A 
ATOM     23  C   UNL     1       8.317   7.441  19.044  0.00  0.00    +0.000 A 
ATOM     24  C   UNL     1       8.121   6.066  19.116  0.00  0.00    +0.000 A 
ATOM     25  C   UNL     1       7.603   5.372  18.014  0.00  0.00    +0.000 A 
BRANCH  25  26
ATOM     26  O   UNL     1       7.512   4.007  18.115  0.00  0.00    +0.000 OA
ATOM     27  H   UNL     1       7.779   3.735  19.007  0.00  0.00    +0.000 HD
ENDBRANCH  25  26
ENDBRANCH   7  20
TORSDOF 3
ENDMDL
