MODEL 1
REMARK VINA RESULT:      -7.6      0.000      0.000
REMARK  Name = 
REMARK  11 active torsions:
REMARK  status: ('A' for Active; 'I' for Inactive)
REMARK    1  A    between atoms: C_1  and  C_2
REMARK    2  A    between atoms: C_2  and  O_3
REMARK    3  A    between atoms: O_3  and  C_4
REMARK    4  A    between atoms: C_6  and  C_7
REMARK    5  A    between atoms: C_7  and  N_8
REMARK    6  A    between atoms: N_8  and  C_9
REMARK    7  A    between atoms: C_9  and  C_10
REMARK    8  A    between atoms: C_18  and  O_19
REMARK    9  A    between atoms: O_19  and  C_20
REMARK   10  A    between atoms: C_20  and  C_21
REMARK   11  A    between atoms: N_23  and  C_24
REMARK                            x       y       z     vdW  Elec       q    Type
REMARK                         _______ _______ _______ _____ _____    ______ ____
ROOT
ATOM      1  C   UNL     1       1.670   4.685  19.427  0.00  0.00    +0.000 A 
ATOM      2  C   UNL     1       2.219   4.024  18.317  0.00  0.00    +0.000 A 
ATOM      3  C   UNL     1       3.345   4.519  17.657  0.00  0.00    +0.000 A 
ATOM      4  C   UNL     1       3.808   5.786  17.988  0.00  0.00    +0.000 A 
ATOM      5  C   UNL     1       3.205   6.511  19.005  0.00  0.00    +0.000 A 
ATOM      6  C   UNL     1       2.123   5.987  19.736  0.00  0.00    +0.000 A 
ENDROOT
BRANCH   1   7
ATOM      7  O   UNL     1       0.760   4.075  20.256  0.00  0.00    +0.000 OA
BRANCH   7   9
ATOM      8  C   UNL     1       2.431   2.895  21.723  0.00  0.00    +0.000 C 
ATOM      9  C   UNL     1       1.134   2.842  20.905  0.00  0.00    +0.000 C 
ENDBRANCH   7   9
ENDBRANCH   1   7
BRANCH   3  10
ATOM     10  C   UNL     1       4.129   3.648  16.710  0.00  0.00    +0.000 C 
BRANCH  10  11
ATOM     11  N   UNL     1       4.933   4.515  15.854  0.00  0.00    +0.000 NA
ATOM     12  H   UNL     1       4.737   5.487  16.070  0.00  0.00    +0.000 HD
BRANCH  11  13
ATOM     13  C   UNL     1       6.358   4.267  15.973  0.00  0.00    +0.000 C 
BRANCH  13  14
ATOM     14  C   UNL     1       6.976   5.242  16.948  0.00  0.00    +0.000 A 
ATOM     15  C   UNL     1       7.058   6.605  16.639  0.00  0.00    +0.000 A 
ATOM     16  C   UNL     1       7.637   7.502  17.540  0.00  0.00    +0.000 A 
ATOM     17  C   UNL     1       8.139   7.047  18.757  0.00  0.00    +0.000 A 
ATOM     18  C   UNL     1       8.065   5.694  19.076  0.00  0.00    +0.000 A 
ATOM     19  C   UNL     1       7.485   4.796  18.179  0.00  0.00    +0.000 A 
ENDBRANCH  13  14
ENDBRANCH  11  13
ENDBRANCH  10  11
ENDBRANCH   3  10
BRANCH   6  20
ATOM     20  O   UNL     1       1.504   6.723  20.738  0.00  0.00    +0.000 OA
BRANCH  20  21
ATOM     21  C   UNL     1       1.593   8.142  20.537  0.00  0.00    +0.000 C 
BRANCH  21  22
ATOM     22  C   UNL     1       0.436   9.033  20.984  0.00  0.00    +0.000 C 
ATOM     23  O   UNL     1      -0.431   8.632  21.756  0.00  0.00    +0.000 OA
ATOM     24  N   UNL     1       0.434  10.287  20.437  0.00  0.00    +0.000 N 
ATOM     25  H   UNL     1       1.090  10.448  19.679  0.00  0.00    +0.000 HD
BRANCH  24  26
ATOM     26  C   UNL     1      -0.633  11.242  20.693  0.00  0.00    +0.000 C 
ATOM     27  C   UNL     1      -0.036  12.625  20.952  0.00  0.00    +0.000 C 
ATOM     28  C   UNL     1       0.585  13.229  19.693  0.00  0.00    +0.000 C 
ATOM     29  C   UNL     1      -0.387  13.228  18.515  0.00  0.00    +0.000 C 
ATOM     30  C   UNL     1      -1.002  11.853  18.263  0.00  0.00    +0.000 C 
ATOM     31  C   UNL     1      -1.634  11.284  19.532  0.00  0.00    +0.000 C 
ENDBRANCH  24  26
ENDBRANCH  21  22
ENDBRANCH  20  21
ENDBRANCH   6  20
TORSDOF 10
ENDMDL
MODEL 2
REMARK VINA RESULT:      -7.4      3.187      5.787
REMARK  Name = 
REMARK  11 active torsions:
REMARK  status: ('A' for Active; 'I' for Inactive)
REMARK    1  A    between atoms: C_1  and  C_2
REMARK    2  A    between atoms: C_2  and  O_3
REMARK    3  A    between atoms: O_3  and  C_4
REMARK    4  A    between atoms: C_6  and  C_7
REMARK    5  A    between atoms: C_7  and  N_8
REMARK    6  A    between atoms: N_8  and  C_9
REMARK    7  A    between atoms: C_9  and  C_10
REMARK    8  A    between atoms: C_18  and  O_19
REMARK    9  A    between atoms: O_19  and  C_20
REMARK   10  A    between atoms: C_20  and  C_21
REMARK   11  A    between atoms: N_23  and  C_24
REMARK                            x       y       z     vdW  Elec       q    Type
REMARK                         _______ _______ _______ _____ _____    ______ ____
ROOT
ATOM      1  C   UNL     1       0.987  10.448  20.506  0.00  0.00    +0.000 A 
ATOM      2  C   UNL     1       1.204   9.114  20.124  0.00  0.00    +0.000 A 
ATOM      3  C   UNL     1       1.735   8.791  18.875  0.00  0.00    +0.000 A 
ATOM      4  C   UNL     1       1.868   9.797  17.926  0.00  0.00    +0.000 A 
ATOM      5  C   UNL     1       1.546  11.108  18.244  0.00  0.00    +0.000 A 
ATOM      6  C   UNL     1       1.092  11.460  19.528  0.00  0.00    +0.000 A 
ENDROOT
BRANCH   1   7
ATOM      7  O   UNL     1       0.747  10.796  21.813  0.00  0.00    +0.000 OA
BRANCH   7   9
ATOM      8  C   UNL     1      -1.346  10.946  23.204  0.00  0.00    +0.000 C 
ATOM      9  C   UNL     1      -0.268  10.077  22.545  0.00  0.00    +0.000 C 
ENDBRANCH   7   9
ENDBRANCH   1   7
BRANCH   3  10
ATOM     10  C   UNL     1       2.286   7.415  18.603  0.00  0.00    +0.000 C 
BRANCH  10  11
ATOM     11  N   UNL     1       2.830   6.888  19.851  0.00  0.00    +0.000 NA
ATOM     12  H   UNL     1       2.079   6.741  20.517  0.00  0.00    +0.000 HD
BRANCH  11  13
ATOM     13  C   UNL     1       3.569   5.653  19.671  0.00  0.00    +0.000 C 
BRANCH  13  14
ATOM     14  C   UNL     1       2.616   4.508  19.415  0.00  0.00    +0.000 A 
ATOM     15  C   UNL     1       2.702   3.757  18.238  0.00  0.00    +0.000 A 
ATOM     16  C   UNL     1       1.814   2.704  18.002  0.00  0.00    +0.000 A 
ATOM     17  C   UNL     1       0.833   2.392  18.940  0.00  0.00    +0.000 A 
ATOM     18  C   UNL     1       0.736   3.130  20.116  0.00  0.00    +0.000 A 
ATOM     19  C   UNL     1       1.624   4.181  20.355  0.00  0.00    +0.000 A 
ENDBRANCH  13  14
ENDBRANCH  11  13
ENDBRANCH  10  11
ENDBRANCH   3  10
BRANCH   6  20
ATOM     20  O   UNL     1       0.747  12.770  19.838  0.00  0.00    +0.000 OA
BRANCH  20  21
ATOM     21  C   UNL     1      -0.386  13.249  19.097  0.00  0.00    +0.000 C 
BRANCH  21  22
ATOM     22  C   UNL     1      -1.702  12.477  19.164  0.00  0.00    +0.000 C 
ATOM     23  O   UNL     1      -2.263  12.243  20.231  0.00  0.00    +0.000 OA
ATOM     24  N   UNL     1      -2.178  12.050  17.955  0.00  0.00    +0.000 N 
ATOM     25  H   UNL     1      -1.547  12.141  17.166  0.00  0.00    +0.000 HD
BRANCH  24  26
ATOM     26  C   UNL     1      -3.379  11.237  17.838  0.00  0.00    +0.000 C 
ATOM     27  C   UNL     1      -4.133  11.612  16.563  0.00  0.00    +0.000 C 
ATOM     28  C   UNL     1      -3.381  11.184  15.302  0.00  0.00    +0.000 C 
ATOM     29  C   UNL     1      -2.996   9.707  15.336  0.00  0.00    +0.000 C 
ATOM     30  C   UNL     1      -2.259   9.321  16.617  0.00  0.00    +0.000 C 
ATOM     31  C   UNL     1      -3.043   9.740  17.859  0.00  0.00    +0.000 C 
ENDBRANCH  24  26
ENDBRANCH  21  22
ENDBRANCH  20  21
ENDBRANCH   6  20
TORSDOF 10
ENDMDL
MODEL 3
REMARK VINA RESULT:      -7.3      4.003      7.624
REMARK  Name = 
REMARK  11 active torsions:
REMARK  status: ('A' for Active; 'I' for Inactive)
REMARK    1  A    between atoms: C_1  and  C_2
REMARK    2  A    between atoms: C_2  and  O_3
REMARK    3  A    between atoms: O_3  and  C_4
REMARK    4  A    between atoms: C_6  and  C_7
REMARK    5  A    between atoms: C_7  and  N_8
REMARK    6  A    between atoms: N_8  and  C_9
REMARK    7  A    between atoms: C_9  and  C_10
REMARK    8  A    between atoms: C_18  and  O_19
REMARK    9  A    between atoms: O_19  and  C_20
REMARK   10  A    between atoms: C_20  and  C_21
REMARK   11  A    between atoms: N_23  and  C_24
REMARK                            x       y       z     vdW  Elec       q    Type
REMARK                         _______ _______ _______ _____ _____    ______ ____
ROOT
ATOM      1  C   UNL     1       6.044   5.378  16.671  0.00  0.00    +0.000 A 
ATOM      2  C   UNL     1       5.430   4.227  17.189  0.00  0.00    +0.000 A 
ATOM      3  C   UNL     1       5.362   3.993  18.563  0.00  0.00    +0.000 A 
ATOM      4  C   UNL     1       6.084   4.818  19.417  0.00  0.00    +0.000 A 
ATOM      5  C   UNL     1       6.798   5.895  18.914  0.00  0.00    +0.000 A 
ATOM      6  C   UNL     1       6.804   6.193  17.539  0.00  0.00    +0.000 A 
ENDROOT
BRANCH   1   7
ATOM      7  O   UNL     1       5.868   5.767  15.365  0.00  0.00    +0.000 OA
BRANCH   7   9
ATOM      8  C   UNL     1       6.430   3.966  13.698  0.00  0.00    +0.000 C 
ATOM      9  C   UNL     1       5.364   4.801  14.418  0.00  0.00    +0.000 C 
ENDBRANCH   7   9
ENDBRANCH   1   7
BRANCH   3  10
ATOM     10  C   UNL     1       4.417   2.963  19.125  0.00  0.00    +0.000 C 
BRANCH  10  11
ATOM     11  N   UNL     1       3.354   3.663  19.841  0.00  0.00    +0.000 NA
ATOM     12  H   UNL     1       3.749   4.423  20.383  0.00  0.00    +0.000 HD
BRANCH  11  13
ATOM     13  C   UNL     1       2.321   4.177  18.961  0.00  0.00    +0.000 C 
BRANCH  13  14
ATOM     14  C   UNL     1       2.181   5.671  19.141  0.00  0.00    +0.000 A 
ATOM     15  C   UNL     1       1.749   6.205  20.360  0.00  0.00    +0.000 A 
ATOM     16  C   UNL     1       1.613   7.587  20.522  0.00  0.00    +0.000 A 
ATOM     17  C   UNL     1       1.908   8.447  19.466  0.00  0.00    +0.000 A 
ATOM     18  C   UNL     1       2.339   7.929  18.248  0.00  0.00    +0.000 A 
ATOM     19  C   UNL     1       2.478   6.550  18.086  0.00  0.00    +0.000 A 
ENDBRANCH  13  14
ENDBRANCH  11  13
ENDBRANCH  10  11
ENDBRANCH   3  10
BRANCH   6  20
ATOM     20  O   UNL     1       7.538   7.258  17.033  0.00  0.00    +0.000 OA
BRANCH  20  21
ATOM     21  C   UNL     1       8.191   8.031  18.052  0.00  0.00    +0.000 C 
BRANCH  21  22
ATOM     22  C   UNL     1       8.220   9.553  17.929  0.00  0.00    +0.000 C 
ATOM     23  O   UNL     1       7.316  10.177  17.379  0.00  0.00    +0.000 OA
ATOM     24  N   UNL     1       9.335  10.150  18.452  0.00  0.00    +0.000 N 
ATOM     25  H   UNL     1      10.094   9.530  18.717  0.00  0.00    +0.000 HD
BRANCH  24  26
ATOM     26  C   UNL     1       9.564  11.583  18.357  0.00  0.00    +0.000 C 
ATOM     27  C   UNL     1       9.351  12.231  19.725  0.00  0.00    +0.000 C 
ATOM     28  C   UNL     1      10.440  11.839  20.724  0.00  0.00    +0.000 C 
ATOM     29  C   UNL     1      11.842  12.090  20.174  0.00  0.00    +0.000 C 
ATOM     30  C   UNL     1      12.055  11.462  18.798  0.00  0.00    +0.000 C 
ATOM     31  C   UNL     1      10.966  11.889  17.815  0.00  0.00    +0.000 C 
ENDBRANCH  24  26
ENDBRANCH  21  22
ENDBRANCH  20  21
ENDBRANCH   6  20
TORSDOF 10
ENDMDL
MODEL 4
REMARK VINA RESULT:      -7.1      1.996      8.409
REMARK  Name = 
REMARK  11 active torsions:
REMARK  status: ('A' for Active; 'I' for Inactive)
REMARK    1  A    between atoms: C_1  and  C_2
REMARK    2  A    between atoms: C_2  and  O_3
REMARK    3  A    between atoms: O_3  and  C_4
REMARK    4  A    between atoms: C_6  and  C_7
REMARK    5  A    between atoms: C_7  and  N_8
REMARK    6  A    between atoms: N_8  and  C_9
REMARK    7  A    between atoms: C_9  and  C_10
REMARK    8  A    between atoms: C_18  and  O_19
REMARK    9  A    between atoms: O_19  and  C_20
REMARK   10  A    between atoms: C_20  and  C_21
REMARK   11  A    between atoms: N_23  and  C_24
REMARK                            x       y       z     vdW  Elec       q    Type
REMARK                         _______ _______ _______ _____ _____    ______ ____
ROOT
ATOM      1  C   UNL     1       1.960   6.393  20.209  0.00  0.00    +0.000 A 
ATOM      2  C   UNL     1       1.618   7.724  20.497  0.00  0.00    +0.000 A 
ATOM      3  C   UNL     1       1.602   8.704  19.503  0.00  0.00    +0.000 A 
ATOM      4  C   UNL     1       2.121   8.393  18.252  0.00  0.00    +0.000 A 
ATOM      5  C   UNL     1       2.577   7.112  17.980  0.00  0.00    +0.000 A 
ATOM      6  C   UNL     1       2.518   6.092  18.947  0.00  0.00    +0.000 A 
ENDROOT
BRANCH   1   7
ATOM      7  O   UNL     1       1.703   5.372  21.092  0.00  0.00    +0.000 OA
BRANCH   7   9
ATOM      8  C   UNL     1       1.359   2.886  21.293  0.00  0.00    +0.000 C 
ATOM      9  C   UNL     1       0.986   4.212  20.618  0.00  0.00    +0.000 C 
ENDBRANCH   7   9
ENDBRANCH   1   7
BRANCH   3  10
ATOM     10  C   UNL     1       0.910  10.023  19.731  0.00  0.00    +0.000 C 
BRANCH  10  11
ATOM     11  N   UNL     1      -0.531   9.793  19.690  0.00  0.00    +0.000 NA
ATOM     12  H   UNL     1      -0.833   9.356  20.554  0.00  0.00    +0.000 HD
BRANCH  11  13
ATOM     13  C   UNL     1      -1.293  11.008  19.466  0.00  0.00    +0.000 C 
BRANCH  13  14
ATOM     14  C   UNL     1      -2.160  10.860  18.237  0.00  0.00    +0.000 A 
ATOM     15  C   UNL     1      -1.780  10.007  17.194  0.00  0.00    +0.000 A 
ATOM     16  C   UNL     1      -2.581   9.879  16.056  0.00  0.00    +0.000 A 
ATOM     17  C   UNL     1      -3.768  10.599  15.950  0.00  0.00    +0.000 A 
ATOM     18  C   UNL     1      -4.158  11.451  16.981  0.00  0.00    +0.000 A 
ATOM     19  C   UNL     1      -3.360  11.579  18.119  0.00  0.00    +0.000 A 
ENDBRANCH  13  14
ENDBRANCH  11  13
ENDBRANCH  10  11
ENDBRANCH   3  10
BRANCH   6  20
ATOM     20  O   UNL     1       2.998   4.816  18.681  0.00  0.00    +0.000 OA
BRANCH  20  21
ATOM     21  C   UNL     1       3.263   4.588  17.289  0.00  0.00    +0.000 C 
BRANCH  21  22
ATOM     22  C   UNL     1       4.703   4.367  16.830  0.00  0.00    +0.000 C 
ATOM     23  O   UNL     1       5.064   3.315  16.309  0.00  0.00    +0.000 OA
ATOM     24  N   UNL     1       5.549   5.414  17.072  0.00  0.00    +0.000 N 
ATOM     25  H   UNL     1       5.189   6.155  17.666  0.00  0.00    +0.000 HD
BRANCH  24  26
ATOM     26  C   UNL     1       6.970   5.349  16.770  0.00  0.00    +0.000 C 
ATOM     27  C   UNL     1       7.478   6.735  16.375  0.00  0.00    +0.000 C 
ATOM     28  C   UNL     1       7.488   7.704  17.558  0.00  0.00    +0.000 C 
ATOM     29  C   UNL     1       8.234   7.133  18.762  0.00  0.00    +0.000 C 
ATOM     30  C   UNL     1       7.745   5.739  19.149  0.00  0.00    +0.000 C 
ATOM     31  C   UNL     1       7.767   4.788  17.955  0.00  0.00    +0.000 C 
ENDBRANCH  24  26
ENDBRANCH  21  22
ENDBRANCH  20  21
ENDBRANCH   6  20
TORSDOF 10
ENDMDL
MODEL 5
REMARK VINA RESULT:      -7.0      1.795      3.201
REMARK  Name = 
REMARK  11 active torsions:
REMARK  status: ('A' for Active; 'I' for Inactive)
REMARK    1  A    between atoms: C_1  and  C_2
REMARK    2  A    between atoms: C_2  and  O_3
REMARK    3  A    between atoms: O_3  and  C_4
REMARK    4  A    between atoms: C_6  and  C_7
REMARK    5  A    between atoms: C_7  and  N_8
REMARK    6  A    between atoms: N_8  and  C_9
REMARK    7  A    between atoms: C_9  and  C_10
REMARK    8  A    between atoms: C_18  and  O_19
REMARK    9  A    between atoms: O_19  and  C_20
REMARK   10  A    between atoms: C_20  and  C_21
REMARK   11  A    between atoms: N_23  and  C_24
REMARK                            x       y       z     vdW  Elec       q    Type
REMARK                         _______ _______ _______ _____ _____    ______ ____
ROOT
ATOM      1  C   UNL     1       2.301   7.672  18.859  0.00  0.00    +0.000 A 
ATOM      2  C   UNL     1       2.606   6.538  18.090  0.00  0.00    +0.000 A 
ATOM      3  C   UNL     1       2.311   5.250  18.541  0.00  0.00    +0.000 A 
ATOM      4  C   UNL     1       1.887   5.084  19.853  0.00  0.00    +0.000 A 
ATOM      5  C   UNL     1       1.693   6.186  20.672  0.00  0.00    +0.000 A 
ATOM      6  C   UNL     1       1.903   7.495  20.203  0.00  0.00    +0.000 A 
ENDROOT
BRANCH   1   7
ATOM      7  O   UNL     1       2.312   8.936  18.321  0.00  0.00    +0.000 OA
BRANCH   7   9
ATOM      8  C   UNL     1       0.868  10.980  18.598  0.00  0.00    +0.000 C 
ATOM      9  C   UNL     1       1.051   9.571  18.021  0.00  0.00    +0.000 C 
ENDBRANCH   7   9
ENDBRANCH   1   7
BRANCH   3  10
ATOM     10  C   UNL     1       2.312   4.081  17.590  0.00  0.00    +0.000 C 
BRANCH  10  11
ATOM     11  N   UNL     1       3.569   4.098  16.849  0.00  0.00    +0.000 NA
ATOM     12  H   UNL     1       3.790   5.048  16.570  0.00  0.00    +0.000 HD
BRANCH  11  13
ATOM     13  C   UNL     1       4.678   3.541  17.601  0.00  0.00    +0.000 C 
BRANCH  13  14
ATOM     14  C   UNL     1       5.735   4.597  17.829  0.00  0.00    +0.000 A 
ATOM     15  C   UNL     1       6.292   4.787  19.099  0.00  0.00    +0.000 A 
ATOM     16  C   UNL     1       7.264   5.769  19.307  0.00  0.00    +0.000 A 
ATOM     17  C   UNL     1       7.689   6.569  18.249  0.00  0.00    +0.000 A 
ATOM     18  C   UNL     1       7.144   6.390  16.980  0.00  0.00    +0.000 A 
ATOM     19  C   UNL     1       6.175   5.408  16.770  0.00  0.00    +0.000 A 
ENDBRANCH  13  14
ENDBRANCH  11  13
ENDBRANCH  10  11
ENDBRANCH   3  10
BRANCH   6  20
ATOM     20  O   UNL     1       1.731   8.597  21.032  0.00  0.00    +0.000 OA
BRANCH  20  21
ATOM     21  C   UNL     1       0.431   8.653  21.638  0.00  0.00    +0.000 C 
BRANCH  21  22
ATOM     22  C   UNL     1       0.087   9.823  22.557  0.00  0.00    +0.000 C 
ATOM     23  O   UNL     1       0.285   9.777  23.768  0.00  0.00    +0.000 OA
ATOM     24  N   UNL     1      -0.478  10.899  21.928  0.00  0.00    +0.000 N 
ATOM     25  H   UNL     1      -0.760  10.758  20.963  0.00  0.00    +0.000 HD
BRANCH  24  26
ATOM     26  C   UNL     1      -0.937  12.071  22.657  0.00  0.00    +0.000 C 
ATOM     27  C   UNL     1      -0.231  13.318  22.126  0.00  0.00    +0.000 C 
ATOM     28  C   UNL     1      -0.682  13.676  20.710  0.00  0.00    +0.000 C 
ATOM     29  C   UNL     1      -2.202  13.776  20.598  0.00  0.00    +0.000 C 
ATOM     30  C   UNL     1      -2.914  12.541  21.146  0.00  0.00    +0.000 C 
ATOM     31  C   UNL     1      -2.461  12.221  22.569  0.00  0.00    +0.000 C 
ENDBRANCH  24  26
ENDBRANCH  21  22
ENDBRANCH  20  21
ENDBRANCH   6  20
TORSDOF 10
ENDMDL
MODEL 6
REMARK VINA RESULT:      -7.0      1.725      8.195
REMARK  Name = 
REMARK  11 active torsions:
REMARK  status: ('A' for Active; 'I' for Inactive)
REMARK    1  A    between atoms: C_1  and  C_2
REMARK    2  A    between atoms: C_2  and  O_3
REMARK    3  A    between atoms: O_3  and  C_4
REMARK    4  A    between atoms: C_6  and  C_7
REMARK    5  A    between atoms: C_7  and  N_8
REMARK    6  A    between atoms: N_8  and  C_9
REMARK    7  A    between atoms: C_9  and  C_10
REMARK    8  A    between atoms: C_18  and  O_19
REMARK    9  A    between atoms: O_19  and  C_20
REMARK   10  A    between atoms: C_20  and  C_21
REMARK   11  A    between atoms: N_23  and  C_24
REMARK                            x       y       z     vdW  Elec       q    Type
REMARK                         _______ _______ _______ _____ _____    ______ ____
ROOT
ATOM      1  C   UNL     1       1.734   4.879  19.567  0.00  0.00    +0.000 A 
ATOM      2  C   UNL     1       1.741   5.945  20.481  0.00  0.00    +0.000 A 
ATOM      3  C   UNL     1       1.929   7.263  20.063  0.00  0.00    +0.000 A 
ATOM      4  C   UNL     1       2.308   7.497  18.747  0.00  0.00    +0.000 A 
ATOM      5  C   UNL     1       2.424   6.445  17.852  0.00  0.00    +0.000 A 
ATOM      6  C   UNL     1       2.153   5.120  18.240  0.00  0.00    +0.000 A 
ENDROOT
BRANCH   1   7
ATOM      7  O   UNL     1       1.268   3.633  19.910  0.00  0.00    +0.000 OA
BRANCH   7   9
ATOM      8  C   UNL     1       1.405   2.375  22.086  0.00  0.00    +0.000 C 
ATOM      9  C   UNL     1       2.075   2.807  20.776  0.00  0.00    +0.000 C 
ENDBRANCH   7   9
ENDBRANCH   1   7
BRANCH   3  10
ATOM     10  C   UNL     1       1.591   8.416  20.972  0.00  0.00    +0.000 C 
BRANCH  10  11
ATOM     11  N   UNL     1       1.212   9.555  20.141  0.00  0.00    +0.000 NA
ATOM     12  H   UNL     1       0.702   9.230  19.326  0.00  0.00    +0.000 HD
BRANCH  11  13
ATOM     13  C   UNL     1       0.416  10.537  20.853  0.00  0.00    +0.000 C 
BRANCH  13  14
ATOM     14  C   UNL     1      -0.786  10.931  20.026  0.00  0.00    +0.000 A 
ATOM     15  C   UNL     1      -1.033  10.323  18.791  0.00  0.00    +0.000 A 
ATOM     16  C   UNL     1      -2.142  10.695  18.026  0.00  0.00    +0.000 A 
ATOM     17  C   UNL     1      -3.014  11.678  18.489  0.00  0.00    +0.000 A 
ATOM     18  C   UNL     1      -2.780  12.292  19.717  0.00  0.00    +0.000 A 
ATOM     19  C   UNL     1      -1.674  11.919  20.483  0.00  0.00    +0.000 A 
ENDBRANCH  13  14
ENDBRANCH  11  13
ENDBRANCH  10  11
ENDBRANCH   3  10
BRANCH   6  20
ATOM     20  O   UNL     1       2.294   4.063  17.349  0.00  0.00    +0.000 OA
BRANCH  20  21
ATOM     21  C   UNL     1       3.525   3.342  17.513  0.00  0.00    +0.000 C 
BRANCH  21  22
ATOM     22  C   UNL     1       4.771   3.816  16.768  0.00  0.00    +0.000 C 
ATOM     23  O   UNL     1       4.808   3.881  15.542  0.00  0.00    +0.000 OA
ATOM     24  N   UNL     1       5.834   4.128  17.570  0.00  0.00    +0.000 N 
ATOM     25  H   UNL     1       5.752   3.866  18.547  0.00  0.00    +0.000 HD
BRANCH  24  26
ATOM     26  C   UNL     1       7.124   4.525  17.028  0.00  0.00    +0.000 C 
ATOM     27  C   UNL     1       6.994   5.875  16.324  0.00  0.00    +0.000 C 
ATOM     28  C   UNL     1       6.742   7.017  17.309  0.00  0.00    +0.000 C 
ATOM     29  C   UNL     1       7.775   7.045  18.433  0.00  0.00    +0.000 C 
ATOM     30  C   UNL     1       7.924   5.693  19.128  0.00  0.00    +0.000 C 
ATOM     31  C   UNL     1       8.198   4.576  18.123  0.00  0.00    +0.000 C 
ENDBRANCH  24  26
ENDBRANCH  21  22
ENDBRANCH  20  21
ENDBRANCH   6  20
TORSDOF 10
ENDMDL
MODEL 7
REMARK VINA RESULT:      -7.0      5.076      7.705
REMARK  Name = 
REMARK  11 active torsions:
REMARK  status: ('A' for Active; 'I' for Inactive)
REMARK    1  A    between atoms: C_1  and  C_2
REMARK    2  A    between atoms: C_2  and  O_3
REMARK    3  A    between atoms: O_3  and  C_4
REMARK    4  A    between atoms: C_6  and  C_7
REMARK    5  A    between atoms: C_7  and  N_8
REMARK    6  A    between atoms: N_8  and  C_9
REMARK    7  A    between atoms: C_9  and  C_10
REMARK    8  A    between atoms: C_18  and  O_19
REMARK    9  A    between atoms: O_19  and  C_20
REMARK   10  A    between atoms: C_20  and  C_21
REMARK   11  A    between atoms: N_23  and  C_24
REMARK                            x       y       z     vdW  Elec       q    Type
REMARK                         _______ _______ _______ _____ _____    ______ ____
ROOT
ATOM      1  C   UNL     1       6.931   5.208  16.105  0.00  0.00    +0.000 A 
ATOM      2  C   UNL     1       6.118   4.126  16.478  0.00  0.00    +0.000 A 
ATOM      3  C   UNL     1       5.283   4.192  17.594  0.00  0.00    +0.000 A 
ATOM      4  C   UNL     1       5.407   5.274  18.456  0.00  0.00    +0.000 A 
ATOM      5  C   UNL     1       6.293   6.301  18.170  0.00  0.00    +0.000 A 
ATOM      6  C   UNL     1       7.078   6.288  17.003  0.00  0.00    +0.000 A 
ENDROOT
BRANCH   1   7
ATOM      7  O   UNL     1       7.528   5.273  14.870  0.00  0.00    +0.000 OA
BRANCH   7   9
ATOM      8  C   UNL     1       6.690   3.828  12.986  0.00  0.00    +0.000 C 
ATOM      9  C   UNL     1       6.694   5.189  13.694  0.00  0.00    +0.000 C 
ENDBRANCH   7   9
ENDBRANCH   1   7
BRANCH   3  10
ATOM     10  C   UNL     1       4.173   3.192  17.788  0.00  0.00    +0.000 C 
BRANCH  10  11
ATOM     11  N   UNL     1       3.061   3.573  16.923  0.00  0.00    +0.000 NA
ATOM     12  H   UNL     1       2.596   2.741  16.574  0.00  0.00    +0.000 HD
BRANCH  11  13
ATOM     13  C   UNL     1       2.094   4.429  17.585  0.00  0.00    +0.000 C 
BRANCH  13  14
ATOM     14  C   UNL     1       1.912   3.994  19.021  0.00  0.00    +0.000 A 
ATOM     15  C   UNL     1       2.260   4.846  20.075  0.00  0.00    +0.000 A 
ATOM     16  C   UNL     1       2.097   4.438  21.401  0.00  0.00    +0.000 A 
ATOM     17  C   UNL     1       1.584   3.175  21.687  0.00  0.00    +0.000 A 
ATOM     18  C   UNL     1       1.233   2.316  20.648  0.00  0.00    +0.000 A 
ATOM     19  C   UNL     1       1.393   2.724  19.323  0.00  0.00    +0.000 A 
ENDBRANCH  13  14
ENDBRANCH  11  13
ENDBRANCH  10  11
ENDBRANCH   3  10
BRANCH   6  20
ATOM     20  O   UNL     1       7.984   7.306  16.729  0.00  0.00    +0.000 OA
BRANCH  20  21
ATOM     21  C   UNL     1       7.615   8.565  17.313  0.00  0.00    +0.000 C 
BRANCH  21  22
ATOM     22  C   UNL     1       8.540   9.207  18.345  0.00  0.00    +0.000 C 
ATOM     23  O   UNL     1       9.010   8.568  19.282  0.00  0.00    +0.000 OA
ATOM     24  N   UNL     1       8.772  10.542  18.154  0.00  0.00    +0.000 N 
ATOM     25  H   UNL     1       8.193  11.004  17.460  0.00  0.00    +0.000 HD
BRANCH  24  26
ATOM     26  C   UNL     1       9.567  11.331  19.082  0.00  0.00    +0.000 C 
ATOM     27  C   UNL     1      10.993  11.470  18.550  0.00  0.00    +0.000 C 
ATOM     28  C   UNL     1      11.059  12.354  17.303  0.00  0.00    +0.000 C 
ATOM     29  C   UNL     1      10.385  13.707  17.521  0.00  0.00    +0.000 C 
ATOM     30  C   UNL     1       8.967  13.575  18.072  0.00  0.00    +0.000 C 
ATOM     31  C   UNL     1       8.935  12.707  19.329  0.00  0.00    +0.000 C 
ENDBRANCH  24  26
ENDBRANCH  21  22
ENDBRANCH  20  21
ENDBRANCH   6  20
TORSDOF 10
ENDMDL
MODEL 8
REMARK VINA RESULT:      -7.0      2.204      3.879
REMARK  Name = 
REMARK  11 active torsions:
REMARK  status: ('A' for Active; 'I' for Inactive)
REMARK    1  A    between atoms: C_1  and  C_2
REMARK    2  A    between atoms: C_2  and  O_3
REMARK    3  A    between atoms: O_3  and  C_4
REMARK    4  A    between atoms: C_6  and  C_7
REMARK    5  A    between atoms: C_7  and  N_8
REMARK    6  A    between atoms: N_8  and  C_9
REMARK    7  A    between atoms: C_9  and  C_10
REMARK    8  A    between atoms: C_18  and  O_19
REMARK    9  A    between atoms: O_19  and  C_20
REMARK   10  A    between atoms: C_20  and  C_21
REMARK   11  A    between atoms: N_23  and  C_24
REMARK                            x       y       z     vdW  Elec       q    Type
REMARK                         _______ _______ _______ _____ _____    ______ ____
ROOT
ATOM      1  C   UNL     1       1.361   8.582  19.940  0.00  0.00    +0.000 A 
ATOM      2  C   UNL     1       1.838   7.296  20.241  0.00  0.00    +0.000 A 
ATOM      3  C   UNL     1       2.695   6.615  19.376  0.00  0.00    +0.000 A 
ATOM      4  C   UNL     1       2.921   7.141  18.110  0.00  0.00    +0.000 A 
ATOM      5  C   UNL     1       2.361   8.356  17.745  0.00  0.00    +0.000 A 
ATOM      6  C   UNL     1       1.566   9.095  18.640  0.00  0.00    +0.000 A 
ENDROOT
BRANCH   1   7
ATOM      7  O   UNL     1       0.766   9.375  20.891  0.00  0.00    +0.000 OA
BRANCH   7   9
ATOM      8  C   UNL     1       0.040   9.490  23.299  0.00  0.00    +0.000 C 
ATOM      9  C   UNL     1       1.143   9.198  22.273  0.00  0.00    +0.000 C 
ENDBRANCH   7   9
ENDBRANCH   1   7
BRANCH   3  10
ATOM     10  C   UNL     1       3.472   5.413  19.847  0.00  0.00    +0.000 C 
BRANCH  10  11
ATOM     11  N   UNL     1       3.097   4.274  19.016  0.00  0.00    +0.000 NA
ATOM     12  H   UNL     1       2.665   4.602  18.159  0.00  0.00    +0.000 HD
BRANCH  11  13
ATOM     13  C   UNL     1       4.220   3.412  18.695  0.00  0.00    +0.000 C 
BRANCH  13  14
ATOM     14  C   UNL     1       5.123   4.086  17.687  0.00  0.00    +0.000 A 
ATOM     15  C   UNL     1       4.698   4.282  16.368  0.00  0.00    +0.000 A 
ATOM     16  C   UNL     1       5.538   4.900  15.437  0.00  0.00    +0.000 A 
ATOM     17  C   UNL     1       6.808   5.327  15.816  0.00  0.00    +0.000 A 
ATOM     18  C   UNL     1       7.244   5.138  17.125  0.00  0.00    +0.000 A 
ATOM     19  C   UNL     1       6.405   4.524  18.056  0.00  0.00    +0.000 A 
ENDBRANCH  13  14
ENDBRANCH  11  13
ENDBRANCH  10  11
ENDBRANCH   3  10
BRANCH   6  20
ATOM     20  O   UNL     1       0.986  10.301  18.265  0.00  0.00    +0.000 OA
BRANCH  20  21
ATOM     21  C   UNL     1      -0.436  10.215  18.085  0.00  0.00    +0.000 C 
BRANCH  21  22
ATOM     22  C   UNL     1      -1.307  11.415  18.449  0.00  0.00    +0.000 C 
ATOM     23  O   UNL     1      -2.096  11.911  17.648  0.00  0.00    +0.000 OA
ATOM     24  N   UNL     1      -1.116  11.899  19.714  0.00  0.00    +0.000 N 
ATOM     25  H   UNL     1      -0.318  11.530  20.221  0.00  0.00    +0.000 HD
BRANCH  24  26
ATOM     26  C   UNL     1      -1.807  13.082  20.204  0.00  0.00    +0.000 C 
ATOM     27  C   UNL     1      -2.883  12.672  21.209  0.00  0.00    +0.000 C 
ATOM     28  C   UNL     1      -2.283  12.139  22.510  0.00  0.00    +0.000 C 
ATOM     29  C   UNL     1      -1.265  13.106  23.111  0.00  0.00    +0.000 C 
ATOM     30  C   UNL     1      -0.198  13.535  22.106  0.00  0.00    +0.000 C 
ATOM     31  C   UNL     1      -0.825  14.083  20.826  0.00  0.00    +0.000 C 
ENDBRANCH  24  26
ENDBRANCH  21  22
ENDBRANCH  20  21
ENDBRANCH   6  20
TORSDOF 10
ENDMDL
MODEL 9
REMARK VINA RESULT:      -7.0      2.760      5.145
REMARK  Name = 
REMARK  11 active torsions:
REMARK  status: ('A' for Active; 'I' for Inactive)
REMARK    1  A    between atoms: C_1  and  C_2
REMARK    2  A    between atoms: C_2  and  O_3
REMARK    3  A    between atoms: O_3  and  C_4
REMARK    4  A    between atoms: C_6  and  C_7
REMARK    5  A    between atoms: C_7  and  N_8
REMARK    6  A    between atoms: N_8  and  C_9
REMARK    7  A    between atoms: C_9  and  C_10
REMARK    8  A    between atoms: C_18  and  O_19
REMARK    9  A    between atoms: O_19  and  C_20
REMARK   10  A    between atoms: C_20  and  C_21
REMARK   11  A    between atoms: N_23  and  C_24
REMARK                            x       y       z     vdW  Elec       q    Type
REMARK                         _______ _______ _______ _____ _____    ______ ____
ROOT
ATOM      1  C   UNL     1       1.365   8.730  20.280  0.00  0.00    +0.000 A 
ATOM      2  C   UNL     1       2.103   7.602  19.884  0.00  0.00    +0.000 A 
ATOM      3  C   UNL     1       2.592   7.470  18.584  0.00  0.00    +0.000 A 
ATOM      4  C   UNL     1       2.174   8.379  17.619  0.00  0.00    +0.000 A 
ATOM      5  C   UNL     1       1.346   9.436  17.964  0.00  0.00    +0.000 A 
ATOM      6  C   UNL     1       0.916   9.630  19.289  0.00  0.00    +0.000 A 
ENDROOT
BRANCH   1   7
ATOM      7  O   UNL     1       1.131   9.014  21.604  0.00  0.00    +0.000 OA
BRANCH   7   9
ATOM      8  C   UNL     1      -0.692   9.938  23.073  0.00  0.00    +0.000 C 
ATOM      9  C   UNL     1      -0.205   8.838  22.122  0.00  0.00    +0.000 C 
ENDBRANCH   7   9
ENDBRANCH   1   7
BRANCH   3  10
ATOM     10  C   UNL     1       3.659   6.457  18.259  0.00  0.00    +0.000 C 
BRANCH  10  11
ATOM     11  N   UNL     1       4.209   5.958  19.516  0.00  0.00    +0.000 NA
ATOM     12  H   UNL     1       3.595   6.210  20.283  0.00  0.00    +0.000 HD
BRANCH  11  13
ATOM     13  C   UNL     1       4.418   4.522  19.512  0.00  0.00    +0.000 C 
BRANCH  13  14
ATOM     14  C   UNL     1       3.090   3.802  19.472  0.00  0.00    +0.000 A 
ATOM     15  C   UNL     1       2.170   3.942  20.518  0.00  0.00    +0.000 A 
ATOM     16  C   UNL     1       0.946   3.269  20.480  0.00  0.00    +0.000 A 
ATOM     17  C   UNL     1       0.629   2.451  19.399  0.00  0.00    +0.000 A 
ATOM     18  C   UNL     1       1.535   2.302  18.351  0.00  0.00    +0.000 A 
ATOM     19  C   UNL     1       2.757   2.976  18.386  0.00  0.00    +0.000 A 
ENDBRANCH  13  14
ENDBRANCH  11  13
ENDBRANCH  10  11
ENDBRANCH   3  10
BRANCH   6  20
ATOM     20  O   UNL     1       0.067  10.676  19.628  0.00  0.00    +0.000 OA
BRANCH  20  21
ATOM     21  C   UNL     1      -1.128  10.717  18.833  0.00  0.00    +0.000 C 
BRANCH  21  22
ATOM     22  C   UNL     1      -2.235  11.702  19.201  0.00  0.00    +0.000 C 
ATOM     23  O   UNL     1      -3.229  11.855  18.496  0.00  0.00    +0.000 OA
ATOM     24  N   UNL     1      -2.013  12.410  20.351  0.00  0.00    +0.000 N 
ATOM     25  H   UNL     1      -1.084  12.336  20.752  0.00  0.00    +0.000 HD
BRANCH  24  26
ATOM     26  C   UNL     1      -2.926  13.445  20.812  0.00  0.00    +0.000 C 
ATOM     27  C   UNL     1      -3.931  12.845  21.795  0.00  0.00    +0.000 C 
ATOM     28  C   UNL     1      -3.274  12.442  23.115  0.00  0.00    +0.000 C 
ATOM     29  C   UNL     1      -2.471  13.585  23.731  0.00  0.00    +0.000 C 
ATOM     30  C   UNL     1      -1.478  14.202  22.747  0.00  0.00    +0.000 C 
ATOM     31  C   UNL     1      -2.166  14.616  21.447  0.00  0.00    +0.000 C 
ENDBRANCH  24  26
ENDBRANCH  21  22
ENDBRANCH  20  21
ENDBRANCH   6  20
TORSDOF 10
ENDMDL
