MODEL 1
REMARK VINA RESULT:      -8.9      0.000      0.000
REMARK  Name = 
REMARK  3 active torsions:
REMARK  status: ('A' for Active; 'I' for Inactive)
REMARK    1  A    between atoms: N_3  and  C_4
REMARK    2  A    between atoms: C_15  and  C_16
REMARK    3  A    between atoms: C_18  and  C_19
REMARK                            x       y       z     vdW  Elec       q    Type
REMARK                         _______ _______ _______ _____ _____    ______ ____
ROOT
ATOM      1  O   UNL     1       1.161   5.049  19.790  0.00  0.00    +0.000 OA
ATOM      2  C   UNL     1       2.298   5.299  19.398  0.00  0.00    +0.000 C 
ATOM      3  N   UNL     1       2.753   6.565  19.101  0.00  0.00    +0.000 N 
ATOM      4  N   UNL     1       3.212   4.280  19.216  0.00  0.00    +0.000 N 
ATOM      5  C   UNL     1       2.795   2.904  19.404  0.00  0.00    +0.000 C 
ATOM      6  C   UNL     1       3.989   2.249  20.062  0.00  0.00    +0.000 C 
ATOM      7  C   UNL     1       5.172   2.943  19.399  0.00  0.00    +0.000 C 
ATOM      8  C   UNL     1       4.676   4.368  19.081  0.00  0.00    +0.000 C 
ATOM      9  H   UNL     1       3.459   6.597  18.374  0.00  0.00    +0.000 HD
ENDROOT
BRANCH   3  10
ATOM     10  C   UNL     1       2.016   7.759  19.297  0.00  0.00    +0.000 A 
ATOM     11  C   UNL     1       1.474   8.126  20.533  0.00  0.00    +0.000 A 
ATOM     12  C   UNL     1       0.687   9.277  20.658  0.00  0.00    +0.000 A 
ATOM     13  C   UNL     1       0.459  10.080  19.545  0.00  0.00    +0.000 A 
ATOM     14 CL   UNL     1      -0.541  11.473  19.691  0.00  0.00    +0.000 Cl
ATOM     15  C   UNL     1       1.033   9.757  18.319  0.00  0.00    +0.000 A 
ATOM     16  C   UNL     1       1.817   8.602  18.195  0.00  0.00    +0.000 A 
ENDBRANCH   3  10
BRANCH   8  17
ATOM     17  C   UNL     1       5.052   4.800  17.701  0.00  0.00    +0.000 A 
ATOM     18  N   UNL     1       5.271   4.069  16.628  0.00  0.00    +0.000 NA
ATOM     19  C   UNL     1       5.695   5.005  15.708  0.00  0.00    +0.000 A 
ATOM     20  N   UNL     1       5.647   6.269  16.160  0.00  0.00    +0.000 NA
ATOM     21  O   UNL     1       5.207   6.137  17.472  0.00  0.00    +0.000 OA
BRANCH  19  22
ATOM     22  C   UNL     1       6.168   4.626  14.383  0.00  0.00    +0.000 A 
ATOM     23  C   UNL     1       7.336   5.209  13.861  0.00  0.00    +0.000 A 
ATOM     24  C   UNL     1       7.796   4.869  12.587  0.00  0.00    +0.000 A 
ATOM     25  C   UNL     1       7.091   3.946  11.820  0.00  0.00    +0.000 A 
ATOM     26  C   UNL     1       5.931   3.372  12.332  0.00  0.00    +0.000 A 
ATOM     27  F   UNL     1       5.251   2.492  11.586  0.00  0.00    +0.000 F 
ATOM     28  C   UNL     1       5.464   3.701  13.600  0.00  0.00    +0.000 A 
ENDBRANCH  19  22
ENDBRANCH   8  17
TORSDOF 3
ENDMDL
MODEL 2
REMARK VINA RESULT:      -8.8      1.375      1.677
REMARK  Name = 
REMARK  3 active torsions:
REMARK  status: ('A' for Active; 'I' for Inactive)
REMARK    1  A    between atoms: N_3  and  C_4
REMARK    2  A    between atoms: C_15  and  C_16
REMARK    3  A    between atoms: C_18  and  C_19
REMARK                            x       y       z     vdW  Elec       q    Type
REMARK                         _______ _______ _______ _____ _____    ______ ____
ROOT
ATOM      1  O   UNL     1       1.041   4.808  18.908  0.00  0.00    +0.000 OA
ATOM      2  C   UNL     1       2.267   4.882  18.943  0.00  0.00    +0.000 C 
ATOM      3  N   UNL     1       2.972   6.065  18.935  0.00  0.00    +0.000 N 
ATOM      4  N   UNL     1       3.033   3.733  18.984  0.00  0.00    +0.000 N 
ATOM      5  C   UNL     1       2.385   2.439  18.894  0.00  0.00    +0.000 C 
ATOM      6  C   UNL     1       3.173   1.571  19.849  0.00  0.00    +0.000 C 
ATOM      7  C   UNL     1       4.598   2.084  19.687  0.00  0.00    +0.000 C 
ATOM      8  C   UNL     1       4.450   3.582  19.355  0.00  0.00    +0.000 C 
ATOM      9  H   UNL     1       3.882   6.008  18.491  0.00  0.00    +0.000 HD
ENDROOT
BRANCH   3  10
ATOM     10  C   UNL     1       2.392   7.357  18.983  0.00  0.00    +0.000 A 
ATOM     11  C   UNL     1       1.790   7.880  20.133  0.00  0.00    +0.000 A 
ATOM     12  C   UNL     1       1.161   9.130  20.108  0.00  0.00    +0.000 A 
ATOM     13  C   UNL     1       1.152   9.873  18.932  0.00  0.00    +0.000 A 
ATOM     14 CL   UNL     1       0.343  11.392  18.891  0.00  0.00    +0.000 Cl
ATOM     15  C   UNL     1       1.789   9.390  17.793  0.00  0.00    +0.000 A 
ATOM     16  C   UNL     1       2.415   8.137  17.819  0.00  0.00    +0.000 A 
ENDBRANCH   3  10
BRANCH   8  17
ATOM     17  C   UNL     1       5.336   3.999  18.226  0.00  0.00    +0.000 A 
ATOM     18  N   UNL     1       5.091   4.006  16.932  0.00  0.00    +0.000 NA
ATOM     19  C   UNL     1       6.311   4.368  16.398  0.00  0.00    +0.000 A 
ATOM     20  N   UNL     1       7.239   4.667  17.322  0.00  0.00    +0.000 NA
ATOM     21  O   UNL     1       6.592   4.438  18.530  0.00  0.00    +0.000 OA
BRANCH  19  22
ATOM     22  C   UNL     1       6.547   4.393  14.960  0.00  0.00    +0.000 A 
ATOM     23  C   UNL     1       5.829   3.530  14.116  0.00  0.00    +0.000 A 
ATOM     24  C   UNL     1       6.053   3.529  12.737  0.00  0.00    +0.000 A 
ATOM     25  C   UNL     1       7.001   4.388  12.189  0.00  0.00    +0.000 A 
ATOM     26  C   UNL     1       7.718   5.240  13.024  0.00  0.00    +0.000 A 
ATOM     27  F   UNL     1       8.637   6.057  12.494  0.00  0.00    +0.000 F 
ATOM     28  C   UNL     1       7.503   5.251  14.399  0.00  0.00    +0.000 A 
ENDBRANCH  19  22
ENDBRANCH   8  17
TORSDOF 3
ENDMDL
MODEL 3
REMARK VINA RESULT:      -8.7      0.966      1.349
REMARK  Name = 
REMARK  3 active torsions:
REMARK  status: ('A' for Active; 'I' for Inactive)
REMARK    1  A    between atoms: N_3  and  C_4
REMARK    2  A    between atoms: C_15  and  C_16
REMARK    3  A    between atoms: C_18  and  C_19
REMARK                            x       y       z     vdW  Elec       q    Type
REMARK                         _______ _______ _______ _____ _____    ______ ____
ROOT
ATOM      1  O   UNL     1       1.175   4.751  18.889  0.00  0.00    +0.000 OA
ATOM      2  C   UNL     1       2.397   4.877  18.897  0.00  0.00    +0.000 C 
ATOM      3  N   UNL     1       3.050   6.088  18.826  0.00  0.00    +0.000 N 
ATOM      4  N   UNL     1       3.212   3.765  18.970  0.00  0.00    +0.000 N 
ATOM      5  C   UNL     1       2.618   2.442  18.945  0.00  0.00    +0.000 C 
ATOM      6  C   UNL     1       3.460   1.648  19.919  0.00  0.00    +0.000 C 
ATOM      7  C   UNL     1       4.859   2.214  19.708  0.00  0.00    +0.000 C 
ATOM      8  C   UNL     1       4.640   3.690  19.318  0.00  0.00    +0.000 C 
ATOM      9  H   UNL     1       3.953   6.051  18.367  0.00  0.00    +0.000 HD
ENDROOT
BRANCH   3  10
ATOM     10  C   UNL     1       2.415   7.355  18.832  0.00  0.00    +0.000 A 
ATOM     11  C   UNL     1       2.365   8.188  17.709  0.00  0.00    +0.000 A 
ATOM     12  C   UNL     1       1.794   9.464  17.787  0.00  0.00    +0.000 A 
ATOM     13  C   UNL     1       1.249   9.901  18.990  0.00  0.00    +0.000 A 
ATOM     14 CL   UNL     1       0.583  11.485  19.096  0.00  0.00    +0.000 Cl
ATOM     15  C   UNL     1       1.244   9.066  20.102  0.00  0.00    +0.000 A 
ATOM     16  C   UNL     1       1.820   7.791  20.023  0.00  0.00    +0.000 A 
ENDBRANCH   3  10
BRANCH   8  17
ATOM     17  C   UNL     1       5.487   4.096  18.155  0.00  0.00    +0.000 A 
ATOM     18  N   UNL     1       5.224   4.027  16.867  0.00  0.00    +0.000 NA
ATOM     19  C   UNL     1       6.415   4.425  16.296  0.00  0.00    +0.000 A 
ATOM     20  N   UNL     1       7.340   4.816  17.188  0.00  0.00    +0.000 NA
ATOM     21  O   UNL     1       6.723   4.613  18.417  0.00  0.00    +0.000 OA
BRANCH  19  22
ATOM     22  C   UNL     1       6.629   4.392  14.855  0.00  0.00    +0.000 A 
ATOM     23  C   UNL     1       7.622   5.199  14.274  0.00  0.00    +0.000 A 
ATOM     24  C   UNL     1       7.831   5.192  12.893  0.00  0.00    +0.000 A 
ATOM     25  C   UNL     1       7.046   4.381  12.078  0.00  0.00    +0.000 A 
ATOM     26  C   UNL     1       6.057   3.586  12.650  0.00  0.00    +0.000 A 
ATOM     27  F   UNL     1       5.297   2.816  11.861  0.00  0.00    +0.000 F 
ATOM     28  C   UNL     1       5.841   3.583  14.025  0.00  0.00    +0.000 A 
ENDBRANCH  19  22
ENDBRANCH   8  17
TORSDOF 3
ENDMDL
MODEL 4
REMARK VINA RESULT:      -8.6      1.099      1.439
REMARK  Name = 
REMARK  3 active torsions:
REMARK  status: ('A' for Active; 'I' for Inactive)
REMARK    1  A    between atoms: N_3  and  C_4
REMARK    2  A    between atoms: C_15  and  C_16
REMARK    3  A    between atoms: C_18  and  C_19
REMARK                            x       y       z     vdW  Elec       q    Type
REMARK                         _______ _______ _______ _____ _____    ______ ____
ROOT
ATOM      1  O   UNL     1       0.936   5.068  20.312  0.00  0.00    +0.000 OA
ATOM      2  C   UNL     1       2.068   5.281  19.884  0.00  0.00    +0.000 C 
ATOM      3  N   UNL     1       2.578   6.537  19.635  0.00  0.00    +0.000 N 
ATOM      4  N   UNL     1       2.918   4.228  19.608  0.00  0.00    +0.000 N 
ATOM      5  C   UNL     1       2.435   2.867  19.740  0.00  0.00    +0.000 C 
ATOM      6  C   UNL     1       3.619   2.116  20.308  0.00  0.00    +0.000 C 
ATOM      7  C   UNL     1       4.809   2.784  19.631  0.00  0.00    +0.000 C 
ATOM      8  C   UNL     1       4.377   4.248  19.412  0.00  0.00    +0.000 C 
ATOM      9  H   UNL     1       3.253   6.573  18.880  0.00  0.00    +0.000 HD
ENDROOT
BRANCH   3  10
ATOM     10  C   UNL     1       1.915   7.754  19.927  0.00  0.00    +0.000 A 
ATOM     11  C   UNL     1       1.466   8.090  21.209  0.00  0.00    +0.000 A 
ATOM     12  C   UNL     1       0.747   9.270  21.432  0.00  0.00    +0.000 A 
ATOM     13  C   UNL     1       0.495  10.133  20.370  0.00  0.00    +0.000 A 
ATOM     14 CL   UNL     1      -0.423  11.564  20.637  0.00  0.00    +0.000 Cl
ATOM     15  C   UNL     1       0.978   9.839  19.099  0.00  0.00    +0.000 A 
ATOM     16  C   UNL     1       1.694   8.656  18.877  0.00  0.00    +0.000 A 
ENDBRANCH   3  10
BRANCH   8  17
ATOM     17  C   UNL     1       4.718   4.737  18.042  0.00  0.00    +0.000 A 
ATOM     18  N   UNL     1       5.090   4.052  16.981  0.00  0.00    +0.000 NA
ATOM     19  C   UNL     1       5.380   5.046  16.069  0.00  0.00    +0.000 A 
ATOM     20  N   UNL     1       5.106   6.284  16.512  0.00  0.00    +0.000 NA
ATOM     21  O   UNL     1       4.654   6.081  17.811  0.00  0.00    +0.000 OA
BRANCH  19  22
ATOM     22  C   UNL     1       5.952   4.751  14.761  0.00  0.00    +0.000 A 
ATOM     23  C   UNL     1       5.318   3.830  13.910  0.00  0.00    +0.000 A 
ATOM     24  C   UNL     1       5.860   3.524  12.659  0.00  0.00    +0.000 A 
ATOM     25  C   UNL     1       7.042   4.132  12.249  0.00  0.00    +0.000 A 
ATOM     26  C   UNL     1       7.676   5.039  13.093  0.00  0.00    +0.000 A 
ATOM     27  F   UNL     1       8.819   5.614  12.699  0.00  0.00    +0.000 F 
ATOM     28  C   UNL     1       7.145   5.354  14.340  0.00  0.00    +0.000 A 
ENDBRANCH  19  22
ENDBRANCH   8  17
TORSDOF 3
ENDMDL
MODEL 5
REMARK VINA RESULT:      -8.6      4.002      8.218
REMARK  Name = 
REMARK  3 active torsions:
REMARK  status: ('A' for Active; 'I' for Inactive)
REMARK    1  A    between atoms: N_3  and  C_4
REMARK    2  A    between atoms: C_15  and  C_16
REMARK    3  A    between atoms: C_18  and  C_19
REMARK                            x       y       z     vdW  Elec       q    Type
REMARK                         _______ _______ _______ _____ _____    ______ ____
ROOT
ATOM      1  O   UNL     1       5.227   3.039  19.333  0.00  0.00    +0.000 OA
ATOM      2  C   UNL     1       4.262   3.770  19.121  0.00  0.00    +0.000 C 
ATOM      3  N   UNL     1       4.171   4.645  18.061  0.00  0.00    +0.000 N 
ATOM      4  N   UNL     1       3.179   3.758  19.978  0.00  0.00    +0.000 N 
ATOM      5  C   UNL     1       3.226   2.946  21.178  0.00  0.00    +0.000 C 
ATOM      6  C   UNL     1       1.818   2.406  21.306  0.00  0.00    +0.000 C 
ATOM      7  C   UNL     1       0.958   3.562  20.812  0.00  0.00    +0.000 C 
ATOM      8  C   UNL     1       1.820   4.280  19.753  0.00  0.00    +0.000 C 
ATOM      9  H   UNL     1       3.625   5.477  18.250  0.00  0.00    +0.000 HD
ENDROOT
BRANCH   3  10
ATOM     10  C   UNL     1       5.123   4.757  17.017  0.00  0.00    +0.000 A 
ATOM     11  C   UNL     1       6.246   5.587  17.096  0.00  0.00    +0.000 A 
ATOM     12  C   UNL     1       7.116   5.723  16.008  0.00  0.00    +0.000 A 
ATOM     13  C   UNL     1       6.874   5.007  14.840  0.00  0.00    +0.000 A 
ATOM     14 CL   UNL     1       7.921   5.205  13.489  0.00  0.00    +0.000 Cl
ATOM     15  C   UNL     1       5.790   4.138  14.763  0.00  0.00    +0.000 A 
ATOM     16  C   UNL     1       4.919   4.006  15.852  0.00  0.00    +0.000 A 
ENDBRANCH   3  10
BRANCH   8  17
ATOM     17  C   UNL     1       1.793   5.765  19.917  0.00  0.00    +0.000 A 
ATOM     18  N   UNL     1       1.196   6.491  20.839  0.00  0.00    +0.000 NA
ATOM     19  C   UNL     1       1.423   7.780  20.399  0.00  0.00    +0.000 A 
ATOM     20  N   UNL     1       2.206   7.850  19.310  0.00  0.00    +0.000 NA
ATOM     21  O   UNL     1       2.464   6.520  18.999  0.00  0.00    +0.000 OA
BRANCH  19  22
ATOM     22  C   UNL     1       0.834   8.936  21.062  0.00  0.00    +0.000 A 
ATOM     23  C   UNL     1       0.307   8.810  22.358  0.00  0.00    +0.000 A 
ATOM     24  C   UNL     1      -0.274   9.904  23.003  0.00  0.00    +0.000 A 
ATOM     25  C   UNL     1      -0.338  11.134  22.356  0.00  0.00    +0.000 A 
ATOM     26  C   UNL     1       0.177  11.261  21.070  0.00  0.00    +0.000 A 
ATOM     27  F   UNL     1       0.103  12.444  20.447  0.00  0.00    +0.000 F 
ATOM     28  C   UNL     1       0.760  10.179  20.418  0.00  0.00    +0.000 A 
ENDBRANCH  19  22
ENDBRANCH   8  17
TORSDOF 3
ENDMDL
MODEL 6
REMARK VINA RESULT:      -8.4      4.163      8.231
REMARK  Name = 
REMARK  3 active torsions:
REMARK  status: ('A' for Active; 'I' for Inactive)
REMARK    1  A    between atoms: N_3  and  C_4
REMARK    2  A    between atoms: C_15  and  C_16
REMARK    3  A    between atoms: C_18  and  C_19
REMARK                            x       y       z     vdW  Elec       q    Type
REMARK                         _______ _______ _______ _____ _____    ______ ____
ROOT
ATOM      1  O   UNL     1       5.291   3.114  19.251  0.00  0.00    +0.000 OA
ATOM      2  C   UNL     1       4.322   3.832  19.014  0.00  0.00    +0.000 C 
ATOM      3  N   UNL     1       4.226   4.666  17.922  0.00  0.00    +0.000 N 
ATOM      4  N   UNL     1       3.242   3.850  19.874  0.00  0.00    +0.000 N 
ATOM      5  C   UNL     1       3.295   3.084  21.104  0.00  0.00    +0.000 C 
ATOM      6  C   UNL     1       1.890   2.545  21.257  0.00  0.00    +0.000 C 
ATOM      7  C   UNL     1       1.024   3.678  20.721  0.00  0.00    +0.000 C 
ATOM      8  C   UNL     1       1.881   4.358  19.634  0.00  0.00    +0.000 C 
ATOM      9  H   UNL     1       3.677   5.503  18.081  0.00  0.00    +0.000 HD
ENDROOT
BRANCH   3  10
ATOM     10  C   UNL     1       5.174   4.741  16.872  0.00  0.00    +0.000 A 
ATOM     11  C   UNL     1       6.356   5.485  16.965  0.00  0.00    +0.000 A 
ATOM     12  C   UNL     1       7.224   5.591  15.872  0.00  0.00    +0.000 A 
ATOM     13  C   UNL     1       6.921   4.933  14.685  0.00  0.00    +0.000 A 
ATOM     14 CL   UNL     1       7.968   5.097  13.329  0.00  0.00    +0.000 Cl
ATOM     15  C   UNL     1       5.776   4.148  14.592  0.00  0.00    +0.000 A 
ATOM     16  C   UNL     1       4.906   4.045  15.686  0.00  0.00    +0.000 A 
ENDBRANCH   3  10
BRANCH   8  17
ATOM     17  C   UNL     1       1.848   5.848  19.741  0.00  0.00    +0.000 A 
ATOM     18  N   UNL     1       1.246   6.607  20.632  0.00  0.00    +0.000 NA
ATOM     19  C   UNL     1       1.471   7.878  20.145  0.00  0.00    +0.000 A 
ATOM     20  N   UNL     1       2.258   7.909  19.057  0.00  0.00    +0.000 NA
ATOM     21  O   UNL     1       2.521   6.569  18.797  0.00  0.00    +0.000 OA
BRANCH  19  22
ATOM     22  C   UNL     1       0.877   9.057  20.761  0.00  0.00    +0.000 A 
ATOM     23  C   UNL     1       0.897  10.289  20.084  0.00  0.00    +0.000 A 
ATOM     24  C   UNL     1       0.346  11.433  20.665  0.00  0.00    +0.000 A 
ATOM     25  C   UNL     1      -0.228  11.358  21.931  0.00  0.00    +0.000 A 
ATOM     26  C   UNL     1      -0.244  10.141  22.607  0.00  0.00    +0.000 A 
ATOM     27  F   UNL     1      -0.787  10.077  23.829  0.00  0.00    +0.000 F 
ATOM     28  C   UNL     1       0.301   8.994  22.037  0.00  0.00    +0.000 A 
ENDBRANCH  19  22
ENDBRANCH   8  17
TORSDOF 3
ENDMDL
MODEL 7
REMARK VINA RESULT:      -8.1      4.708      6.524
REMARK  Name = 
REMARK  3 active torsions:
REMARK  status: ('A' for Active; 'I' for Inactive)
REMARK    1  A    between atoms: N_3  and  C_4
REMARK    2  A    between atoms: C_15  and  C_16
REMARK    3  A    between atoms: C_18  and  C_19
REMARK                            x       y       z     vdW  Elec       q    Type
REMARK                         _______ _______ _______ _____ _____    ______ ____
ROOT
ATOM      1  O   UNL     1       3.456   4.353  16.620  0.00  0.00    +0.000 OA
ATOM      2  C   UNL     1       4.584   4.554  17.063  0.00  0.00    +0.000 C 
ATOM      3  N   UNL     1       4.929   4.422  18.390  0.00  0.00    +0.000 N 
ATOM      4  N   UNL     1       5.604   4.949  16.219  0.00  0.00    +0.000 N 
ATOM      5  C   UNL     1       5.314   5.212  14.823  0.00  0.00    +0.000 C 
ATOM      6  C   UNL     1       6.526   4.677  14.093  0.00  0.00    +0.000 C 
ATOM      7  C   UNL     1       7.672   5.001  15.043  0.00  0.00    +0.000 C 
ATOM      8  C   UNL     1       7.057   4.925  16.455  0.00  0.00    +0.000 C 
ATOM      9  H   UNL     1       5.670   5.044  18.694  0.00  0.00    +0.000 HD
ENDROOT
BRANCH   3  10
ATOM     10  C   UNL     1       4.068   3.947  19.410  0.00  0.00    +0.000 A 
ATOM     11  C   UNL     1       4.112   2.635  19.894  0.00  0.00    +0.000 A 
ATOM     12  C   UNL     1       3.188   2.191  20.847  0.00  0.00    +0.000 A 
ATOM     13  C   UNL     1       2.227   3.070  21.336  0.00  0.00    +0.000 A 
ATOM     14 CL   UNL     1       1.066   2.512  22.478  0.00  0.00    +0.000 Cl
ATOM     15  C   UNL     1       2.201   4.392  20.903  0.00  0.00    +0.000 A 
ATOM     16  C   UNL     1       3.124   4.834  19.946  0.00  0.00    +0.000 A 
ENDBRANCH   3  10
BRANCH   8  17
ATOM     17  C   UNL     1       7.469   6.078  17.312  0.00  0.00    +0.000 A 
ATOM     18  N   UNL     1       7.510   7.361  17.020  0.00  0.00    +0.000 NA
ATOM     19  C   UNL     1       8.082   7.908  18.150  0.00  0.00    +0.000 A 
ATOM     20  N   UNL     1       8.295   7.018  19.134  0.00  0.00    +0.000 NA
ATOM     21  O   UNL     1       7.877   5.810  18.587  0.00  0.00    +0.000 OA
BRANCH  19  22
ATOM     22  C   UNL     1       8.434   9.320  18.232  0.00  0.00    +0.000 A 
ATOM     23  C   UNL     1       9.387   9.753  19.170  0.00  0.00    +0.000 A 
ATOM     24  C   UNL     1       9.725  11.104  19.272  0.00  0.00    +0.000 A 
ATOM     25  C   UNL     1       9.110  12.036  18.442  0.00  0.00    +0.000 A 
ATOM     26  C   UNL     1       8.161  11.611  17.517  0.00  0.00    +0.000 A 
ATOM     27  F   UNL     1       7.565  12.513  16.727  0.00  0.00    +0.000 F 
ATOM     28  C   UNL     1       7.818  10.268  17.404  0.00  0.00    +0.000 A 
ENDBRANCH  19  22
ENDBRANCH   8  17
TORSDOF 3
ENDMDL
MODEL 8
REMARK VINA RESULT:      -7.9      4.924      6.700
REMARK  Name = 
REMARK  3 active torsions:
REMARK  status: ('A' for Active; 'I' for Inactive)
REMARK    1  A    between atoms: N_3  and  C_4
REMARK    2  A    between atoms: C_15  and  C_16
REMARK    3  A    between atoms: C_18  and  C_19
REMARK                            x       y       z     vdW  Elec       q    Type
REMARK                         _______ _______ _______ _____ _____    ______ ____
ROOT
ATOM      1  O   UNL     1       3.421   4.410  16.670  0.00  0.00    +0.000 OA
ATOM      2  C   UNL     1       4.555   4.589  17.107  0.00  0.00    +0.000 C 
ATOM      3  N   UNL     1       4.909   4.432  18.429  0.00  0.00    +0.000 N 
ATOM      4  N   UNL     1       5.573   4.984  16.261  0.00  0.00    +0.000 N 
ATOM      5  C   UNL     1       5.276   5.274  14.872  0.00  0.00    +0.000 C 
ATOM      6  C   UNL     1       6.475   4.735  14.124  0.00  0.00    +0.000 C 
ATOM      7  C   UNL     1       7.633   5.028  15.069  0.00  0.00    +0.000 C 
ATOM      8  C   UNL     1       7.028   4.938  16.485  0.00  0.00    +0.000 C 
ATOM      9  H   UNL     1       5.660   5.039  18.737  0.00  0.00    +0.000 HD
ENDROOT
BRANCH   3  10
ATOM     10  C   UNL     1       4.049   3.952  19.448  0.00  0.00    +0.000 A 
ATOM     11  C   UNL     1       4.091   2.637  19.923  0.00  0.00    +0.000 A 
ATOM     12  C   UNL     1       3.169   2.188  20.876  0.00  0.00    +0.000 A 
ATOM     13  C   UNL     1       2.212   3.066  21.374  0.00  0.00    +0.000 A 
ATOM     14 CL   UNL     1       1.053   2.504  22.515  0.00  0.00    +0.000 Cl
ATOM     15  C   UNL     1       2.189   4.391  20.950  0.00  0.00    +0.000 A 
ATOM     16  C   UNL     1       3.110   4.837  19.994  0.00  0.00    +0.000 A 
ENDBRANCH   3  10
BRANCH   8  17
ATOM     17  C   UNL     1       7.463   6.071  17.356  0.00  0.00    +0.000 A 
ATOM     18  N   UNL     1       7.513   7.359  17.086  0.00  0.00    +0.000 NA
ATOM     19  C   UNL     1       8.104   7.880  18.219  0.00  0.00    +0.000 A 
ATOM     20  N   UNL     1       8.320   6.971  19.184  0.00  0.00    +0.000 NA
ATOM     21  O   UNL     1       7.883   5.777  18.622  0.00  0.00    +0.000 OA
BRANCH  19  22
ATOM     22  C   UNL     1       8.470   9.287  18.321  0.00  0.00    +0.000 A 
ATOM     23  C   UNL     1       7.915  10.223  17.432  0.00  0.00    +0.000 A 
ATOM     24  C   UNL     1       8.267  11.573  17.505  0.00  0.00    +0.000 A 
ATOM     25  C   UNL     1       9.179  11.999  18.465  0.00  0.00    +0.000 A 
ATOM     26  C   UNL     1       9.736  11.074  19.342  0.00  0.00    +0.000 A 
ATOM     27  F   UNL     1      10.622  11.487  20.257  0.00  0.00    +0.000 F 
ATOM     28  C   UNL     1       9.392   9.727  19.281  0.00  0.00    +0.000 A 
ENDBRANCH  19  22
ENDBRANCH   8  17
TORSDOF 3
ENDMDL
MODEL 9
REMARK VINA RESULT:      -7.7      3.464      4.822
REMARK  Name = 
REMARK  3 active torsions:
REMARK  status: ('A' for Active; 'I' for Inactive)
REMARK    1  A    between atoms: N_3  and  C_4
REMARK    2  A    between atoms: C_15  and  C_16
REMARK    3  A    between atoms: C_18  and  C_19
REMARK                            x       y       z     vdW  Elec       q    Type
REMARK                         _______ _______ _______ _____ _____    ______ ____
ROOT
ATOM      1  O   UNL     1       6.043   4.570  19.751  0.00  0.00    +0.000 OA
ATOM      2  C   UNL     1       5.922   5.074  18.637  0.00  0.00    +0.000 C 
ATOM      3  N   UNL     1       4.877   4.814  17.779  0.00  0.00    +0.000 N 
ATOM      4  N   UNL     1       6.875   5.956  18.165  0.00  0.00    +0.000 N 
ATOM      5  C   UNL     1       8.064   6.213  18.955  0.00  0.00    +0.000 C 
ATOM      6  C   UNL     1       8.319   7.691  18.755  0.00  0.00    +0.000 C 
ATOM      7  C   UNL     1       7.908   7.920  17.306  0.00  0.00    +0.000 C 
ATOM      8  C   UNL     1       6.777   6.906  17.044  0.00  0.00    +0.000 C 
ATOM      9  H   UNL     1       5.117   4.872  16.796  0.00  0.00    +0.000 HD
ENDROOT
BRANCH   3  10
ATOM     10  C   UNL     1       3.751   4.013  18.090  0.00  0.00    +0.000 A 
ATOM     11  C   UNL     1       3.845   2.649  18.387  0.00  0.00    +0.000 A 
ATOM     12  C   UNL     1       2.695   1.882  18.612  0.00  0.00    +0.000 A 
ATOM     13  C   UNL     1       1.444   2.488  18.563  0.00  0.00    +0.000 A 
ATOM     14 CL   UNL     1       0.028   1.538  18.800  0.00  0.00    +0.000 Cl
ATOM     15  C   UNL     1       1.335   3.854  18.320  0.00  0.00    +0.000 A 
ATOM     16  C   UNL     1       2.487   4.618  18.091  0.00  0.00    +0.000 A 
ENDBRANCH   3  10
BRANCH   8  17
ATOM     17  C   UNL     1       6.946   6.198  15.739  0.00  0.00    +0.000 A 
ATOM     18  N   UNL     1       6.070   5.495  15.052  0.00  0.00    +0.000 NA
ATOM     19  C   UNL     1       6.833   4.997  14.015  0.00  0.00    +0.000 A 
ATOM     20  N   UNL     1       8.097   5.450  14.006  0.00  0.00    +0.000 NA
ATOM     21  O   UNL     1       8.170   6.256  15.137  0.00  0.00    +0.000 OA
BRANCH  19  22
ATOM     22  C   UNL     1       6.295   4.050  13.047  0.00  0.00    +0.000 A 
ATOM     23  C   UNL     1       4.914   4.021  12.786  0.00  0.00    +0.000 A 
ATOM     24  C   UNL     1       4.379   3.110  11.873  0.00  0.00    +0.000 A 
ATOM     25  C   UNL     1       5.218   2.216  11.214  0.00  0.00    +0.000 A 
ATOM     26  C   UNL     1       6.584   2.237  11.476  0.00  0.00    +0.000 A 
ATOM     27  F   UNL     1       7.386   1.368  10.849  0.00  0.00    +0.000 F 
ATOM     28  C   UNL     1       7.130   3.142  12.382  0.00  0.00    +0.000 A 
ENDBRANCH  19  22
ENDBRANCH   8  17
TORSDOF 3
ENDMDL
