MODEL 1
REMARK VINA RESULT:      -6.4      0.000      0.000
REMARK  Name = 
REMARK  9 active torsions:
REMARK  status: ('A' for Active; 'I' for Inactive)
REMARK    1  A    between atoms: C_1  and  C_2
REMARK    2  A    between atoms: C_2  and  C_3
REMARK    3  A    between atoms: C_3  and  C_4
REMARK    4  A    between atoms: C_4  and  C_5
REMARK    5  A    between atoms: C_5  and  C_6
REMARK    6  A    between atoms: C_6  and  N_7
REMARK    7  A    between atoms: N_7  and  C_8
REMARK    8  A    between atoms: C_8  and  C_9
REMARK    9  A    between atoms: C_15  and  O_16
REMARK                            x       y       z     vdW  Elec       q    Type
REMARK                         _______ _______ _______ _____ _____    ______ ____
ROOT
ATOM      1  C   UNL     1       3.110   6.623  19.534  0.00  0.00    +0.000 C 
ATOM      2  C   UNL     1       2.498   6.823  18.146  0.00  0.00    +0.000 C 
ATOM      3  C   UNL     1       3.595   7.297  17.206  0.00  0.00    +0.000 C 
ATOM      4  C   UNL     1       4.817   6.440  17.359  0.00  0.00    +0.000 A 
ATOM      5  C   UNL     1       5.808   6.463  16.365  0.00  0.00    +0.000 A 
ATOM      6  C   UNL     1       6.946   5.667  16.486  0.00  0.00    +0.000 A 
ATOM      7  C   UNL     1       7.095   4.854  17.604  0.00  0.00    +0.000 A 
ATOM      8  C   UNL     1       6.129   4.830  18.606  0.00  0.00    +0.000 A 
ATOM      9  C   UNL     1       4.995   5.636  18.491  0.00  0.00    +0.000 A 
ATOM     10  O   UNL     1       4.079   5.556  19.512  0.00  0.00    +0.000 OA
ENDROOT
BRANCH   7  11
ATOM     11  O   UNL     1       8.195   4.059  17.751  0.00  0.00    +0.000 OA
ATOM     12  H   UNL     1       8.082   3.517  18.550  0.00  0.00    +0.000 HD
ENDBRANCH   7  11
BRANCH   1  13
ATOM     13  C   UNL     1       2.034   6.283  20.591  0.00  0.00    +0.000 C 
BRANCH  13  14
ATOM     14  N   UNL     1       2.186   4.917  21.110  0.00  0.00    +0.000 NA
ATOM     15  H   UNL     1       3.086   4.538  20.818  0.00  0.00    +0.000 HD
BRANCH  14  16
ATOM     16  C   UNL     1       1.115   4.037  20.644  0.00  0.00    +0.000 C 
BRANCH  16  17
ATOM     17  C   UNL     1       1.568   2.585  20.807  0.00  0.00    +0.000 C 
BRANCH  17  18
ATOM     18  C   UNL     1       1.861   1.936  19.454  0.00  0.00    +0.000 C 
BRANCH  18  19
ATOM     19  C   UNL     1       3.351   2.008  19.124  0.00  0.00    +0.000 C 
BRANCH  19  21
ATOM     20  C   UNL     1       2.511   3.336  17.159  0.00  0.00    +0.000 C 
ATOM     21  C   UNL     1       3.575   2.373  17.657  0.00  0.00    +0.000 C 
ENDBRANCH  19  21
ENDBRANCH  18  19
ENDBRANCH  17  18
ENDBRANCH  16  17
ENDBRANCH  14  16
ENDBRANCH  13  14
ENDBRANCH   1  13
TORSDOF 8
ENDMDL
MODEL 2
REMARK VINA RESULT:      -6.3      1.611      3.101
REMARK  Name = 
REMARK  9 active torsions:
REMARK  status: ('A' for Active; 'I' for Inactive)
REMARK    1  A    between atoms: C_1  and  C_2
REMARK    2  A    between atoms: C_2  and  C_3
REMARK    3  A    between atoms: C_3  and  C_4
REMARK    4  A    between atoms: C_4  and  C_5
REMARK    5  A    between atoms: C_5  and  C_6
REMARK    6  A    between atoms: C_6  and  N_7
REMARK    7  A    between atoms: N_7  and  C_8
REMARK    8  A    between atoms: C_8  and  C_9
REMARK    9  A    between atoms: C_15  and  O_16
REMARK                            x       y       z     vdW  Elec       q    Type
REMARK                         _______ _______ _______ _____ _____    ______ ____
ROOT
ATOM      1  C   UNL     1       4.235   3.391  18.575  0.00  0.00    +0.000 C 
ATOM      2  C   UNL     1       4.394   3.139  17.074  0.00  0.00    +0.000 C 
ATOM      3  C   UNL     1       4.657   4.472  16.393  0.00  0.00    +0.000 C 
ATOM      4  C   UNL     1       5.718   5.234  17.132  0.00  0.00    +0.000 A 
ATOM      5  C   UNL     1       6.366   6.307  16.501  0.00  0.00    +0.000 A 
ATOM      6  C   UNL     1       7.360   7.021  17.170  0.00  0.00    +0.000 A 
ATOM      7  C   UNL     1       7.701   6.663  18.469  0.00  0.00    +0.000 A 
ATOM      8  C   UNL     1       7.059   5.610  19.114  0.00  0.00    +0.000 A 
ATOM      9  C   UNL     1       6.055   4.903  18.450  0.00  0.00    +0.000 A 
ATOM     10  O   UNL     1       5.470   3.871  19.143  0.00  0.00    +0.000 OA
ENDROOT
BRANCH   7  11
ATOM     11  O   UNL     1       8.674   7.337  19.149  0.00  0.00    +0.000 OA
ATOM     12  H   UNL     1       8.418   7.393  20.085  0.00  0.00    +0.000 HD
ENDBRANCH   7  11
BRANCH   1  13
ATOM     13  C   UNL     1       3.817   2.109  19.330  0.00  0.00    +0.000 C 
BRANCH  13  14
ATOM     14  N   UNL     1       3.151   2.414  20.604  0.00  0.00    +0.000 NA
ATOM     15  H   UNL     1       2.886   1.545  21.068  0.00  0.00    +0.000 HD
BRANCH  14  16
ATOM     16  C   UNL     1       1.962   3.242  20.411  0.00  0.00    +0.000 C 
BRANCH  16  17
ATOM     17  C   UNL     1       2.089   4.494  21.282  0.00  0.00    +0.000 C 
BRANCH  17  18
ATOM     18  C   UNL     1       1.647   5.747  20.527  0.00  0.00    +0.000 C 
BRANCH  18  19
ATOM     19  C   UNL     1       2.806   6.342  19.728  0.00  0.00    +0.000 C 
BRANCH  19  21
ATOM     20  C   UNL     1       3.055   7.870  17.744  0.00  0.00    +0.000 C 
ATOM     21  C   UNL     1       2.401   6.606  18.279  0.00  0.00    +0.000 C 
ENDBRANCH  19  21
ENDBRANCH  18  19
ENDBRANCH  17  18
ENDBRANCH  16  17
ENDBRANCH  14  16
ENDBRANCH  13  14
ENDBRANCH   1  13
TORSDOF 8
ENDMDL
MODEL 3
REMARK VINA RESULT:      -6.2      3.195      5.927
REMARK  Name = 
REMARK  9 active torsions:
REMARK  status: ('A' for Active; 'I' for Inactive)
REMARK    1  A    between atoms: C_1  and  C_2
REMARK    2  A    between atoms: C_2  and  C_3
REMARK    3  A    between atoms: C_3  and  C_4
REMARK    4  A    between atoms: C_4  and  C_5
REMARK    5  A    between atoms: C_5  and  C_6
REMARK    6  A    between atoms: C_6  and  N_7
REMARK    7  A    between atoms: N_7  and  C_8
REMARK    8  A    between atoms: C_8  and  C_9
REMARK    9  A    between atoms: C_15  and  O_16
REMARK                            x       y       z     vdW  Elec       q    Type
REMARK                         _______ _______ _______ _____ _____    ______ ____
ROOT
ATOM      1  C   UNL     1       4.970   4.202  18.200  0.00  0.00    +0.000 C 
ATOM      2  C   UNL     1       4.061   5.341  17.733  0.00  0.00    +0.000 C 
ATOM      3  C   UNL     1       2.631   4.826  17.699  0.00  0.00    +0.000 C 
ATOM      4  C   UNL     1       2.310   4.097  18.971  0.00  0.00    +0.000 A 
ATOM      5  C   UNL     1       0.970   3.850  19.308  0.00  0.00    +0.000 A 
ATOM      6  C   UNL     1       0.654   3.182  20.490  0.00  0.00    +0.000 A 
ATOM      7  C   UNL     1       1.677   2.757  21.330  0.00  0.00    +0.000 A 
ATOM      8  C   UNL     1       3.011   2.981  21.004  0.00  0.00    +0.000 A 
ATOM      9  C   UNL     1       3.330   3.640  19.814  0.00  0.00    +0.000 A 
ATOM     10  O   UNL     1       4.666   3.835  19.560  0.00  0.00    +0.000 OA
ENDROOT
BRANCH   7  11
ATOM     11  O   UNL     1       1.400   2.105  22.497  0.00  0.00    +0.000 OA
ATOM     12  H   UNL     1       0.437   2.080  22.619  0.00  0.00    +0.000 HD
ENDBRANCH   7  11
BRANCH   1  13
ATOM     13  C   UNL     1       6.463   4.592  18.122  0.00  0.00    +0.000 C 
BRANCH  13  14
ATOM     14  N   UNL     1       7.034   4.320  16.796  0.00  0.00    +0.000 NA
ATOM     15  H   UNL     1       7.981   3.954  16.900  0.00  0.00    +0.000 HD
BRANCH  14  16
ATOM     16  C   UNL     1       7.066   5.519  15.961  0.00  0.00    +0.000 C 
BRANCH  16  17
ATOM     17  C   UNL     1       6.153   5.300  14.753  0.00  0.00    +0.000 C 
BRANCH  17  18
ATOM     18  C   UNL     1       6.177   3.843  14.290  0.00  0.00    +0.000 C 
BRANCH  18  19
ATOM     19  C   UNL     1       6.500   3.747  12.800  0.00  0.00    +0.000 C 
BRANCH  19  21
ATOM     20  C   UNL     1       5.680   1.818  11.408  0.00  0.00    +0.000 C 
ATOM     21  C   UNL     1       5.326   3.166  12.015  0.00  0.00    +0.000 C 
ENDBRANCH  19  21
ENDBRANCH  18  19
ENDBRANCH  17  18
ENDBRANCH  16  17
ENDBRANCH  14  16
ENDBRANCH  13  14
ENDBRANCH   1  13
TORSDOF 8
ENDMDL
MODEL 4
REMARK VINA RESULT:      -6.2      3.659      6.029
REMARK  Name = 
REMARK  9 active torsions:
REMARK  status: ('A' for Active; 'I' for Inactive)
REMARK    1  A    between atoms: C_1  and  C_2
REMARK    2  A    between atoms: C_2  and  C_3
REMARK    3  A    between atoms: C_3  and  C_4
REMARK    4  A    between atoms: C_4  and  C_5
REMARK    5  A    between atoms: C_5  and  C_6
REMARK    6  A    between atoms: C_6  and  N_7
REMARK    7  A    between atoms: N_7  and  C_8
REMARK    8  A    between atoms: C_8  and  C_9
REMARK    9  A    between atoms: C_15  and  O_16
REMARK                            x       y       z     vdW  Elec       q    Type
REMARK                         _______ _______ _______ _____ _____    ______ ____
ROOT
ATOM      1  C   UNL     1       4.800   4.331  17.135  0.00  0.00    +0.000 C 
ATOM      2  C   UNL     1       4.705   5.825  17.449  0.00  0.00    +0.000 C 
ATOM      3  C   UNL     1       3.330   6.102  18.037  0.00  0.00    +0.000 C 
ATOM      4  C   UNL     1       3.010   5.099  19.105  0.00  0.00    +0.000 A 
ATOM      5  C   UNL     1       1.973   5.363  20.014  0.00  0.00    +0.000 A 
ATOM      6  C   UNL     1       1.667   4.446  21.019  0.00  0.00    +0.000 A 
ATOM      7  C   UNL     1       2.394   3.264  21.110  0.00  0.00    +0.000 A 
ATOM      8  C   UNL     1       3.416   2.981  20.208  0.00  0.00    +0.000 A 
ATOM      9  C   UNL     1       3.715   3.893  19.195  0.00  0.00    +0.000 A 
ATOM     10  O   UNL     1       4.740   3.552  18.346  0.00  0.00    +0.000 OA
ENDROOT
BRANCH   7  11
ATOM     11  O   UNL     1       2.124   2.348  22.085  0.00  0.00    +0.000 OA
ATOM     12  H   UNL     1       1.544   2.760  22.747  0.00  0.00    +0.000 HD
ENDBRANCH   7  11
BRANCH   1  13
ATOM     13  C   UNL     1       6.112   3.984  16.395  0.00  0.00    +0.000 C 
BRANCH  13  14
ATOM     14  N   UNL     1       6.708   5.162  15.750  0.00  0.00    +0.000 NA
ATOM     15  H   UNL     1       6.063   5.950  15.814  0.00  0.00    +0.000 HD
BRANCH  14  16
ATOM     16  C   UNL     1       7.028   4.909  14.346  0.00  0.00    +0.000 C 
BRANCH  16  17
ATOM     17  C   UNL     1       5.987   3.946  13.771  0.00  0.00    +0.000 C 
BRANCH  17  18
ATOM     18  C   UNL     1       6.325   3.550  12.334  0.00  0.00    +0.000 C 
BRANCH  18  19
ATOM     19  C   UNL     1       5.168   2.786  11.690  0.00  0.00    +0.000 C 
BRANCH  19  21
ATOM     20  C   UNL     1       3.046   2.982  10.354  0.00  0.00    +0.000 C 
ATOM     21  C   UNL     1       4.219   3.734  10.960  0.00  0.00    +0.000 C 
ENDBRANCH  19  21
ENDBRANCH  18  19
ENDBRANCH  17  18
ENDBRANCH  16  17
ENDBRANCH  14  16
ENDBRANCH  13  14
ENDBRANCH   1  13
TORSDOF 8
ENDMDL
MODEL 5
REMARK VINA RESULT:      -6.2      1.791      2.985
REMARK  Name = 
REMARK  9 active torsions:
REMARK  status: ('A' for Active; 'I' for Inactive)
REMARK    1  A    between atoms: C_1  and  C_2
REMARK    2  A    between atoms: C_2  and  C_3
REMARK    3  A    between atoms: C_3  and  C_4
REMARK    4  A    between atoms: C_4  and  C_5
REMARK    5  A    between atoms: C_5  and  C_6
REMARK    6  A    between atoms: C_6  and  N_7
REMARK    7  A    between atoms: N_7  and  C_8
REMARK    8  A    between atoms: C_8  and  C_9
REMARK    9  A    between atoms: C_15  and  O_16
REMARK                            x       y       z     vdW  Elec       q    Type
REMARK                         _______ _______ _______ _____ _____    ______ ____
ROOT
ATOM      1  C   UNL     1       3.680   4.192  17.155  0.00  0.00    +0.000 C 
ATOM      2  C   UNL     1       4.435   4.350  15.833  0.00  0.00    +0.000 C 
ATOM      3  C   UNL     1       5.307   5.591  15.928  0.00  0.00    +0.000 C 
ATOM      4  C   UNL     1       6.069   5.593  17.221  0.00  0.00    +0.000 A 
ATOM      5  C   UNL     1       7.181   6.437  17.368  0.00  0.00    +0.000 A 
ATOM      6  C   UNL     1       7.906   6.446  18.559  0.00  0.00    +0.000 A 
ATOM      7  C   UNL     1       7.515   5.616  19.603  0.00  0.00    +0.000 A 
ATOM      8  C   UNL     1       6.406   4.783  19.479  0.00  0.00    +0.000 A 
ATOM      9  C   UNL     1       5.673   4.782  18.291  0.00  0.00    +0.000 A 
ATOM     10  O   UNL     1       4.597   3.930  18.235  0.00  0.00    +0.000 OA
ENDROOT
BRANCH   7  11
ATOM     11  O   UNL     1       8.206   5.597  20.780  0.00  0.00    +0.000 OA
ATOM     12  H   UNL     1       8.965   4.997  20.685  0.00  0.00    +0.000 HD
ENDBRANCH   7  11
BRANCH   1  13
ATOM     13  C   UNL     1       2.654   3.037  17.094  0.00  0.00    +0.000 C 
BRANCH  13  14
ATOM     14  N   UNL     1       1.348   3.432  17.640  0.00  0.00    +0.000 NA
ATOM     15  H   UNL     1       1.422   4.355  18.069  0.00  0.00    +0.000 HD
BRANCH  14  16
ATOM     16  C   UNL     1       0.861   2.474  18.630  0.00  0.00    +0.000 C 
BRANCH  16  17
ATOM     17  C   UNL     1       0.805   3.163  19.995  0.00  0.00    +0.000 C 
BRANCH  17  18
ATOM     18  C   UNL     1       2.175   3.173  20.673  0.00  0.00    +0.000 C 
BRANCH  18  19
ATOM     19  C   UNL     1       2.475   4.544  21.279  0.00  0.00    +0.000 C 
BRANCH  19  21
ATOM     20  C   UNL     1       2.619   6.533  19.745  0.00  0.00    +0.000 C 
ATOM     21  C   UNL     1       1.696   5.647  20.565  0.00  0.00    +0.000 C 
ENDBRANCH  19  21
ENDBRANCH  18  19
ENDBRANCH  17  18
ENDBRANCH  16  17
ENDBRANCH  14  16
ENDBRANCH  13  14
ENDBRANCH   1  13
TORSDOF 8
ENDMDL
MODEL 6
REMARK VINA RESULT:      -6.1      4.301      6.461
REMARK  Name = 
REMARK  9 active torsions:
REMARK  status: ('A' for Active; 'I' for Inactive)
REMARK    1  A    between atoms: C_1  and  C_2
REMARK    2  A    between atoms: C_2  and  C_3
REMARK    3  A    between atoms: C_3  and  C_4
REMARK    4  A    between atoms: C_4  and  C_5
REMARK    5  A    between atoms: C_5  and  C_6
REMARK    6  A    between atoms: C_6  and  N_7
REMARK    7  A    between atoms: N_7  and  C_8
REMARK    8  A    between atoms: C_8  and  C_9
REMARK    9  A    between atoms: C_15  and  O_16
REMARK                            x       y       z     vdW  Elec       q    Type
REMARK                         _______ _______ _______ _____ _____    ______ ____
ROOT
ATOM      1  C   UNL     1       5.388   4.684  15.437  0.00  0.00    +0.000 C 
ATOM      2  C   UNL     1       5.764   5.915  16.265  0.00  0.00    +0.000 C 
ATOM      3  C   UNL     1       4.497   6.469  16.896  0.00  0.00    +0.000 C 
ATOM      4  C   UNL     1       3.705   5.364  17.530  0.00  0.00    +0.000 A 
ATOM      5  C   UNL     1       2.702   5.677  18.461  0.00  0.00    +0.000 A 
ATOM      6  C   UNL     1       1.962   4.663  19.067  0.00  0.00    +0.000 A 
ATOM      7  C   UNL     1       2.221   3.337  18.737  0.00  0.00    +0.000 A 
ATOM      8  C   UNL     1       3.203   3.010  17.806  0.00  0.00    +0.000 A 
ATOM      9  C   UNL     1       3.937   4.026  17.190  0.00  0.00    +0.000 A 
ATOM     10  O   UNL     1       4.894   3.631  16.288  0.00  0.00    +0.000 OA
ENDROOT
BRANCH   7  11
ATOM     11  O   UNL     1       1.519   2.320  19.316  0.00  0.00    +0.000 OA
ATOM     12  H   UNL     1       0.631   2.292  18.921  0.00  0.00    +0.000 HD
ENDBRANCH   7  11
BRANCH   1  13
ATOM     13  C   UNL     1       6.595   4.141  14.638  0.00  0.00    +0.000 C 
BRANCH  13  14
ATOM     14  N   UNL     1       7.025   5.076  13.589  0.00  0.00    +0.000 NA
ATOM     15  H   UNL     1       6.385   5.870  13.555  0.00  0.00    +0.000 HD
BRANCH  14  16
ATOM     16  C   UNL     1       7.073   4.435  12.276  0.00  0.00    +0.000 C 
BRANCH  16  17
ATOM     17  C   UNL     1       6.585   2.991  12.417  0.00  0.00    +0.000 C 
BRANCH  17  18
ATOM     18  C   UNL     1       5.537   2.649  11.358  0.00  0.00    +0.000 C 
BRANCH  18  19
ATOM     19  C   UNL     1       4.253   3.447  11.581  0.00  0.00    +0.000 C 
BRANCH  19  21
ATOM     20  C   UNL     1       2.947   4.221   9.574  0.00  0.00    +0.000 C 
ATOM     21  C   UNL     1       3.188   3.080  10.549  0.00  0.00    +0.000 C 
ENDBRANCH  19  21
ENDBRANCH  18  19
ENDBRANCH  17  18
ENDBRANCH  16  17
ENDBRANCH  14  16
ENDBRANCH  13  14
ENDBRANCH   1  13
TORSDOF 8
ENDMDL
MODEL 7
REMARK VINA RESULT:      -6.1      4.254      6.391
REMARK  Name = 
REMARK  9 active torsions:
REMARK  status: ('A' for Active; 'I' for Inactive)
REMARK    1  A    between atoms: C_1  and  C_2
REMARK    2  A    between atoms: C_2  and  C_3
REMARK    3  A    between atoms: C_3  and  C_4
REMARK    4  A    between atoms: C_4  and  C_5
REMARK    5  A    between atoms: C_5  and  C_6
REMARK    6  A    between atoms: C_6  and  N_7
REMARK    7  A    between atoms: N_7  and  C_8
REMARK    8  A    between atoms: C_8  and  C_9
REMARK    9  A    between atoms: C_15  and  O_16
REMARK                            x       y       z     vdW  Elec       q    Type
REMARK                         _______ _______ _______ _____ _____    ______ ____
ROOT
ATOM      1  C   UNL     1       5.483   5.019  16.066  0.00  0.00    +0.000 C 
ATOM      2  C   UNL     1       5.369   6.175  17.062  0.00  0.00    +0.000 C 
ATOM      3  C   UNL     1       3.901   6.354  17.416  0.00  0.00    +0.000 C 
ATOM      4  C   UNL     1       3.281   5.028  17.747  0.00  0.00    +0.000 A 
ATOM      5  C   UNL     1       2.057   4.989  18.434  0.00  0.00    +0.000 A 
ATOM      6  C   UNL     1       1.471   3.766  18.757  0.00  0.00    +0.000 A 
ATOM      7  C   UNL     1       2.104   2.585  18.387  0.00  0.00    +0.000 A 
ATOM      8  C   UNL     1       3.311   2.606  17.693  0.00  0.00    +0.000 A 
ATOM      9  C   UNL     1       3.893   3.831  17.359  0.00  0.00    +0.000 A 
ATOM     10  O   UNL     1       5.087   3.777  16.682  0.00  0.00    +0.000 OA
ENDROOT
BRANCH   7  11
ATOM     11  O   UNL     1       1.559   1.371  18.693  0.00  0.00    +0.000 OA
ATOM     12  H   UNL     1       1.967   0.696  18.126  0.00  0.00    +0.000 HD
ENDBRANCH   7  11
BRANCH   1  13
ATOM     13  C   UNL     1       6.926   4.861  15.535  0.00  0.00    +0.000 C 
BRANCH  13  14
ATOM     14  N   UNL     1       6.951   4.462  14.121  0.00  0.00    +0.000 NA
ATOM     15  H   UNL     1       7.004   5.293  13.531  0.00  0.00    +0.000 HD
BRANCH  14  16
ATOM     16  C   UNL     1       5.770   3.682  13.756  0.00  0.00    +0.000 C 
BRANCH  16  17
ATOM     17  C   UNL     1       5.820   3.388  12.255  0.00  0.00    +0.000 C 
BRANCH  17  18
ATOM     18  C   UNL     1       7.244   3.078  11.793  0.00  0.00    +0.000 C 
BRANCH  18  19
ATOM     19  C   UNL     1       7.290   1.770  11.005  0.00  0.00    +0.000 C 
BRANCH  19  21
ATOM     20  C   UNL     1       6.143  -0.442  11.358  0.00  0.00    +0.000 C 
ATOM     21  C   UNL     1       5.951   1.038  11.068  0.00  0.00    +0.000 C 
ENDBRANCH  19  21
ENDBRANCH  18  19
ENDBRANCH  17  18
ENDBRANCH  16  17
ENDBRANCH  14  16
ENDBRANCH  13  14
ENDBRANCH   1  13
TORSDOF 8
ENDMDL
MODEL 8
REMARK VINA RESULT:      -6.0      3.711      6.336
REMARK  Name = 
REMARK  9 active torsions:
REMARK  status: ('A' for Active; 'I' for Inactive)
REMARK    1  A    between atoms: C_1  and  C_2
REMARK    2  A    between atoms: C_2  and  C_3
REMARK    3  A    between atoms: C_3  and  C_4
REMARK    4  A    between atoms: C_4  and  C_5
REMARK    5  A    between atoms: C_5  and  C_6
REMARK    6  A    between atoms: C_6  and  N_7
REMARK    7  A    between atoms: N_7  and  C_8
REMARK    8  A    between atoms: C_8  and  C_9
REMARK    9  A    between atoms: C_15  and  O_16
REMARK                            x       y       z     vdW  Elec       q    Type
REMARK                         _______ _______ _______ _____ _____    ______ ____
ROOT
ATOM      1  C   UNL     1       4.955   5.182  17.458  0.00  0.00    +0.000 C 
ATOM      2  C   UNL     1       5.224   5.514  18.927  0.00  0.00    +0.000 C 
ATOM      3  C   UNL     1       3.889   5.744  19.616  0.00  0.00    +0.000 C 
ATOM      4  C   UNL     1       2.929   4.644  19.270  0.00  0.00    +0.000 A 
ATOM      5  C   UNL     1       1.780   4.456  20.054  0.00  0.00    +0.000 A 
ATOM      6  C   UNL     1       0.881   3.433  19.753  0.00  0.00    +0.000 A 
ATOM      7  C   UNL     1       1.130   2.604  18.665  0.00  0.00    +0.000 A 
ATOM      8  C   UNL     1       2.258   2.785  17.869  0.00  0.00    +0.000 A 
ATOM      9  C   UNL     1       3.152   3.816  18.163  0.00  0.00    +0.000 A 
ATOM     10  O   UNL     1       4.247   3.932  17.342  0.00  0.00    +0.000 OA
ENDROOT
BRANCH   7  11
ATOM     11  O   UNL     1       0.273   1.590  18.346  0.00  0.00    +0.000 OA
ATOM     12  H   UNL     1       0.324   0.911  19.039  0.00  0.00    +0.000 HD
ENDBRANCH   7  11
BRANCH   1  13
ATOM     13  C   UNL     1       6.265   5.078  16.644  0.00  0.00    +0.000 C 
BRANCH  13  14
ATOM     14  N   UNL     1       6.076   5.484  15.245  0.00  0.00    +0.000 NA
ATOM     15  H   UNL     1       5.165   5.929  15.137  0.00  0.00    +0.000 HD
BRANCH  14  16
ATOM     16  C   UNL     1       6.172   4.347  14.332  0.00  0.00    +0.000 C 
BRANCH  16  17
ATOM     17  C   UNL     1       7.224   4.661  13.265  0.00  0.00    +0.000 C 
BRANCH  17  18
ATOM     18  C   UNL     1       6.881   4.001  11.930  0.00  0.00    +0.000 C 
BRANCH  18  19
ATOM     19  C   UNL     1       5.596   3.181  12.039  0.00  0.00    +0.000 C 
BRANCH  19  21
ATOM     20  C   UNL     1       7.211   1.556  10.999  0.00  0.00    +0.000 C 
ATOM     21  C   UNL     1       5.772   1.792  11.429  0.00  0.00    +0.000 C 
ENDBRANCH  19  21
ENDBRANCH  18  19
ENDBRANCH  17  18
ENDBRANCH  16  17
ENDBRANCH  14  16
ENDBRANCH  13  14
ENDBRANCH   1  13
TORSDOF 8
ENDMDL
MODEL 9
REMARK VINA RESULT:      -6.0      3.965      7.317
REMARK  Name = 
REMARK  9 active torsions:
REMARK  status: ('A' for Active; 'I' for Inactive)
REMARK    1  A    between atoms: C_1  and  C_2
REMARK    2  A    between atoms: C_2  and  C_3
REMARK    3  A    between atoms: C_3  and  C_4
REMARK    4  A    between atoms: C_4  and  C_5
REMARK    5  A    between atoms: C_5  and  C_6
REMARK    6  A    between atoms: C_6  and  N_7
REMARK    7  A    between atoms: N_7  and  C_8
REMARK    8  A    between atoms: C_8  and  C_9
REMARK    9  A    between atoms: C_15  and  O_16
REMARK                            x       y       z     vdW  Elec       q    Type
REMARK                         _______ _______ _______ _____ _____    ______ ____
ROOT
ATOM      1  C   UNL     1       5.097   5.661  17.547  0.00  0.00    +0.000 C 
ATOM      2  C   UNL     1       4.971   4.874  16.241  0.00  0.00    +0.000 C 
ATOM      3  C   UNL     1       4.593   3.442  16.582  0.00  0.00    +0.000 C 
ATOM      4  C   UNL     1       3.464   3.423  17.569  0.00  0.00    +0.000 A 
ATOM      5  C   UNL     1       2.726   2.243  17.755  0.00  0.00    +0.000 A 
ATOM      6  C   UNL     1       1.667   2.210  18.662  0.00  0.00    +0.000 A 
ATOM      7  C   UNL     1       1.352   3.354  19.386  0.00  0.00    +0.000 A 
ATOM      8  C   UNL     1       2.082   4.528  19.224  0.00  0.00    +0.000 A 
ATOM      9  C   UNL     1       3.150   4.559  18.325  0.00  0.00    +0.000 A 
ATOM     10  O   UNL     1       3.820   5.752  18.210  0.00  0.00    +0.000 OA
ENDROOT
BRANCH   7  11
ATOM     11  O   UNL     1       0.318   3.356  20.278  0.00  0.00    +0.000 OA
ATOM     12  H   UNL     1      -0.518   3.345  19.784  0.00  0.00    +0.000 HD
ENDBRANCH   7  11
BRANCH   1  13
ATOM     13  C   UNL     1       5.624   7.093  17.304  0.00  0.00    +0.000 C 
BRANCH  13  14
ATOM     14  N   UNL     1       7.033   7.097  16.887  0.00  0.00    +0.000 NA
ATOM     15  H   UNL     1       7.315   6.153  16.624  0.00  0.00    +0.000 HD
BRANCH  14  16
ATOM     16  C   UNL     1       7.911   7.588  17.947  0.00  0.00    +0.000 C 
BRANCH  16  17
ATOM     17  C   UNL     1       8.047   9.106  17.810  0.00  0.00    +0.000 C 
BRANCH  17  18
ATOM     18  C   UNL     1       8.945   9.689  18.900  0.00  0.00    +0.000 C 
BRANCH  18  19
ATOM     19  C   UNL     1       9.771  10.857  18.363  0.00  0.00    +0.000 C 
BRANCH  19  21
ATOM     20  C   UNL     1      11.982  11.953  18.855  0.00  0.00    +0.000 C 
ATOM     21  C   UNL     1      10.680  11.436  19.446  0.00  0.00    +0.000 C 
ENDBRANCH  19  21
ENDBRANCH  18  19
ENDBRANCH  17  18
ENDBRANCH  16  17
ENDBRANCH  14  16
ENDBRANCH  13  14
ENDBRANCH   1  13
TORSDOF 8
ENDMDL
