MODEL 1
REMARK VINA RESULT:      -8.4      0.000      0.000
REMARK  Name = 
REMARK  4 active torsions:
REMARK  status: ('A' for Active; 'I' for Inactive)
REMARK    1  A    between atoms: C_2  and  C_17
REMARK    2  A    between atoms: N_3  and  C_4
REMARK    3  A    between atoms: C_6  and  C_7
REMARK    4  A    between atoms: C_15  and  O_16
REMARK                            x       y       z     vdW  Elec       q    Type
REMARK                         _______ _______ _______ _____ _____    ______ ____
ROOT
ATOM      1  C   UNL     1       4.069   4.891  17.499  0.00  0.00    +0.000 A 
ATOM      2  C   UNL     1       3.378   6.069  17.798  0.00  0.00    +0.000 A 
ATOM      3  C   UNL     1       2.807   6.323  19.058  0.00  0.00    +0.000 A 
ATOM      4  C   UNL     1       2.916   5.307  20.020  0.00  0.00    +0.000 A 
ATOM      5  C   UNL     1       3.550   4.091  19.726  0.00  0.00    +0.000 A 
ATOM      6  C   UNL     1       4.117   3.887  18.467  0.00  0.00    +0.000 A 
ENDROOT
BRANCH   3   7
ATOM      7  C   UNL     1       2.131   7.616  19.322  0.00  0.00    +0.000 A 
ATOM      8  C   UNL     1       1.598   7.930  20.584  0.00  0.00    +0.000 A 
ATOM      9  C   UNL     1       0.929   9.139  20.811  0.00  0.00    +0.000 A 
ATOM     10  C   UNL     1       0.767  10.058  19.778  0.00  0.00    +0.000 A 
ATOM     11  C   UNL     1       1.284   9.776  18.520  0.00  0.00    +0.000 A 
ATOM     12  C   UNL     1       1.965   8.575  18.300  0.00  0.00    +0.000 A 
ENDBRANCH   3   7
BRANCH   1  15
ATOM     13  O   UNL     1       6.722   5.806  16.643  0.00  0.00    +0.000 OA
ATOM     14  C   UNL     1       5.965   5.170  15.912  0.00  0.00    +0.000 C 
ATOM     15  N   UNL     1       4.708   4.691  16.252  0.00  0.00    +0.000 N 
ATOM     16  H   UNL     1       4.268   4.037  15.610  0.00  0.00    +0.000 HD
BRANCH  14  17
ATOM     17  C   UNL     1       6.440   4.836  14.535  0.00  0.00    +0.000 A 
ATOM     18  C   UNL     1       5.741   3.868  13.815  0.00  0.00    +0.000 A 
ATOM     19  C   UNL     1       6.185   3.534  12.542  0.00  0.00    +0.000 A 
ATOM     20  C   UNL     1       7.314   4.165  12.038  0.00  0.00    +0.000 A 
ATOM     21  C   UNL     1       7.950   5.117  12.825  0.00  0.00    +0.000 A 
ATOM     22  N   UNL     1       7.539   5.482  14.064  0.00  0.00    +0.000 NA
ENDBRANCH  14  17
ENDBRANCH   1  15
BRANCH   6  23
ATOM     23  O   UNL     1       4.751   2.707  18.177  0.00  0.00    +0.000 OA
ATOM     24  H   UNL     1       4.973   2.265  19.013  0.00  0.00    +0.000 HD
ENDBRANCH   6  23
TORSDOF 4
ENDMDL
MODEL 2
REMARK VINA RESULT:      -8.3      0.073      1.027
REMARK  Name = 
REMARK  4 active torsions:
REMARK  status: ('A' for Active; 'I' for Inactive)
REMARK    1  A    between atoms: C_2  and  C_17
REMARK    2  A    between atoms: N_3  and  C_4
REMARK    3  A    between atoms: C_6  and  C_7
REMARK    4  A    between atoms: C_15  and  O_16
REMARK                            x       y       z     vdW  Elec       q    Type
REMARK                         _______ _______ _______ _____ _____    ______ ____
ROOT
ATOM      1  C   UNL     1       4.047   4.876  17.542  0.00  0.00    +0.000 A 
ATOM      2  C   UNL     1       3.351   6.051  17.840  0.00  0.00    +0.000 A 
ATOM      3  C   UNL     1       2.774   6.302  19.098  0.00  0.00    +0.000 A 
ATOM      4  C   UNL     1       2.883   5.285  20.059  0.00  0.00    +0.000 A 
ATOM      5  C   UNL     1       3.522   4.072  19.767  0.00  0.00    +0.000 A 
ATOM      6  C   UNL     1       4.095   3.871  18.510  0.00  0.00    +0.000 A 
ENDROOT
BRANCH   3   7
ATOM      7  C   UNL     1       2.091   7.592  19.360  0.00  0.00    +0.000 A 
ATOM      8  C   UNL     1       1.932   8.565  18.359  0.00  0.00    +0.000 A 
ATOM      9  C   UNL     1       1.319   9.794  18.629  0.00  0.00    +0.000 A 
ATOM     10  C   UNL     1       0.859  10.084  19.910  0.00  0.00    +0.000 A 
ATOM     11  C   UNL     1       1.001   9.141  20.921  0.00  0.00    +0.000 A 
ATOM     12  C   UNL     1       1.600   7.909  20.645  0.00  0.00    +0.000 A 
ENDBRANCH   3   7
BRANCH   1  15
ATOM     13  O   UNL     1       6.695   5.813  16.694  0.00  0.00    +0.000 OA
ATOM     14  C   UNL     1       5.946   5.169  15.961  0.00  0.00    +0.000 C 
ATOM     15  N   UNL     1       4.692   4.680  16.298  0.00  0.00    +0.000 N 
ATOM     16  H   UNL     1       4.260   4.020  15.656  0.00  0.00    +0.000 HD
BRANCH  14  17
ATOM     17  C   UNL     1       6.428   4.837  14.587  0.00  0.00    +0.000 A 
ATOM     18  C   UNL     1       5.726   3.879  13.856  0.00  0.00    +0.000 A 
ATOM     19  C   UNL     1       6.176   3.546  12.586  0.00  0.00    +0.000 A 
ATOM     20  C   UNL     1       7.315   4.169  12.093  0.00  0.00    +0.000 A 
ATOM     21  C   UNL     1       7.954   5.111  12.889  0.00  0.00    +0.000 A 
ATOM     22  N   UNL     1       7.537   5.474  14.127  0.00  0.00    +0.000 NA
ENDBRANCH  14  17
ENDBRANCH   1  15
BRANCH   6  23
ATOM     23  O   UNL     1       4.734   2.694  18.221  0.00  0.00    +0.000 OA
ATOM     24  H   UNL     1       4.205   1.962  18.579  0.00  0.00    +0.000 HD
ENDBRANCH   6  23
TORSDOF 4
ENDMDL
MODEL 3
REMARK VINA RESULT:      -7.8      3.890      5.675
REMARK  Name = 
REMARK  4 active torsions:
REMARK  status: ('A' for Active; 'I' for Inactive)
REMARK    1  A    between atoms: C_2  and  C_17
REMARK    2  A    between atoms: N_3  and  C_4
REMARK    3  A    between atoms: C_6  and  C_7
REMARK    4  A    between atoms: C_15  and  O_16
REMARK                            x       y       z     vdW  Elec       q    Type
REMARK                         _______ _______ _______ _____ _____    ______ ____
ROOT
ATOM      1  C   UNL     1       6.091   6.350  16.930  0.00  0.00    +0.000 A 
ATOM      2  C   UNL     1       4.933   5.968  17.615  0.00  0.00    +0.000 A 
ATOM      3  C   UNL     1       4.329   4.709  17.455  0.00  0.00    +0.000 A 
ATOM      4  C   UNL     1       4.916   3.837  16.525  0.00  0.00    +0.000 A 
ATOM      5  C   UNL     1       6.041   4.218  15.780  0.00  0.00    +0.000 A 
ATOM      6  C   UNL     1       6.619   5.473  15.981  0.00  0.00    +0.000 A 
ENDROOT
BRANCH   3   7
ATOM      7  C   UNL     1       3.129   4.352  18.250  0.00  0.00    +0.000 A 
ATOM      8  C   UNL     1       2.845   4.967  19.482  0.00  0.00    +0.000 A 
ATOM      9  C   UNL     1       1.729   4.595  20.240  0.00  0.00    +0.000 A 
ATOM     10  C   UNL     1       0.875   3.591  19.791  0.00  0.00    +0.000 A 
ATOM     11  C   UNL     1       1.130   2.965  18.577  0.00  0.00    +0.000 A 
ATOM     12  C   UNL     1       2.236   3.349  17.814  0.00  0.00    +0.000 A 
ENDBRANCH   3   7
BRANCH   1  15
ATOM     13  O   UNL     1       8.283   6.944  18.787  0.00  0.00    +0.000 OA
ATOM     14  C   UNL     1       7.755   7.800  18.078  0.00  0.00    +0.000 C 
ATOM     15  N   UNL     1       6.730   7.590  17.168  0.00  0.00    +0.000 N 
ATOM     16  H   UNL     1       6.510   8.350  16.529  0.00  0.00    +0.000 HD
BRANCH  14  17
ATOM     17  C   UNL     1       8.279   9.196  18.161  0.00  0.00    +0.000 A 
ATOM     18  C   UNL     1       9.285   9.468  19.087  0.00  0.00    +0.000 A 
ATOM     19  C   UNL     1       9.766  10.767  19.188  0.00  0.00    +0.000 A 
ATOM     20  C   UNL     1       9.221  11.750  18.373  0.00  0.00    +0.000 A 
ATOM     21  C   UNL     1       8.220  11.392  17.479  0.00  0.00    +0.000 A 
ATOM     22  N   UNL     1       7.735  10.134  17.340  0.00  0.00    +0.000 NA
ENDBRANCH  14  17
ENDBRANCH   1  15
BRANCH   6  23
ATOM     23  O   UNL     1       7.727   5.847  15.268  0.00  0.00    +0.000 OA
ATOM     24  H   UNL     1       7.441   6.123  14.381  0.00  0.00    +0.000 HD
ENDBRANCH   6  23
TORSDOF 4
ENDMDL
MODEL 4
REMARK VINA RESULT:      -7.7      3.903      5.715
REMARK  Name = 
REMARK  4 active torsions:
REMARK  status: ('A' for Active; 'I' for Inactive)
REMARK    1  A    between atoms: C_2  and  C_17
REMARK    2  A    between atoms: N_3  and  C_4
REMARK    3  A    between atoms: C_6  and  C_7
REMARK    4  A    between atoms: C_15  and  O_16
REMARK                            x       y       z     vdW  Elec       q    Type
REMARK                         _______ _______ _______ _____ _____    ______ ____
ROOT
ATOM      1  C   UNL     1       6.112   6.354  16.981  0.00  0.00    +0.000 A 
ATOM      2  C   UNL     1       4.969   5.961  17.685  0.00  0.00    +0.000 A 
ATOM      3  C   UNL     1       4.377   4.694  17.539  0.00  0.00    +0.000 A 
ATOM      4  C   UNL     1       4.960   3.826  16.603  0.00  0.00    +0.000 A 
ATOM      5  C   UNL     1       6.069   4.217  15.839  0.00  0.00    +0.000 A 
ATOM      6  C   UNL     1       6.635   5.479  16.028  0.00  0.00    +0.000 A 
ENDROOT
BRANCH   3   7
ATOM      7  C   UNL     1       3.193   4.326  18.353  0.00  0.00    +0.000 A 
ATOM      8  C   UNL     1       2.157   3.528  17.839  0.00  0.00    +0.000 A 
ATOM      9  C   UNL     1       1.028   3.218  18.606  0.00  0.00    +0.000 A 
ATOM     10  C   UNL     1       0.902   3.709  19.903  0.00  0.00    +0.000 A 
ATOM     11  C   UNL     1       1.911   4.500  20.439  0.00  0.00    +0.000 A 
ATOM     12  C   UNL     1       3.044   4.795  19.676  0.00  0.00    +0.000 A 
ENDBRANCH   3   7
BRANCH   1  15
ATOM     13  O   UNL     1       8.336   6.975  18.791  0.00  0.00    +0.000 OA
ATOM     14  C   UNL     1       7.782   7.824  18.094  0.00  0.00    +0.000 C 
ATOM     15  N   UNL     1       6.741   7.601  17.206  0.00  0.00    +0.000 N 
ATOM     16  H   UNL     1       6.498   8.358  16.571  0.00  0.00    +0.000 HD
BRANCH  14  17
ATOM     17  C   UNL     1       8.290   9.227  18.165  0.00  0.00    +0.000 A 
ATOM     18  C   UNL     1       9.303   9.515  19.079  0.00  0.00    +0.000 A 
ATOM     19  C   UNL     1       9.769  10.819  19.170  0.00  0.00    +0.000 A 
ATOM     20  C   UNL     1       9.204  11.792  18.357  0.00  0.00    +0.000 A 
ATOM     21  C   UNL     1       8.198  11.419  17.475  0.00  0.00    +0.000 A 
ATOM     22  N   UNL     1       7.727  10.154  17.346  0.00  0.00    +0.000 NA
ENDBRANCH  14  17
ENDBRANCH   1  15
BRANCH   6  23
ATOM     23  O   UNL     1       7.728   5.863  15.296  0.00  0.00    +0.000 OA
ATOM     24  H   UNL     1       7.480   6.631  14.755  0.00  0.00    +0.000 HD
ENDBRANCH   6  23
TORSDOF 4
ENDMDL
MODEL 5
REMARK VINA RESULT:      -7.7      3.895      5.642
REMARK  Name = 
REMARK  4 active torsions:
REMARK  status: ('A' for Active; 'I' for Inactive)
REMARK    1  A    between atoms: C_2  and  C_17
REMARK    2  A    between atoms: N_3  and  C_4
REMARK    3  A    between atoms: C_6  and  C_7
REMARK    4  A    between atoms: C_15  and  O_16
REMARK                            x       y       z     vdW  Elec       q    Type
REMARK                         _______ _______ _______ _____ _____    ______ ____
ROOT
ATOM      1  C   UNL     1       6.081   6.330  16.956  0.00  0.00    +0.000 A 
ATOM      2  C   UNL     1       4.920   5.941  17.632  0.00  0.00    +0.000 A 
ATOM      3  C   UNL     1       4.306   4.690  17.443  0.00  0.00    +0.000 A 
ATOM      4  C   UNL     1       4.887   3.836  16.493  0.00  0.00    +0.000 A 
ATOM      5  C   UNL     1       6.016   4.225  15.757  0.00  0.00    +0.000 A 
ATOM      6  C   UNL     1       6.603   5.470  15.988  0.00  0.00    +0.000 A 
ENDROOT
BRANCH   3   7
ATOM      7  C   UNL     1       3.103   4.325  18.229  0.00  0.00    +0.000 A 
ATOM      8  C   UNL     1       2.799   4.945  19.452  0.00  0.00    +0.000 A 
ATOM      9  C   UNL     1       1.680   4.566  20.203  0.00  0.00    +0.000 A 
ATOM     10  C   UNL     1       0.844   3.547  19.754  0.00  0.00    +0.000 A 
ATOM     11  C   UNL     1       1.118   2.915  18.547  0.00  0.00    +0.000 A 
ATOM     12  C   UNL     1       2.227   3.307  17.792  0.00  0.00    +0.000 A 
ENDBRANCH   3   7
BRANCH   1  15
ATOM     13  O   UNL     1       8.285   6.861  18.819  0.00  0.00    +0.000 OA
ATOM     14  C   UNL     1       7.760   7.738  18.134  0.00  0.00    +0.000 C 
ATOM     15  N   UNL     1       6.730   7.558  17.223  0.00  0.00    +0.000 N 
ATOM     16  H   UNL     1       6.513   8.336  16.604  0.00  0.00    +0.000 HD
BRANCH  14  17
ATOM     17  C   UNL     1       8.294   9.128  18.251  0.00  0.00    +0.000 A 
ATOM     18  C   UNL     1       7.784  10.103  17.394  0.00  0.00    +0.000 A 
ATOM     19  C   UNL     1       8.287  11.395  17.478  0.00  0.00    +0.000 A 
ATOM     20  C   UNL     1       9.287  11.667  18.401  0.00  0.00    +0.000 A 
ATOM     21  C   UNL     1       9.738  10.635  19.215  0.00  0.00    +0.000 A 
ATOM     22  N   UNL     1       9.262   9.367  19.174  0.00  0.00    +0.000 NA
ENDBRANCH  14  17
ENDBRANCH   1  15
BRANCH   6  23
ATOM     23  O   UNL     1       7.714   5.852  15.284  0.00  0.00    +0.000 OA
ATOM     24  H   UNL     1       8.399   6.125  15.917  0.00  0.00    +0.000 HD
ENDBRANCH   6  23
TORSDOF 4
ENDMDL
MODEL 6
REMARK VINA RESULT:      -7.6      0.667      1.472
REMARK  Name = 
REMARK  4 active torsions:
REMARK  status: ('A' for Active; 'I' for Inactive)
REMARK    1  A    between atoms: C_2  and  C_17
REMARK    2  A    between atoms: N_3  and  C_4
REMARK    3  A    between atoms: C_6  and  C_7
REMARK    4  A    between atoms: C_15  and  O_16
REMARK                            x       y       z     vdW  Elec       q    Type
REMARK                         _______ _______ _______ _____ _____    ______ ____
ROOT
ATOM      1  C   UNL     1       4.067   4.855  17.501  0.00  0.00    +0.000 A 
ATOM      2  C   UNL     1       3.361   6.042  17.722  0.00  0.00    +0.000 A 
ATOM      3  C   UNL     1       2.816   6.387  18.971  0.00  0.00    +0.000 A 
ATOM      4  C   UNL     1       2.970   5.456  20.009  0.00  0.00    +0.000 A 
ATOM      5  C   UNL     1       3.620   4.231  19.799  0.00  0.00    +0.000 A 
ATOM      6  C   UNL     1       4.159   3.935  18.546  0.00  0.00    +0.000 A 
ENDROOT
BRANCH   3   7
ATOM      7  C   UNL     1       2.120   7.685  19.147  0.00  0.00    +0.000 A 
ATOM      8  C   UNL     1       1.994   8.608  18.095  0.00  0.00    +0.000 A 
ATOM      9  C   UNL     1       1.367   9.846  18.283  0.00  0.00    +0.000 A 
ATOM     10  C   UNL     1       0.861  10.195  19.532  0.00  0.00    +0.000 A 
ATOM     11  C   UNL     1       0.970   9.302  20.592  0.00  0.00    +0.000 A 
ATOM     12  C   UNL     1       1.582   8.061  20.397  0.00  0.00    +0.000 A 
ENDBRANCH   3   7
BRANCH   1  15
ATOM     13  O   UNL     1       6.351   6.195  16.237  0.00  0.00    +0.000 OA
ATOM     14  C   UNL     1       5.752   5.256  15.714  0.00  0.00    +0.000 C 
ATOM     15  N   UNL     1       4.679   4.566  16.258  0.00  0.00    +0.000 N 
ATOM     16  H   UNL     1       4.395   3.705  15.796  0.00  0.00    +0.000 HD
BRANCH  14  17
ATOM     17  C   UNL     1       6.234   4.773  14.386  0.00  0.00    +0.000 A 
ATOM     18  C   UNL     1       7.399   5.334  13.864  0.00  0.00    +0.000 A 
ATOM     19  C   UNL     1       7.846   4.908  12.621  0.00  0.00    +0.000 A 
ATOM     20  C   UNL     1       7.113   3.948  11.936  0.00  0.00    +0.000 A 
ATOM     21  C   UNL     1       5.962   3.443  12.529  0.00  0.00    +0.000 A 
ATOM     22  N   UNL     1       5.502   3.822  13.747  0.00  0.00    +0.000 NA
ENDBRANCH  14  17
ENDBRANCH   1  15
BRANCH   6  23
ATOM     23  O   UNL     1       4.809   2.747  18.336  0.00  0.00    +0.000 OA
ATOM     24  H   UNL     1       4.937   2.312  19.196  0.00  0.00    +0.000 HD
ENDBRANCH   6  23
TORSDOF 4
ENDMDL
MODEL 7
REMARK VINA RESULT:      -7.6      0.645      1.045
REMARK  Name = 
REMARK  4 active torsions:
REMARK  status: ('A' for Active; 'I' for Inactive)
REMARK    1  A    between atoms: C_2  and  C_17
REMARK    2  A    between atoms: N_3  and  C_4
REMARK    3  A    between atoms: C_6  and  C_7
REMARK    4  A    between atoms: C_15  and  O_16
REMARK                            x       y       z     vdW  Elec       q    Type
REMARK                         _______ _______ _______ _____ _____    ______ ____
ROOT
ATOM      1  C   UNL     1       4.003   4.689  17.511  0.00  0.00    +0.000 A 
ATOM      2  C   UNL     1       3.353   5.891  17.811  0.00  0.00    +0.000 A 
ATOM      3  C   UNL     1       2.792   6.165  19.070  0.00  0.00    +0.000 A 
ATOM      4  C   UNL     1       2.866   5.146  20.033  0.00  0.00    +0.000 A 
ATOM      5  C   UNL     1       3.456   3.909  19.740  0.00  0.00    +0.000 A 
ATOM      6  C   UNL     1       4.016   3.684  18.481  0.00  0.00    +0.000 A 
ENDROOT
BRANCH   3   7
ATOM      7  C   UNL     1       2.160   7.481  19.334  0.00  0.00    +0.000 A 
ATOM      8  C   UNL     1       1.625   7.809  20.591  0.00  0.00    +0.000 A 
ATOM      9  C   UNL     1       0.999   9.040  20.817  0.00  0.00    +0.000 A 
ATOM     10  C   UNL     1       0.883   9.970  19.787  0.00  0.00    +0.000 A 
ATOM     11  C   UNL     1       1.403   9.674  18.533  0.00  0.00    +0.000 A 
ATOM     12  C   UNL     1       2.042   8.450  18.315  0.00  0.00    +0.000 A 
ENDBRANCH   3   7
BRANCH   1  15
ATOM     13  O   UNL     1       6.474   5.887  16.481  0.00  0.00    +0.000 OA
ATOM     14  C   UNL     1       5.800   5.084  15.837  0.00  0.00    +0.000 C 
ATOM     15  N   UNL     1       4.634   4.466  16.265  0.00  0.00    +0.000 N 
ATOM     16  H   UNL     1       4.279   3.698  15.701  0.00  0.00    +0.000 HD
BRANCH  14  17
ATOM     17  C   UNL     1       6.285   4.694  14.479  0.00  0.00    +0.000 A 
ATOM     18  C   UNL     1       7.406   5.347  13.969  0.00  0.00    +0.000 A 
ATOM     19  C   UNL     1       7.855   5.007  12.699  0.00  0.00    +0.000 A 
ATOM     20  C   UNL     1       7.166   4.041  11.979  0.00  0.00    +0.000 A 
ATOM     21  C   UNL     1       6.057   3.442  12.564  0.00  0.00    +0.000 A 
ATOM     22  N   UNL     1       5.598   3.734  13.806  0.00  0.00    +0.000 NA
ENDBRANCH  14  17
ENDBRANCH   1  15
BRANCH   6  23
ATOM     23  O   UNL     1       4.608   2.483  18.191  0.00  0.00    +0.000 OA
ATOM     24  H   UNL     1       4.752   2.004  19.024  0.00  0.00    +0.000 HD
ENDBRANCH   6  23
TORSDOF 4
ENDMDL
MODEL 8
REMARK VINA RESULT:      -7.6      3.894      5.683
REMARK  Name = 
REMARK  4 active torsions:
REMARK  status: ('A' for Active; 'I' for Inactive)
REMARK    1  A    between atoms: C_2  and  C_17
REMARK    2  A    between atoms: N_3  and  C_4
REMARK    3  A    between atoms: C_6  and  C_7
REMARK    4  A    between atoms: C_15  and  O_16
REMARK                            x       y       z     vdW  Elec       q    Type
REMARK                         _______ _______ _______ _____ _____    ______ ____
ROOT
ATOM      1  C   UNL     1       6.104   6.310  16.985  0.00  0.00    +0.000 A 
ATOM      2  C   UNL     1       4.954   5.908  17.671  0.00  0.00    +0.000 A 
ATOM      3  C   UNL     1       4.348   4.653  17.481  0.00  0.00    +0.000 A 
ATOM      4  C   UNL     1       4.925   3.810  16.519  0.00  0.00    +0.000 A 
ATOM      5  C   UNL     1       6.042   4.213  15.773  0.00  0.00    +0.000 A 
ATOM      6  C   UNL     1       6.621   5.462  16.005  0.00  0.00    +0.000 A 
ENDROOT
BRANCH   3   7
ATOM      7  C   UNL     1       3.157   4.272  18.279  0.00  0.00    +0.000 A 
ATOM      8  C   UNL     1       2.298   3.234  17.880  0.00  0.00    +0.000 A 
ATOM      9  C   UNL     1       1.157   2.908  18.623  0.00  0.00    +0.000 A 
ATOM     10  C   UNL     1       0.841   3.621  19.776  0.00  0.00    +0.000 A 
ATOM     11  C   UNL     1       1.672   4.652  20.196  0.00  0.00    +0.000 A 
ATOM     12  C   UNL     1       2.820   4.965  19.461  0.00  0.00    +0.000 A 
ENDBRANCH   3   7
BRANCH   1  15
ATOM     13  O   UNL     1       8.334   6.846  18.814  0.00  0.00    +0.000 OA
ATOM     14  C   UNL     1       7.789   7.724  18.147  0.00  0.00    +0.000 C 
ATOM     15  N   UNL     1       6.745   7.543  17.253  0.00  0.00    +0.000 N 
ATOM     16  H   UNL     1       6.510   8.324  16.645  0.00  0.00    +0.000 HD
BRANCH  14  17
ATOM     17  C   UNL     1       8.312   9.118  18.268  0.00  0.00    +0.000 A 
ATOM     18  C   UNL     1       7.806  10.087  17.403  0.00  0.00    +0.000 A 
ATOM     19  C   UNL     1       8.299  11.383  17.490  0.00  0.00    +0.000 A 
ATOM     20  C   UNL     1       9.285  11.664  18.426  0.00  0.00    +0.000 A 
ATOM     21  C   UNL     1       9.734  10.637  19.247  0.00  0.00    +0.000 A 
ATOM     22  N   UNL     1       9.267   9.365  19.203  0.00  0.00    +0.000 NA
ENDBRANCH  14  17
ENDBRANCH   1  15
BRANCH   6  23
ATOM     23  O   UNL     1       7.722   5.858  15.291  0.00  0.00    +0.000 OA
ATOM     24  H   UNL     1       8.139   6.600  15.759  0.00  0.00    +0.000 HD
ENDBRANCH   6  23
TORSDOF 4
ENDMDL
MODEL 9
REMARK VINA RESULT:      -7.4      1.958      7.589
REMARK  Name = 
REMARK  4 active torsions:
REMARK  status: ('A' for Active; 'I' for Inactive)
REMARK    1  A    between atoms: C_2  and  C_17
REMARK    2  A    between atoms: N_3  and  C_4
REMARK    3  A    between atoms: C_6  and  C_7
REMARK    4  A    between atoms: C_15  and  O_16
REMARK                            x       y       z     vdW  Elec       q    Type
REMARK                         _______ _______ _______ _____ _____    ______ ____
ROOT
ATOM      1  C   UNL     1       5.418   6.089  17.404  0.00  0.00    +0.000 A 
ATOM      2  C   UNL     1       5.565   5.781  16.047  0.00  0.00    +0.000 A 
ATOM      3  C   UNL     1       6.498   4.843  15.572  0.00  0.00    +0.000 A 
ATOM      4  C   UNL     1       7.333   4.240  16.525  0.00  0.00    +0.000 A 
ATOM      5  C   UNL     1       7.250   4.576  17.884  0.00  0.00    +0.000 A 
ATOM      6  C   UNL     1       6.298   5.502  18.315  0.00  0.00    +0.000 A 
ENDROOT
BRANCH   3   7
ATOM      7  C   UNL     1       6.566   4.528  14.124  0.00  0.00    +0.000 A 
ATOM      8  C   UNL     1       5.702   3.596  13.525  0.00  0.00    +0.000 A 
ATOM      9  C   UNL     1       5.801   3.281  12.165  0.00  0.00    +0.000 A 
ATOM     10  C   UNL     1       6.774   3.883  11.372  0.00  0.00    +0.000 A 
ATOM     11  C   UNL     1       7.642   4.810  11.936  0.00  0.00    +0.000 A 
ATOM     12  C   UNL     1       7.531   5.134  13.291  0.00  0.00    +0.000 A 
ENDBRANCH   3   7
BRANCH   1  15
ATOM     13  O   UNL     1       2.757   5.439  18.453  0.00  0.00    +0.000 OA
ATOM     14  C   UNL     1       3.168   6.592  18.339  0.00  0.00    +0.000 C 
ATOM     15  N   UNL     1       4.416   6.973  17.869  0.00  0.00    +0.000 N 
ATOM     16  H   UNL     1       4.684   7.947  17.991  0.00  0.00    +0.000 HD
BRANCH  14  17
ATOM     17  C   UNL     1       2.270   7.701  18.779  0.00  0.00    +0.000 A 
ATOM     18  C   UNL     1       1.868   8.639  17.829  0.00  0.00    +0.000 A 
ATOM     19  C   UNL     1       1.049   9.687  18.230  0.00  0.00    +0.000 A 
ATOM     20  C   UNL     1       0.671   9.771  19.564  0.00  0.00    +0.000 A 
ATOM     21  C   UNL     1       1.120   8.794  20.444  0.00  0.00    +0.000 A 
ATOM     22  N   UNL     1       1.906   7.748  20.088  0.00  0.00    +0.000 NA
ENDBRANCH  14  17
ENDBRANCH   1  15
BRANCH   6  23
ATOM     23  O   UNL     1       6.199   5.825  19.643  0.00  0.00    +0.000 OA
ATOM     24  H   UNL     1       5.530   6.523  19.739  0.00  0.00    +0.000 HD
ENDBRANCH   6  23
TORSDOF 4
ENDMDL
