MODEL 1
REMARK VINA RESULT:      -8.3      0.000      0.000
REMARK  Name = 
REMARK  7 active torsions:
REMARK  status: ('A' for Active; 'I' for Inactive)
REMARK    1  A    between atoms: C_2  and  C_7
REMARK    2  A    between atoms: N_3  and  C_4
REMARK    3  A    between atoms: C_4  and  C_5
REMARK    4  A    between atoms: C_5  and  O_6
REMARK    5  A    between atoms: C_10  and  O_11
REMARK    6  A    between atoms: O_11  and  C_12
REMARK    7  A    between atoms: C_20  and  C_21
REMARK                            x       y       z     vdW  Elec       q    Type
REMARK                         _______ _______ _______ _____ _____    ______ ____
ROOT
ATOM      1  C   UNL     1       7.096   5.695  16.628  0.00  0.00    +0.000 A 
ATOM      2  C   UNL     1       7.558   5.322  17.894  0.00  0.00    +0.000 A 
ATOM      3  C   UNL     1       6.697   5.350  18.986  0.00  0.00    +0.000 A 
ATOM      4  C   UNL     1       5.378   5.762  18.818  0.00  0.00    +0.000 A 
ATOM      5  C   UNL     1       4.929   6.239  17.582  0.00  0.00    +0.000 A 
ATOM      6  C   UNL     1       5.800   6.196  16.481  0.00  0.00    +0.000 A 
ATOM      7  C   UNL     1       3.521   6.742  17.422  0.00  0.00    +0.000 C 
ATOM      8  C   UNL     1       2.779   6.766  18.757  0.00  0.00    +0.000 C 
ATOM      9  C   UNL     1       3.160   5.547  19.608  0.00  0.00    +0.000 C 
ATOM     10  O   UNL     1       4.568   5.635  19.917  0.00  0.00    +0.000 OA
ENDROOT
BRANCH   9  11
ATOM     11  C   UNL     1       2.756   4.171  19.072  0.00  0.00    +0.000 A 
ATOM     12  C   UNL     1       1.398   3.825  18.939  0.00  0.00    +0.000 A 
ATOM     13  C   UNL     1       1.015   2.571  18.456  0.00  0.00    +0.000 A 
ATOM     14  C   UNL     1       1.981   1.646  18.074  0.00  0.00    +0.000 A 
ATOM     15  C   UNL     1       3.328   1.979  18.167  0.00  0.00    +0.000 A 
ATOM     16  C   UNL     1       3.713   3.232  18.653  0.00  0.00    +0.000 A 
ENDBRANCH   9  11
BRANCH   1  17
ATOM     17  O   UNL     1       7.893   5.636  15.506  0.00  0.00    +0.000 OA
BRANCH  17  21
ATOM     18  C   UNL     1       6.205   3.871  12.673  0.00  0.00    +0.000 A 
ATOM     19  C   UNL     1       7.183   4.727  12.208  0.00  0.00    +0.000 A 
ATOM     20  N   UNL     1       7.889   5.414  13.174  0.00  0.00    +0.000 NA
ATOM     21  C   UNL     1       7.436   5.099  14.369  0.00  0.00    +0.000 A 
ATOM     22  S   UNL     1       6.193   3.914  14.389  0.00  0.00    +0.000 S 
BRANCH  18  24
ATOM     23  O   UNL     1       5.539   1.866  11.646  0.00  0.00    +0.000 OA
ATOM     24  C   UNL     1       5.318   3.053  11.872  0.00  0.00    +0.000 C 
ATOM     25  N   UNL     1       4.203   3.682  11.357  0.00  0.00    +0.000 N 
ATOM     26  H   UNL     1       4.059   4.666  11.548  0.00  0.00    +0.000 HD
BRANCH  25  27
ATOM     27  C   UNL     1       3.256   2.990  10.500  0.00  0.00    +0.000 C 
BRANCH  27  28
ATOM     28  C   UNL     1       2.476   3.953   9.606  0.00  0.00    +0.000 C 
BRANCH  28  29
ATOM     29  O   UNL     1       3.249   4.279   8.450  0.00  0.00    +0.000 OA
ATOM     30  H   UNL     1       2.680   4.836   7.891  0.00  0.00    +0.000 HD
ENDBRANCH  28  29
ENDBRANCH  27  28
ENDBRANCH  25  27
ENDBRANCH  18  24
ENDBRANCH  17  21
ENDBRANCH   1  17
TORSDOF 7
ENDMDL
MODEL 2
REMARK VINA RESULT:      -8.0      1.469      2.019
REMARK  Name = 
REMARK  7 active torsions:
REMARK  status: ('A' for Active; 'I' for Inactive)
REMARK    1  A    between atoms: C_2  and  C_7
REMARK    2  A    between atoms: N_3  and  C_4
REMARK    3  A    between atoms: C_4  and  C_5
REMARK    4  A    between atoms: C_5  and  O_6
REMARK    5  A    between atoms: C_10  and  O_11
REMARK    6  A    between atoms: O_11  and  C_12
REMARK    7  A    between atoms: C_20  and  C_21
REMARK                            x       y       z     vdW  Elec       q    Type
REMARK                         _______ _______ _______ _____ _____    ______ ____
ROOT
ATOM      1  C   UNL     1       6.702   6.030  16.996  0.00  0.00    +0.000 A 
ATOM      2  C   UNL     1       7.235   5.365  18.105  0.00  0.00    +0.000 A 
ATOM      3  C   UNL     1       6.439   5.118  19.218  0.00  0.00    +0.000 A 
ATOM      4  C   UNL     1       5.113   5.544  19.231  0.00  0.00    +0.000 A 
ATOM      5  C   UNL     1       4.595   6.303  18.175  0.00  0.00    +0.000 A 
ATOM      6  C   UNL     1       5.401   6.539  17.050  0.00  0.00    +0.000 A 
ATOM      7  C   UNL     1       3.183   6.816  18.224  0.00  0.00    +0.000 C 
ATOM      8  C   UNL     1       2.520   6.507  19.564  0.00  0.00    +0.000 C 
ATOM      9  C   UNL     1       2.944   5.122  20.070  0.00  0.00    +0.000 C 
ATOM     10  O   UNL     1       4.368   5.146  20.311  0.00  0.00    +0.000 OA
ENDROOT
BRANCH   9  11
ATOM     11  C   UNL     1       2.504   3.913  19.239  0.00  0.00    +0.000 A 
ATOM     12  C   UNL     1       1.179   3.446  19.302  0.00  0.00    +0.000 A 
ATOM     13  C   UNL     1       0.764   2.341  18.554  0.00  0.00    +0.000 A 
ATOM     14  C   UNL     1       1.661   1.695  17.709  0.00  0.00    +0.000 A 
ATOM     15  C   UNL     1       2.968   2.160  17.606  0.00  0.00    +0.000 A 
ATOM     16  C   UNL     1       3.384   3.263  18.357  0.00  0.00    +0.000 A 
ENDBRANCH   9  11
BRANCH   1  17
ATOM     17  O   UNL     1       7.433   6.254  15.850  0.00  0.00    +0.000 OA
BRANCH  17  21
ATOM     18  C   UNL     1       6.380   3.991  13.064  0.00  0.00    +0.000 A 
ATOM     19  C   UNL     1       7.492   4.726  12.708  0.00  0.00    +0.000 A 
ATOM     20  N   UNL     1       7.983   5.580  13.675  0.00  0.00    +0.000 NA
ATOM     21  C   UNL     1       7.234   5.511  14.755  0.00  0.00    +0.000 A 
ATOM     22  S   UNL     1       5.952   4.370  14.683  0.00  0.00    +0.000 S 
BRANCH  18  24
ATOM     23  O   UNL     1       4.499   3.219  11.888  0.00  0.00    +0.000 OA
ATOM     24  C   UNL     1       5.665   3.045  12.233  0.00  0.00    +0.000 C 
ATOM     25  N   UNL     1       6.360   1.916  11.852  0.00  0.00    +0.000 N 
ATOM     26  H   UNL     1       7.314   1.794  12.167  0.00  0.00    +0.000 HD
BRANCH  25  27
ATOM     27  C   UNL     1       5.746   0.865  11.057  0.00  0.00    +0.000 C 
BRANCH  27  28
ATOM     28  C   UNL     1       6.347  -0.508  11.353  0.00  0.00    +0.000 C 
BRANCH  28  29
ATOM     29  O   UNL     1       5.344  -1.517  11.226  0.00  0.00    +0.000 OA
ATOM     30  H   UNL     1       5.810  -2.334  10.980  0.00  0.00    +0.000 HD
ENDBRANCH  28  29
ENDBRANCH  27  28
ENDBRANCH  25  27
ENDBRANCH  18  24
ENDBRANCH  17  21
ENDBRANCH   1  17
TORSDOF 7
ENDMDL
MODEL 3
REMARK VINA RESULT:      -7.7      4.527      7.138
REMARK  Name = 
REMARK  7 active torsions:
REMARK  status: ('A' for Active; 'I' for Inactive)
REMARK    1  A    between atoms: C_2  and  C_7
REMARK    2  A    between atoms: N_3  and  C_4
REMARK    3  A    between atoms: C_4  and  C_5
REMARK    4  A    between atoms: C_5  and  O_6
REMARK    5  A    between atoms: C_10  and  O_11
REMARK    6  A    between atoms: O_11  and  C_12
REMARK    7  A    between atoms: C_20  and  C_21
REMARK                            x       y       z     vdW  Elec       q    Type
REMARK                         _______ _______ _______ _____ _____    ______ ____
ROOT
ATOM      1  C   UNL     1       2.319   7.717  19.111  0.00  0.00    +0.000 A 
ATOM      2  C   UNL     1       1.941   8.096  17.819  0.00  0.00    +0.000 A 
ATOM      3  C   UNL     1       1.068   9.162  17.633  0.00  0.00    +0.000 A 
ATOM      4  C   UNL     1       0.561   9.844  18.737  0.00  0.00    +0.000 A 
ATOM      5  C   UNL     1       0.844   9.411  20.037  0.00  0.00    +0.000 A 
ATOM      6  C   UNL     1       1.736   8.341  20.218  0.00  0.00    +0.000 A 
ATOM      7  C   UNL     1       0.242  10.111  21.224  0.00  0.00    +0.000 C 
ATOM      8  C   UNL     1      -0.748  11.191  20.795  0.00  0.00    +0.000 C 
ATOM      9  C   UNL     1      -0.247  11.915  19.539  0.00  0.00    +0.000 C 
ATOM     10  O   UNL     1      -0.188  10.958  18.459  0.00  0.00    +0.000 OA
ENDROOT
BRANCH   9  11
ATOM     11  C   UNL     1       1.040  12.735  19.676  0.00  0.00    +0.000 A 
ATOM     12  C   UNL     1       1.851  12.986  18.554  0.00  0.00    +0.000 A 
ATOM     13  C   UNL     1       3.030  13.728  18.665  0.00  0.00    +0.000 A 
ATOM     14  C   UNL     1       3.409  14.255  19.895  0.00  0.00    +0.000 A 
ATOM     15  C   UNL     1       2.605  14.046  21.011  0.00  0.00    +0.000 A 
ATOM     16  C   UNL     1       1.427  13.301  20.902  0.00  0.00    +0.000 A 
ENDBRANCH   9  11
BRANCH   1  17
ATOM     17  O   UNL     1       3.220   6.702  19.347  0.00  0.00    +0.000 OA
BRANCH  17  21
ATOM     18  C   UNL     1       5.131   5.243  16.480  0.00  0.00    +0.000 A 
ATOM     19  C   UNL     1       4.164   4.365  16.927  0.00  0.00    +0.000 A 
ATOM     20  N   UNL     1       3.381   4.812  17.970  0.00  0.00    +0.000 NA
ATOM     21  C   UNL     1       3.763   6.019  18.332  0.00  0.00    +0.000 A 
ATOM     22  S   UNL     1       5.031   6.695  17.391  0.00  0.00    +0.000 S 
BRANCH  18  24
ATOM     23  O   UNL     1       7.215   5.502  15.428  0.00  0.00    +0.000 OA
ATOM     24  C   UNL     1       6.089   5.011  15.419  0.00  0.00    +0.000 C 
ATOM     25  N   UNL     1       5.667   4.213  14.376  0.00  0.00    +0.000 N 
ATOM     26  H   UNL     1       4.727   3.838  14.391  0.00  0.00    +0.000 HD
BRANCH  25  27
ATOM     27  C   UNL     1       6.512   3.939  13.226  0.00  0.00    +0.000 C 
BRANCH  27  28
ATOM     28  C   UNL     1       5.772   3.162  12.139  0.00  0.00    +0.000 C 
BRANCH  28  29
ATOM     29  O   UNL     1       6.563   2.054  11.708  0.00  0.00    +0.000 OA
ATOM     30  H   UNL     1       6.990   2.331  10.879  0.00  0.00    +0.000 HD
ENDBRANCH  28  29
ENDBRANCH  27  28
ENDBRANCH  25  27
ENDBRANCH  18  24
ENDBRANCH  17  21
ENDBRANCH   1  17
TORSDOF 7
ENDMDL
MODEL 4
REMARK VINA RESULT:      -7.7      4.168      6.565
REMARK  Name = 
REMARK  7 active torsions:
REMARK  status: ('A' for Active; 'I' for Inactive)
REMARK    1  A    between atoms: C_2  and  C_7
REMARK    2  A    between atoms: N_3  and  C_4
REMARK    3  A    between atoms: C_4  and  C_5
REMARK    4  A    between atoms: C_5  and  O_6
REMARK    5  A    between atoms: C_10  and  O_11
REMARK    6  A    between atoms: O_11  and  C_12
REMARK    7  A    between atoms: C_20  and  C_21
REMARK                            x       y       z     vdW  Elec       q    Type
REMARK                         _______ _______ _______ _____ _____    ______ ____
ROOT
ATOM      1  C   UNL     1       2.031   6.859  19.592  0.00  0.00    +0.000 A 
ATOM      2  C   UNL     1       1.460   7.124  20.840  0.00  0.00    +0.000 A 
ATOM      3  C   UNL     1       1.015   8.407  21.144  0.00  0.00    +0.000 A 
ATOM      4  C   UNL     1       1.152   9.428  20.209  0.00  0.00    +0.000 A 
ATOM      5  C   UNL     1       1.817   9.205  18.997  0.00  0.00    +0.000 A 
ATOM      6  C   UNL     1       2.253   7.905  18.692  0.00  0.00    +0.000 A 
ATOM      7  C   UNL     1       2.019  10.328  18.018  0.00  0.00    +0.000 C 
ATOM      8  C   UNL     1       1.535  11.661  18.585  0.00  0.00    +0.000 C 
ATOM      9  C   UNL     1       0.256  11.464  19.409  0.00  0.00    +0.000 C 
ATOM     10  O   UNL     1       0.572  10.626  20.541  0.00  0.00    +0.000 OA
ENDROOT
BRANCH   9  11
ATOM     11  C   UNL     1      -0.992  10.996  18.655  0.00  0.00    +0.000 A 
ATOM     12  C   UNL     1      -2.259  11.517  18.975  0.00  0.00    +0.000 A 
ATOM     13  C   UNL     1      -3.407  11.096  18.298  0.00  0.00    +0.000 A 
ATOM     14  C   UNL     1      -3.308  10.163  17.272  0.00  0.00    +0.000 A 
ATOM     15  C   UNL     1      -2.062   9.658  16.917  0.00  0.00    +0.000 A 
ATOM     16  C   UNL     1      -0.913  10.076  17.595  0.00  0.00    +0.000 A 
ENDBRANCH   9  11
BRANCH   1  17
ATOM     17  O   UNL     1       2.440   5.597  19.223  0.00  0.00    +0.000 OA
BRANCH  17  21
ATOM     18  C   UNL     1       5.702   4.964  17.502  0.00  0.00    +0.000 A 
ATOM     19  C   UNL     1       5.893   5.210  18.846  0.00  0.00    +0.000 A 
ATOM     20  N   UNL     1       4.750   5.433  19.586  0.00  0.00    +0.000 NA
ATOM     21  C   UNL     1       3.692   5.379  18.803  0.00  0.00    +0.000 A 
ATOM     22  S   UNL     1       4.019   4.990  17.162  0.00  0.00    +0.000 S 
BRANCH  18  24
ATOM     23  O   UNL     1       7.871   4.383  16.814  0.00  0.00    +0.000 OA
ATOM     24  C   UNL     1       6.729   4.720  16.511  0.00  0.00    +0.000 C 
ATOM     25  N   UNL     1       6.364   4.900  15.193  0.00  0.00    +0.000 N 
ATOM     26  H   UNL     1       5.420   5.195  14.978  0.00  0.00    +0.000 HD
BRANCH  25  27
ATOM     27  C   UNL     1       7.310   4.733  14.103  0.00  0.00    +0.000 C 
BRANCH  27  28
ATOM     28  C   UNL     1       6.638   4.228  12.827  0.00  0.00    +0.000 C 
BRANCH  28  29
ATOM     29  O   UNL     1       6.291   2.850  12.971  0.00  0.00    +0.000 OA
ATOM     30  H   UNL     1       6.479   2.432  12.114  0.00  0.00    +0.000 HD
ENDBRANCH  28  29
ENDBRANCH  27  28
ENDBRANCH  25  27
ENDBRANCH  18  24
ENDBRANCH  17  21
ENDBRANCH   1  17
TORSDOF 7
ENDMDL
MODEL 5
REMARK VINA RESULT:      -7.6      0.951      1.069
REMARK  Name = 
REMARK  7 active torsions:
REMARK  status: ('A' for Active; 'I' for Inactive)
REMARK    1  A    between atoms: C_2  and  C_7
REMARK    2  A    between atoms: N_3  and  C_4
REMARK    3  A    between atoms: C_4  and  C_5
REMARK    4  A    between atoms: C_5  and  O_6
REMARK    5  A    between atoms: C_10  and  O_11
REMARK    6  A    between atoms: O_11  and  C_12
REMARK    7  A    between atoms: C_20  and  C_21
REMARK                            x       y       z     vdW  Elec       q    Type
REMARK                         _______ _______ _______ _____ _____    ______ ____
ROOT
ATOM      1  C   UNL     1       6.829   5.316  17.100  0.00  0.00    +0.000 A 
ATOM      2  C   UNL     1       7.085   5.127  18.461  0.00  0.00    +0.000 A 
ATOM      3  C   UNL     1       6.133   5.493  19.407  0.00  0.00    +0.000 A 
ATOM      4  C   UNL     1       4.929   6.059  18.996  0.00  0.00    +0.000 A 
ATOM      5  C   UNL     1       4.701   6.353  17.647  0.00  0.00    +0.000 A 
ATOM      6  C   UNL     1       5.661   5.970  16.696  0.00  0.00    +0.000 A 
ATOM      7  C   UNL     1       3.426   7.024  17.216  0.00  0.00    +0.000 C 
ATOM      8  C   UNL     1       2.565   7.415  18.415  0.00  0.00    +0.000 C 
ATOM      9  C   UNL     1       2.638   6.338  19.506  0.00  0.00    +0.000 C 
ATOM     10  O   UNL     1       4.000   6.270  19.982  0.00  0.00    +0.000 OA
ENDROOT
BRANCH   9  11
ATOM     11  C   UNL     1       2.059   4.962  19.165  0.00  0.00    +0.000 A 
ATOM     12  C   UNL     1       1.977   4.531  17.829  0.00  0.00    +0.000 A 
ATOM     13  C   UNL     1       1.447   3.280  17.503  0.00  0.00    +0.000 A 
ATOM     14  C   UNL     1       1.010   2.424  18.509  0.00  0.00    +0.000 A 
ATOM     15  C   UNL     1       1.111   2.817  19.840  0.00  0.00    +0.000 A 
ATOM     16  C   UNL     1       1.639   4.070  20.166  0.00  0.00    +0.000 A 
ENDBRANCH   9  11
BRANCH   1  17
ATOM     17  O   UNL     1       7.716   4.924  16.122  0.00  0.00    +0.000 OA
BRANCH  17  21
ATOM     18  C   UNL     1       6.116   3.771  12.943  0.00  0.00    +0.000 A 
ATOM     19  C   UNL     1       7.076   4.730  12.692  0.00  0.00    +0.000 A 
ATOM     20  N   UNL     1       7.750   5.210  13.797  0.00  0.00    +0.000 NA
ATOM     21  C   UNL     1       7.289   4.634  14.887  0.00  0.00    +0.000 A 
ATOM     22  S   UNL     1       6.079   3.443  14.628  0.00  0.00    +0.000 S 
BRANCH  18  24
ATOM     23  O   UNL     1       5.543   2.043  11.459  0.00  0.00    +0.000 OA
ATOM     24  C   UNL     1       5.262   3.124  11.969  0.00  0.00    +0.000 C 
ATOM     25  N   UNL     1       4.107   3.796  11.624  0.00  0.00    +0.000 N 
ATOM     26  H   UNL     1       3.913   4.694  12.049  0.00  0.00    +0.000 HD
BRANCH  25  27
ATOM     27  C   UNL     1       3.186   3.281  10.625  0.00  0.00    +0.000 C 
BRANCH  27  28
ATOM     28  C   UNL     1       3.310   4.017   9.292  0.00  0.00    +0.000 C 
BRANCH  28  29
ATOM     29  O   UNL     1       2.087   4.691   8.992  0.00  0.00    +0.000 OA
ATOM     30  H   UNL     1       2.321   5.621   8.834  0.00  0.00    +0.000 HD
ENDBRANCH  28  29
ENDBRANCH  27  28
ENDBRANCH  25  27
ENDBRANCH  18  24
ENDBRANCH  17  21
ENDBRANCH   1  17
TORSDOF 7
ENDMDL
MODEL 6
REMARK VINA RESULT:      -7.3      4.711      7.255
REMARK  Name = 
REMARK  7 active torsions:
REMARK  status: ('A' for Active; 'I' for Inactive)
REMARK    1  A    between atoms: C_2  and  C_7
REMARK    2  A    between atoms: N_3  and  C_4
REMARK    3  A    between atoms: C_4  and  C_5
REMARK    4  A    between atoms: C_5  and  O_6
REMARK    5  A    between atoms: C_10  and  O_11
REMARK    6  A    between atoms: O_11  and  C_12
REMARK    7  A    between atoms: C_20  and  C_21
REMARK                            x       y       z     vdW  Elec       q    Type
REMARK                         _______ _______ _______ _____ _____    ______ ____
ROOT
ATOM      1  C   UNL     1       1.455   7.423  20.626  0.00  0.00    +0.000 A 
ATOM      2  C   UNL     1       0.845   7.999  21.744  0.00  0.00    +0.000 A 
ATOM      3  C   UNL     1       0.453   9.333  21.714  0.00  0.00    +0.000 A 
ATOM      4  C   UNL     1       0.682  10.097  20.573  0.00  0.00    +0.000 A 
ATOM      5  C   UNL     1       1.386   9.567  19.486  0.00  0.00    +0.000 A 
ATOM      6  C   UNL     1       1.768   8.216  19.518  0.00  0.00    +0.000 A 
ATOM      7  C   UNL     1       1.687  10.417  18.282  0.00  0.00    +0.000 C 
ATOM      8  C   UNL     1       1.247  11.864  18.494  0.00  0.00    +0.000 C 
ATOM      9  C   UNL     1      -0.075  11.919  19.270  0.00  0.00    +0.000 C 
ATOM     10  O   UNL     1       0.149  11.361  20.583  0.00  0.00    +0.000 OA
ENDROOT
BRANCH   9  11
ATOM     11  C   UNL     1      -1.311  11.335  18.581  0.00  0.00    +0.000 A 
ATOM     12  C   UNL     1      -2.586  11.882  18.813  0.00  0.00    +0.000 A 
ATOM     13  C   UNL     1      -3.724  11.357  18.195  0.00  0.00    +0.000 A 
ATOM     14  C   UNL     1      -3.606  10.287  17.313  0.00  0.00    +0.000 A 
ATOM     15  C   UNL     1      -2.352   9.750  17.044  0.00  0.00    +0.000 A 
ATOM     16  C   UNL     1      -1.213  10.273  17.665  0.00  0.00    +0.000 A 
ENDBRANCH   9  11
BRANCH   1  17
ATOM     17  O   UNL     1       1.815   6.094  20.586  0.00  0.00    +0.000 OA
BRANCH  17  21
ATOM     18  C   UNL     1       4.126   4.850  17.919  0.00  0.00    +0.000 A 
ATOM     19  C   UNL     1       2.817   4.519  17.632  0.00  0.00    +0.000 A 
ATOM     20  N   UNL     1       1.874   4.952  18.541  0.00  0.00    +0.000 NA
ATOM     21  C   UNL     1       2.464   5.592  19.528  0.00  0.00    +0.000 A 
ATOM     22  S   UNL     1       4.166   5.762  19.373  0.00  0.00    +0.000 S 
BRANCH  18  24
ATOM     23  O   UNL     1       6.440   4.677  17.560  0.00  0.00    +0.000 OA
ATOM     24  C   UNL     1       5.298   4.503  17.143  0.00  0.00    +0.000 C 
ATOM     25  N   UNL     1       5.069   3.973  15.890  0.00  0.00    +0.000 N 
ATOM     26  H   UNL     1       4.116   3.859  15.570  0.00  0.00    +0.000 HD
BRANCH  25  27
ATOM     27  C   UNL     1       6.156   3.625  14.991  0.00  0.00    +0.000 C 
BRANCH  27  28
ATOM     28  C   UNL     1       6.650   4.829  14.190  0.00  0.00    +0.000 C 
BRANCH  28  29
ATOM     29  O   UNL     1       7.794   5.401  14.824  0.00  0.00    +0.000 OA
ATOM     30  H   UNL     1       8.011   6.204  14.321  0.00  0.00    +0.000 HD
ENDBRANCH  28  29
ENDBRANCH  27  28
ENDBRANCH  25  27
ENDBRANCH  18  24
ENDBRANCH  17  21
ENDBRANCH   1  17
TORSDOF 7
ENDMDL
MODEL 7
REMARK VINA RESULT:      -7.3      7.629     10.689
REMARK  Name = 
REMARK  7 active torsions:
REMARK  status: ('A' for Active; 'I' for Inactive)
REMARK    1  A    between atoms: C_2  and  C_7
REMARK    2  A    between atoms: N_3  and  C_4
REMARK    3  A    between atoms: C_4  and  C_5
REMARK    4  A    between atoms: C_5  and  O_6
REMARK    5  A    between atoms: C_10  and  O_11
REMARK    6  A    between atoms: O_11  and  C_12
REMARK    7  A    between atoms: C_20  and  C_21
REMARK                            x       y       z     vdW  Elec       q    Type
REMARK                         _______ _______ _______ _____ _____    ______ ____
ROOT
ATOM      1  C   UNL     1       1.290  11.790  18.959  0.00  0.00    +0.000 A 
ATOM      2  C   UNL     1       0.945  12.246  20.234  0.00  0.00    +0.000 A 
ATOM      3  C   UNL     1       1.445  13.457  20.700  0.00  0.00    +0.000 A 
ATOM      4  C   UNL     1       2.300  14.209  19.898  0.00  0.00    +0.000 A 
ATOM      5  C   UNL     1       2.740  13.718  18.664  0.00  0.00    +0.000 A 
ATOM      6  C   UNL     1       2.221  12.500  18.194  0.00  0.00    +0.000 A 
ATOM      7  C   UNL     1       3.713  14.504  17.831  0.00  0.00    +0.000 C 
ATOM      8  C   UNL     1       4.197  15.754  18.564  0.00  0.00    +0.000 C 
ATOM      9  C   UNL     1       3.052  16.386  19.366  0.00  0.00    +0.000 C 
ATOM     10  O   UNL     1       2.640  15.446  20.382  0.00  0.00    +0.000 OA
ENDROOT
BRANCH   9  11
ATOM     11  C   UNL     1       1.874  16.952  18.570  0.00  0.00    +0.000 A 
ATOM     12  C   UNL     1       0.556  16.803  19.038  0.00  0.00    +0.000 A 
ATOM     13  C   UNL     1      -0.530  17.311  18.319  0.00  0.00    +0.000 A 
ATOM     14  C   UNL     1      -0.318  17.998  17.128  0.00  0.00    +0.000 A 
ATOM     15  C   UNL     1       0.980  18.184  16.662  0.00  0.00    +0.000 A 
ATOM     16  C   UNL     1       2.066  17.674  17.379  0.00  0.00    +0.000 A 
ENDBRANCH   9  11
BRANCH   1  17
ATOM     17  O   UNL     1       0.782  10.623  18.431  0.00  0.00    +0.000 OA
BRANCH  17  21
ATOM     18  C   UNL     1       2.436   7.353  19.184  0.00  0.00    +0.000 A 
ATOM     19  C   UNL     1       2.752   7.784  17.912  0.00  0.00    +0.000 A 
ATOM     20  N   UNL     1       2.214   8.998  17.537  0.00  0.00    +0.000 NA
ATOM     21  C   UNL     1       1.472   9.479  18.512  0.00  0.00    +0.000 A 
ATOM     22  S   UNL     1       1.445   8.531  19.944  0.00  0.00    +0.000 S 
BRANCH  18  24
ATOM     23  O   UNL     1       3.934   5.584  19.561  0.00  0.00    +0.000 OA
ATOM     24  C   UNL     1       2.854   6.115  19.808  0.00  0.00    +0.000 C 
ATOM     25  N   UNL     1       1.965   5.545  20.696  0.00  0.00    +0.000 N 
ATOM     26  H   UNL     1       1.077   5.999  20.864  0.00  0.00    +0.000 HD
BRANCH  25  27
ATOM     27  C   UNL     1       2.241   4.280  21.356  0.00  0.00    +0.000 C 
BRANCH  27  28
ATOM     28  C   UNL     1       1.338   3.156  20.850  0.00  0.00    +0.000 C 
BRANCH  28  29
ATOM     29  O   UNL     1       1.936   2.520  19.721  0.00  0.00    +0.000 OA
ATOM     30  H   UNL     1       2.286   3.234  19.161  0.00  0.00    +0.000 HD
ENDBRANCH  28  29
ENDBRANCH  27  28
ENDBRANCH  25  27
ENDBRANCH  18  24
ENDBRANCH  17  21
ENDBRANCH   1  17
TORSDOF 7
ENDMDL
MODEL 8
REMARK VINA RESULT:      -7.1      7.505     10.526
REMARK  Name = 
REMARK  7 active torsions:
REMARK  status: ('A' for Active; 'I' for Inactive)
REMARK    1  A    between atoms: C_2  and  C_7
REMARK    2  A    between atoms: N_3  and  C_4
REMARK    3  A    between atoms: C_4  and  C_5
REMARK    4  A    between atoms: C_5  and  O_6
REMARK    5  A    between atoms: C_10  and  O_11
REMARK    6  A    between atoms: O_11  and  C_12
REMARK    7  A    between atoms: C_20  and  C_21
REMARK                            x       y       z     vdW  Elec       q    Type
REMARK                         _______ _______ _______ _____ _____    ______ ____
ROOT
ATOM      1  C   UNL     1       1.210  11.777  19.061  0.00  0.00    +0.000 A 
ATOM      2  C   UNL     1       0.907  12.219  20.352  0.00  0.00    +0.000 A 
ATOM      3  C   UNL     1       1.409  13.433  20.808  0.00  0.00    +0.000 A 
ATOM      4  C   UNL     1       2.225  14.201  19.982  0.00  0.00    +0.000 A 
ATOM      5  C   UNL     1       2.625  13.724  18.728  0.00  0.00    +0.000 A 
ATOM      6  C   UNL     1       2.105  12.503  18.269  0.00  0.00    +0.000 A 
ATOM      7  C   UNL     1       3.558  14.528  17.866  0.00  0.00    +0.000 C 
ATOM      8  C   UNL     1       4.054  15.778  18.591  0.00  0.00    +0.000 C 
ATOM      9  C   UNL     1       2.932  16.391  19.439  0.00  0.00    +0.000 C 
ATOM     10  O   UNL     1       2.568  15.439  20.462  0.00  0.00    +0.000 OA
ENDROOT
BRANCH   9  11
ATOM     11  C   UNL     1       1.718  16.948  18.690  0.00  0.00    +0.000 A 
ATOM     12  C   UNL     1       1.885  17.676  17.498  0.00  0.00    +0.000 A 
ATOM     13  C   UNL     1       0.787  18.194  16.806  0.00  0.00    +0.000 A 
ATOM     14  C   UNL     1      -0.502  17.975  17.280  0.00  0.00    +0.000 A 
ATOM     15  C   UNL     1      -0.693  17.231  18.440  0.00  0.00    +0.000 A 
ATOM     16  C   UNL     1       0.405  16.715  19.134  0.00  0.00    +0.000 A 
ENDBRANCH   9  11
BRANCH   1  17
ATOM     17  O   UNL     1       0.698  10.608  18.543  0.00  0.00    +0.000 OA
BRANCH  17  21
ATOM     18  C   UNL     1       2.510   7.363  18.978  0.00  0.00    +0.000 A 
ATOM     19  C   UNL     1       2.766   7.910  17.736  0.00  0.00    +0.000 A 
ATOM     20  N   UNL     1       2.166   9.124  17.478  0.00  0.00    +0.000 NA
ATOM     21  C   UNL     1       1.436   9.492  18.510  0.00  0.00    +0.000 A 
ATOM     22  S   UNL     1       1.496   8.431  19.860  0.00  0.00    +0.000 S 
BRANCH  18  24
ATOM     23  O   UNL     1       2.473   5.520  20.433  0.00  0.00    +0.000 OA
ATOM     24  C   UNL     1       2.999   6.099  19.486  0.00  0.00    +0.000 C 
ATOM     25  N   UNL     1       4.109   5.574  18.857  0.00  0.00    +0.000 N 
ATOM     26  H   UNL     1       4.530   6.085  18.091  0.00  0.00    +0.000 HD
BRANCH  25  27
ATOM     27  C   UNL     1       4.729   4.336  19.297  0.00  0.00    +0.000 C 
BRANCH  27  28
ATOM     28  C   UNL     1       4.076   3.107  18.664  0.00  0.00    +0.000 C 
BRANCH  28  29
ATOM     29  O   UNL     1       3.062   2.595  19.529  0.00  0.00    +0.000 OA
ATOM     30  H   UNL     1       2.907   3.280  20.202  0.00  0.00    +0.000 HD
ENDBRANCH  28  29
ENDBRANCH  27  28
ENDBRANCH  25  27
ENDBRANCH  18  24
ENDBRANCH  17  21
ENDBRANCH   1  17
TORSDOF 7
ENDMDL
MODEL 9
REMARK VINA RESULT:      -7.1      7.575     10.534
REMARK  Name = 
REMARK  7 active torsions:
REMARK  status: ('A' for Active; 'I' for Inactive)
REMARK    1  A    between atoms: C_2  and  C_7
REMARK    2  A    between atoms: N_3  and  C_4
REMARK    3  A    between atoms: C_4  and  C_5
REMARK    4  A    between atoms: C_5  and  O_6
REMARK    5  A    between atoms: C_10  and  O_11
REMARK    6  A    between atoms: O_11  and  C_12
REMARK    7  A    between atoms: C_20  and  C_21
REMARK                            x       y       z     vdW  Elec       q    Type
REMARK                         _______ _______ _______ _____ _____    ______ ____
ROOT
ATOM      1  C   UNL     1       1.312  11.869  19.033  0.00  0.00    +0.000 A 
ATOM      2  C   UNL     1       0.982  12.329  20.311  0.00  0.00    +0.000 A 
ATOM      3  C   UNL     1       1.467  13.554  20.757  0.00  0.00    +0.000 A 
ATOM      4  C   UNL     1       2.293  14.314  19.934  0.00  0.00    +0.000 A 
ATOM      5  C   UNL     1       2.719  13.821  18.696  0.00  0.00    +0.000 A 
ATOM      6  C   UNL     1       2.216  12.589  18.246  0.00  0.00    +0.000 A 
ATOM      7  C   UNL     1       3.662  14.618  17.838  0.00  0.00    +0.000 C 
ATOM      8  C   UNL     1       4.136  15.883  18.552  0.00  0.00    +0.000 C 
ATOM      9  C   UNL     1       2.994  16.500  19.370  0.00  0.00    +0.000 C 
ATOM     10  O   UNL     1       2.619  15.562  20.401  0.00  0.00    +0.000 OA
ENDROOT
BRANCH   9  11
ATOM     11  C   UNL     1       1.791  17.037  18.590  0.00  0.00    +0.000 A 
ATOM     12  C   UNL     1       1.973  17.717  17.372  0.00  0.00    +0.000 A 
ATOM     13  C   UNL     1       0.884  18.217  16.652  0.00  0.00    +0.000 A 
ATOM     14  C   UNL     1      -0.411  18.025  17.123  0.00  0.00    +0.000 A 
ATOM     15  C   UNL     1      -0.616  17.327  18.309  0.00  0.00    +0.000 A 
ATOM     16  C   UNL     1       0.473  16.830  19.032  0.00  0.00    +0.000 A 
ENDBRANCH   9  11
BRANCH   1  17
ATOM     17  O   UNL     1       0.817  10.688  18.525  0.00  0.00    +0.000 OA
BRANCH  17  21
ATOM     18  C   UNL     1       2.424   7.375  19.185  0.00  0.00    +0.000 A 
ATOM     19  C   UNL     1       1.741   7.822  20.298  0.00  0.00    +0.000 A 
ATOM     20  N   UNL     1       1.087   9.029  20.157  0.00  0.00    +0.000 NA
ATOM     21  C   UNL     1       1.289   9.510  18.948  0.00  0.00    +0.000 A 
ATOM     22  S   UNL     1       2.213   8.502  17.908  0.00  0.00    +0.000 S 
BRANCH  18  24
ATOM     23  O   UNL     1       3.302   5.355  20.001  0.00  0.00    +0.000 OA
ATOM     24  C   UNL     1       3.201   6.158  19.077  0.00  0.00    +0.000 C 
ATOM     25  N   UNL     1       3.844   5.945  17.875  0.00  0.00    +0.000 N 
ATOM     26  H   UNL     1       3.754   6.635  17.139  0.00  0.00    +0.000 HD
BRANCH  25  27
ATOM     27  C   UNL     1       4.692   4.788  17.650  0.00  0.00    +0.000 C 
BRANCH  27  28
ATOM     28  C   UNL     1       6.158   5.076  17.971  0.00  0.00    +0.000 C 
BRANCH  28  29
ATOM     29  O   UNL     1       7.001   4.171  17.257  0.00  0.00    +0.000 OA
ATOM     30  H   UNL     1       7.604   4.721  16.729  0.00  0.00    +0.000 HD
ENDBRANCH  28  29
ENDBRANCH  27  28
ENDBRANCH  25  27
ENDBRANCH  18  24
ENDBRANCH  17  21
ENDBRANCH   1  17
TORSDOF 7
ENDMDL
