MODEL 1
REMARK VINA RESULT:      -7.5      0.000      0.000
REMARK  Name = 
REMARK  9 active torsions:
REMARK  status: ('A' for Active; 'I' for Inactive)
REMARK    1  A    between atoms: C_1  and  O_2
REMARK    2  A    between atoms: O_2  and  C_3
REMARK    3  A    between atoms: C_6  and  C_7
REMARK    4  A    between atoms: C_9  and  S_10
REMARK    5  A    between atoms: S_10  and  N_13
REMARK    6  A    between atoms: N_13  and  C_14
REMARK    7  A    between atoms: N_13  and  C_15
REMARK    8  A    between atoms: C_15  and  C_16
REMARK    9  A    between atoms: N_18  and  C_19
REMARK                            x       y       z     vdW  Elec       q    Type
REMARK                         _______ _______ _______ _____ _____    ______ ____
ROOT
ATOM      1  S   UNL     1       3.970   6.126  17.679  0.00  0.00    +0.000 S 
ATOM      2  O   UNL     1       4.114   5.292  16.500  0.00  0.00    +0.000 OA
ATOM      3  O   UNL     1       3.565   7.510  17.533  0.00  0.00    +0.000 OA
ENDROOT
BRANCH   1  10
ATOM      4  C   UNL     1       2.201   5.996  19.840  0.00  0.00    +0.000 A 
ATOM      5  C   UNL     1       1.242   5.309  20.603  0.00  0.00    +0.000 A 
ATOM      6  C   UNL     1       0.891   3.988  20.312  0.00  0.00    +0.000 A 
ATOM      7  C   UNL     1       1.475   3.328  19.234  0.00  0.00    +0.000 A 
ATOM      8  C   UNL     1       1.065   1.931  18.877  0.00  0.00    +0.000 C 
ATOM      9  C   UNL     1       2.434   4.003  18.466  0.00  0.00    +0.000 A 
ATOM     10  C   UNL     1       2.802   5.325  18.768  0.00  0.00    +0.000 A 
BRANCH   4  12
ATOM     11  C   UNL     1       1.553   8.075  20.780  0.00  0.00    +0.000 C 
ATOM     12  O   UNL     1       2.529   7.305  20.080  0.00  0.00    +0.000 OA
ENDBRANCH   4  12
ENDBRANCH   1  10
BRANCH   1  13
ATOM     13  N   UNL     1       5.499   6.082  18.474  0.00  0.00    +0.000 NA
ATOM     14  C   UNL     1       5.832   4.761  19.073  0.00  0.00    +0.000 C 
BRANCH  13  15
ATOM     15  C   UNL     1       6.589   6.531  17.535  0.00  0.00    +0.000 C 
BRANCH  15  16
ATOM     16  C   UNL     1       7.051   5.447  16.568  0.00  0.00    +0.000 C 
ATOM     17  O   UNL     1       7.747   4.504  16.924  0.00  0.00    +0.000 OA
ATOM     18  N   UNL     1       6.605   5.612  15.270  0.00  0.00    +0.000 N 
ATOM     19  H   UNL     1       6.239   6.529  15.026  0.00  0.00    +0.000 HD
BRANCH  18  20
ATOM     20  C   UNL     1       6.969   4.681  14.225  0.00  0.00    +0.000 C 
ATOM     21  C   UNL     1       5.778   3.922  13.653  0.00  0.00    +0.000 C 
ATOM     22  C   UNL     1       6.328   3.333  12.360  0.00  0.00    +0.000 C 
ATOM     23  C   UNL     1       7.390   4.320  11.873  0.00  0.00    +0.000 C 
ATOM     24  C   UNL     1       7.560   5.352  12.988  0.00  0.00    +0.000 C 
ENDBRANCH  18  20
ENDBRANCH  15  16
ENDBRANCH  13  15
ENDBRANCH   1  13
TORSDOF 6
ENDMDL
MODEL 2
REMARK VINA RESULT:      -7.5      3.681      5.582
REMARK  Name = 
REMARK  9 active torsions:
REMARK  status: ('A' for Active; 'I' for Inactive)
REMARK    1  A    between atoms: C_1  and  O_2
REMARK    2  A    between atoms: O_2  and  C_3
REMARK    3  A    between atoms: C_6  and  C_7
REMARK    4  A    between atoms: C_9  and  S_10
REMARK    5  A    between atoms: S_10  and  N_13
REMARK    6  A    between atoms: N_13  and  C_14
REMARK    7  A    between atoms: N_13  and  C_15
REMARK    8  A    between atoms: C_15  and  C_16
REMARK    9  A    between atoms: N_18  and  C_19
REMARK                            x       y       z     vdW  Elec       q    Type
REMARK                         _______ _______ _______ _____ _____    ______ ____
ROOT
ATOM      1  S   UNL     1       6.056   5.901  16.877  0.00  0.00    +0.000 S 
ATOM      2  O   UNL     1       6.829   4.713  16.565  0.00  0.00    +0.000 OA
ATOM      3  O   UNL     1       5.869   6.922  15.865  0.00  0.00    +0.000 OA
ENDROOT
BRANCH   1  10
ATOM      4  C   UNL     1       3.441   6.274  17.792  0.00  0.00    +0.000 A 
ATOM      5  C   UNL     1       2.177   5.768  18.140  0.00  0.00    +0.000 A 
ATOM      6  C   UNL     1       1.913   4.395  18.122  0.00  0.00    +0.000 A 
ATOM      7  C   UNL     1       2.901   3.496  17.733  0.00  0.00    +0.000 A 
ATOM      8  C   UNL     1       2.612   2.027  17.655  0.00  0.00    +0.000 C 
ATOM      9  C   UNL     1       4.166   3.988  17.385  0.00  0.00    +0.000 A 
ATOM     10  C   UNL     1       4.440   5.366  17.420  0.00  0.00    +0.000 A 
BRANCH   4  12
ATOM     11  C   UNL     1       2.574   8.482  17.765  0.00  0.00    +0.000 C 
ATOM     12  O   UNL     1       3.709   7.617  17.760  0.00  0.00    +0.000 OA
ENDBRANCH   4  12
ENDBRANCH   1  10
BRANCH   1  13
ATOM     13  N   UNL     1       6.826   6.617  18.243  0.00  0.00    +0.000 NA
ATOM     14  C   UNL     1       7.056   5.672  19.371  0.00  0.00    +0.000 C 
BRANCH  13  15
ATOM     15  C   UNL     1       8.116   7.276  17.829  0.00  0.00    +0.000 C 
BRANCH  15  16
ATOM     16  C   UNL     1       8.151   8.777  18.090  0.00  0.00    +0.000 C 
ATOM     17  O   UNL     1       7.411   9.561  17.509  0.00  0.00    +0.000 OA
ATOM     18  N   UNL     1       9.070   9.169  19.046  0.00  0.00    +0.000 N 
ATOM     19  H   UNL     1       9.787   8.491  19.294  0.00  0.00    +0.000 HD
BRANCH  18  20
ATOM     20  C   UNL     1       9.243  10.561  19.398  0.00  0.00    +0.000 C 
ATOM     21  C   UNL     1       9.350  10.792  20.900  0.00  0.00    +0.000 C 
ATOM     22  C   UNL     1       9.905  12.208  20.997  0.00  0.00    +0.000 C 
ATOM     23  C   UNL     1      10.770  12.400  19.751  0.00  0.00    +0.000 C 
ATOM     24  C   UNL     1      10.543  11.166  18.875  0.00  0.00    +0.000 C 
ENDBRANCH  18  20
ENDBRANCH  15  16
ENDBRANCH  13  15
ENDBRANCH   1  13
TORSDOF 6
ENDMDL
MODEL 3
REMARK VINA RESULT:      -7.4      1.260      1.604
REMARK  Name = 
REMARK  9 active torsions:
REMARK  status: ('A' for Active; 'I' for Inactive)
REMARK    1  A    between atoms: C_1  and  O_2
REMARK    2  A    between atoms: O_2  and  C_3
REMARK    3  A    between atoms: C_6  and  C_7
REMARK    4  A    between atoms: C_9  and  S_10
REMARK    5  A    between atoms: S_10  and  N_13
REMARK    6  A    between atoms: N_13  and  C_14
REMARK    7  A    between atoms: N_13  and  C_15
REMARK    8  A    between atoms: C_15  and  C_16
REMARK    9  A    between atoms: N_18  and  C_19
REMARK                            x       y       z     vdW  Elec       q    Type
REMARK                         _______ _______ _______ _____ _____    ______ ____
ROOT
ATOM      1  S   UNL     1       4.895   4.689  18.180  0.00  0.00    +0.000 S 
ATOM      2  O   UNL     1       5.581   3.487  18.615  0.00  0.00    +0.000 OA
ATOM      3  O   UNL     1       4.369   4.767  16.831  0.00  0.00    +0.000 OA
ENDROOT
BRANCH   1  10
ATOM      4  C   UNL     1       2.933   6.234  19.438  0.00  0.00    +0.000 A 
ATOM      5  C   UNL     1       1.832   6.355  20.302  0.00  0.00    +0.000 A 
ATOM      6  C   UNL     1       1.349   5.260  21.023  0.00  0.00    +0.000 A 
ATOM      7  C   UNL     1       1.943   4.009  20.880  0.00  0.00    +0.000 A 
ATOM      8  C   UNL     1       1.398   2.816  21.605  0.00  0.00    +0.000 C 
ATOM      9  C   UNL     1       3.043   3.876  20.024  0.00  0.00    +0.000 A 
ATOM     10  C   UNL     1       3.542   4.980  19.311  0.00  0.00    +0.000 A 
BRANCH   4  12
ATOM     11  C   UNL     1       2.437   7.922  17.847  0.00  0.00    +0.000 C 
ATOM     12  O   UNL     1       3.396   7.284  18.688  0.00  0.00    +0.000 OA
ENDBRANCH   4  12
ENDBRANCH   1  10
BRANCH   1  13
ATOM     13  N   UNL     1       6.016   5.979  18.408  0.00  0.00    +0.000 NA
ATOM     14  C   UNL     1       7.168   5.630  19.283  0.00  0.00    +0.000 C 
BRANCH  13  15
ATOM     15  C   UNL     1       6.497   6.493  17.075  0.00  0.00    +0.000 C 
BRANCH  15  16
ATOM     16  C   UNL     1       6.986   5.398  16.134  0.00  0.00    +0.000 C 
ATOM     17  O   UNL     1       7.905   4.644  16.428  0.00  0.00    +0.000 OA
ATOM     18  N   UNL     1       6.295   5.322  14.939  0.00  0.00    +0.000 N 
ATOM     19  H   UNL     1       5.719   6.123  14.693  0.00  0.00    +0.000 HD
BRANCH  18  20
ATOM     20  C   UNL     1       6.646   4.349  13.927  0.00  0.00    +0.000 C 
ATOM     21  C   UNL     1       5.437   3.784  13.192  0.00  0.00    +0.000 C 
ATOM     22  C   UNL     1       6.053   3.121  11.966  0.00  0.00    +0.000 C 
ATOM     23  C   UNL     1       7.305   3.936  11.640  0.00  0.00    +0.000 C 
ATOM     24  C   UNL     1       7.485   4.927  12.791  0.00  0.00    +0.000 C 
ENDBRANCH  18  20
ENDBRANCH  15  16
ENDBRANCH  13  15
ENDBRANCH   1  13
TORSDOF 6
ENDMDL
MODEL 4
REMARK VINA RESULT:      -7.4      2.297      7.476
REMARK  Name = 
REMARK  9 active torsions:
REMARK  status: ('A' for Active; 'I' for Inactive)
REMARK    1  A    between atoms: C_1  and  O_2
REMARK    2  A    between atoms: O_2  and  C_3
REMARK    3  A    between atoms: C_6  and  C_7
REMARK    4  A    between atoms: C_9  and  S_10
REMARK    5  A    between atoms: S_10  and  N_13
REMARK    6  A    between atoms: N_13  and  C_14
REMARK    7  A    between atoms: N_13  and  C_15
REMARK    8  A    between atoms: C_15  and  C_16
REMARK    9  A    between atoms: N_18  and  C_19
REMARK                            x       y       z     vdW  Elec       q    Type
REMARK                         _______ _______ _______ _____ _____    ______ ____
ROOT
ATOM      1  S   UNL     1       4.180   3.364  18.423  0.00  0.00    +0.000 S 
ATOM      2  O   UNL     1       3.623   2.167  17.820  0.00  0.00    +0.000 OA
ATOM      3  O   UNL     1       4.838   3.279  19.712  0.00  0.00    +0.000 OA
ENDROOT
BRANCH   1  10
ATOM      4  C   UNL     1       6.425   4.851  17.672  0.00  0.00    +0.000 A 
ATOM      5  C   UNL     1       7.327   5.304  16.695  0.00  0.00    +0.000 A 
ATOM      6  C   UNL     1       7.156   4.989  15.344  0.00  0.00    +0.000 A 
ATOM      7  C   UNL     1       6.089   4.192  14.940  0.00  0.00    +0.000 A 
ATOM      8  C   UNL     1       5.928   3.800  13.502  0.00  0.00    +0.000 C 
ATOM      9  C   UNL     1       5.182   3.735  15.904  0.00  0.00    +0.000 A 
ATOM     10  C   UNL     1       5.341   4.066  17.261  0.00  0.00    +0.000 A 
BRANCH   4  12
ATOM     11  C   UNL     1       7.806   5.780  19.362  0.00  0.00    +0.000 C 
ATOM     12  O   UNL     1       6.597   5.111  19.006  0.00  0.00    +0.000 OA
ENDBRANCH   4  12
ENDBRANCH   1  10
BRANCH   1  13
ATOM     13  N   UNL     1       2.870   4.479  18.549  0.00  0.00    +0.000 NA
ATOM     14  C   UNL     1       1.534   3.872  18.297  0.00  0.00    +0.000 C 
BRANCH  13  15
ATOM     15  C   UNL     1       2.899   5.167  19.889  0.00  0.00    +0.000 C 
BRANCH  15  16
ATOM     16  C   UNL     1       2.335   6.583  19.864  0.00  0.00    +0.000 C 
ATOM     17  O   UNL     1       2.469   7.325  18.900  0.00  0.00    +0.000 OA
ATOM     18  N   UNL     1       1.650   6.945  21.010  0.00  0.00    +0.000 N 
ATOM     19  H   UNL     1       1.793   6.361  21.830  0.00  0.00    +0.000 HD
BRANCH  18  20
ATOM     20  C   UNL     1       1.069   8.262  21.155  0.00  0.00    +0.000 C 
ATOM     21  C   UNL     1      -0.419   8.229  21.479  0.00  0.00    +0.000 C 
ATOM     22  C   UNL     1      -0.702   9.647  21.961  0.00  0.00    +0.000 C 
ATOM     23  C   UNL     1       0.594  10.130  22.613  0.00  0.00    +0.000 C 
ATOM     24  C   UNL     1       1.646   9.057  22.324  0.00  0.00    +0.000 C 
ENDBRANCH  18  20
ENDBRANCH  15  16
ENDBRANCH  13  15
ENDBRANCH   1  13
TORSDOF 6
ENDMDL
MODEL 5
REMARK VINA RESULT:      -7.4      1.217      2.458
REMARK  Name = 
REMARK  9 active torsions:
REMARK  status: ('A' for Active; 'I' for Inactive)
REMARK    1  A    between atoms: C_1  and  O_2
REMARK    2  A    between atoms: O_2  and  C_3
REMARK    3  A    between atoms: C_6  and  C_7
REMARK    4  A    between atoms: C_9  and  S_10
REMARK    5  A    between atoms: S_10  and  N_13
REMARK    6  A    between atoms: N_13  and  C_14
REMARK    7  A    between atoms: N_13  and  C_15
REMARK    8  A    between atoms: C_15  and  C_16
REMARK    9  A    between atoms: N_18  and  C_19
REMARK                            x       y       z     vdW  Elec       q    Type
REMARK                         _______ _______ _______ _____ _____    ______ ____
ROOT
ATOM      1  S   UNL     1       4.175   6.022  17.576  0.00  0.00    +0.000 S 
ATOM      2  O   UNL     1       4.085   4.704  16.976  0.00  0.00    +0.000 OA
ATOM      3  O   UNL     1       4.018   7.201  16.746  0.00  0.00    +0.000 OA
ENDROOT
BRANCH   1  10
ATOM      4  C   UNL     1       2.505   4.965  19.553  0.00  0.00    +0.000 A 
ATOM      5  C   UNL     1       1.599   5.131  20.614  0.00  0.00    +0.000 A 
ATOM      6  C   UNL     1       1.153   6.399  20.997  0.00  0.00    +0.000 A 
ATOM      7  C   UNL     1       1.620   7.535  20.342  0.00  0.00    +0.000 A 
ATOM      8  C   UNL     1       1.193   8.903  20.782  0.00  0.00    +0.000 C 
ATOM      9  C   UNL     1       2.523   7.381  19.282  0.00  0.00    +0.000 A 
ATOM     10  C   UNL     1       2.959   6.107  18.882  0.00  0.00    +0.000 A 
BRANCH   4  12
ATOM     11  C   UNL     1       3.267   2.832  20.256  0.00  0.00    +0.000 C 
ATOM     12  O   UNL     1       2.990   3.736  19.188  0.00  0.00    +0.000 OA
ENDBRANCH   4  12
ENDBRANCH   1  10
BRANCH   1  13
ATOM     13  N   UNL     1       5.722   6.088  18.335  0.00  0.00    +0.000 NA
ATOM     14  C   UNL     1       6.106   4.830  19.032  0.00  0.00    +0.000 C 
BRANCH  13  15
ATOM     15  C   UNL     1       6.777   6.486  17.335  0.00  0.00    +0.000 C 
BRANCH  15  16
ATOM     16  C   UNL     1       7.148   5.375  16.358  0.00  0.00    +0.000 C 
ATOM     17  O   UNL     1       7.976   4.514  16.629  0.00  0.00    +0.000 OA
ATOM     18  N   UNL     1       6.461   5.417  15.159  0.00  0.00    +0.000 N 
ATOM     19  H   UNL     1       5.980   6.285  14.939  0.00  0.00    +0.000 HD
BRANCH  18  20
ATOM     20  C   UNL     1       6.709   4.446  14.116  0.00  0.00    +0.000 C 
ATOM     21  C   UNL     1       5.433   3.890  13.497  0.00  0.00    +0.000 C 
ATOM     22  C   UNL     1       5.927   3.228  12.216  0.00  0.00    +0.000 C 
ATOM     23  C   UNL     1       7.147   4.037  11.775  0.00  0.00    +0.000 C 
ATOM     24  C   UNL     1       7.441   5.023  12.907  0.00  0.00    +0.000 C 
ENDBRANCH  18  20
ENDBRANCH  15  16
ENDBRANCH  13  15
ENDBRANCH   1  13
TORSDOF 6
ENDMDL
MODEL 6
REMARK VINA RESULT:      -7.3      2.241      7.320
REMARK  Name = 
REMARK  9 active torsions:
REMARK  status: ('A' for Active; 'I' for Inactive)
REMARK    1  A    between atoms: C_1  and  O_2
REMARK    2  A    between atoms: O_2  and  C_3
REMARK    3  A    between atoms: C_6  and  C_7
REMARK    4  A    between atoms: C_9  and  S_10
REMARK    5  A    between atoms: S_10  and  N_13
REMARK    6  A    between atoms: N_13  and  C_14
REMARK    7  A    between atoms: N_13  and  C_15
REMARK    8  A    between atoms: C_15  and  C_16
REMARK    9  A    between atoms: N_18  and  C_19
REMARK                            x       y       z     vdW  Elec       q    Type
REMARK                         _______ _______ _______ _____ _____    ______ ____
ROOT
ATOM      1  S   UNL     1       4.220   3.327  18.317  0.00  0.00    +0.000 S 
ATOM      2  O   UNL     1       3.545   2.235  17.641  0.00  0.00    +0.000 OA
ATOM      3  O   UNL     1       4.926   3.076  19.559  0.00  0.00    +0.000 OA
ENDROOT
BRANCH   1  10
ATOM      4  C   UNL     1       6.448   4.847  17.581  0.00  0.00    +0.000 A 
ATOM      5  C   UNL     1       7.352   5.311  16.612  0.00  0.00    +0.000 A 
ATOM      6  C   UNL     1       7.200   4.988  15.260  0.00  0.00    +0.000 A 
ATOM      7  C   UNL     1       6.149   4.173  14.849  0.00  0.00    +0.000 A 
ATOM      8  C   UNL     1       6.008   3.773  13.411  0.00  0.00    +0.000 C 
ATOM      9  C   UNL     1       5.241   3.705  15.806  0.00  0.00    +0.000 A 
ATOM     10  C   UNL     1       5.381   4.043  17.163  0.00  0.00    +0.000 A 
BRANCH   4  12
ATOM     11  C   UNL     1       7.830   5.739  19.290  0.00  0.00    +0.000 C 
ATOM     12  O   UNL     1       6.603   5.114  18.916  0.00  0.00    +0.000 OA
ENDBRANCH   4  12
ENDBRANCH   1  10
BRANCH   1  13
ATOM     13  N   UNL     1       3.009   4.520  18.606  0.00  0.00    +0.000 NA
ATOM     14  C   UNL     1       1.623   4.054  18.327  0.00  0.00    +0.000 C 
BRANCH  13  15
ATOM     15  C   UNL     1       3.121   5.047  20.013  0.00  0.00    +0.000 C 
BRANCH  15  16
ATOM     16  C   UNL     1       1.931   5.894  20.449  0.00  0.00    +0.000 C 
ATOM     17  O   UNL     1       0.887   5.397  20.854  0.00  0.00    +0.000 OA
ATOM     18  N   UNL     1       2.140   7.258  20.365  0.00  0.00    +0.000 N 
ATOM     19  H   UNL     1       2.932   7.564  19.806  0.00  0.00    +0.000 HD
BRANCH  18  20
ATOM     20  C   UNL     1       1.103   8.201  20.723  0.00  0.00    +0.000 C 
ATOM     21  C   UNL     1       1.356   8.894  22.056  0.00  0.00    +0.000 C 
ATOM     22  C   UNL     1       0.391  10.073  22.025  0.00  0.00    +0.000 C 
ATOM     23  C   UNL     1       0.252  10.456  20.551  0.00  0.00    +0.000 C 
ATOM     24  C   UNL     1       0.986   9.376  19.755  0.00  0.00    +0.000 C 
ENDBRANCH  18  20
ENDBRANCH  15  16
ENDBRANCH  13  15
ENDBRANCH   1  13
TORSDOF 6
ENDMDL
MODEL 7
REMARK VINA RESULT:      -7.1      1.909      3.217
REMARK  Name = 
REMARK  9 active torsions:
REMARK  status: ('A' for Active; 'I' for Inactive)
REMARK    1  A    between atoms: C_1  and  O_2
REMARK    2  A    between atoms: O_2  and  C_3
REMARK    3  A    between atoms: C_6  and  C_7
REMARK    4  A    between atoms: C_9  and  S_10
REMARK    5  A    between atoms: S_10  and  N_13
REMARK    6  A    between atoms: N_13  and  C_14
REMARK    7  A    between atoms: N_13  and  C_15
REMARK    8  A    between atoms: C_15  and  C_16
REMARK    9  A    between atoms: N_18  and  C_19
REMARK                            x       y       z     vdW  Elec       q    Type
REMARK                         _______ _______ _______ _____ _____    ______ ____
ROOT
ATOM      1  S   UNL     1       5.089   4.632  17.704  0.00  0.00    +0.000 S 
ATOM      2  O   UNL     1       5.948   4.167  18.777  0.00  0.00    +0.000 OA
ATOM      3  O   UNL     1       4.458   3.669  16.821  0.00  0.00    +0.000 OA
ENDROOT
BRANCH   1  10
ATOM      4  C   UNL     1       3.161   5.262  19.628  0.00  0.00    +0.000 A 
ATOM      5  C   UNL     1       2.206   6.139  20.169  0.00  0.00    +0.000 A 
ATOM      6  C   UNL     1       1.891   7.348  19.543  0.00  0.00    +0.000 A 
ATOM      7  C   UNL     1       2.541   7.720  18.369  0.00  0.00    +0.000 A 
ATOM      8  C   UNL     1       2.253   9.040  17.719  0.00  0.00    +0.000 C 
ATOM      9  C   UNL     1       3.494   6.853  17.819  0.00  0.00    +0.000 A 
ATOM     10  C   UNL     1       3.799   5.628  18.437  0.00  0.00    +0.000 A 
BRANCH   4  12
ATOM     11  C   UNL     1       2.448   3.335  20.815  0.00  0.00    +0.000 C 
ATOM     12  O   UNL     1       3.517   4.093  20.248  0.00  0.00    +0.000 OA
ENDBRANCH   4  12
ENDBRANCH   1  10
BRANCH   1  13
ATOM     13  N   UNL     1       6.056   5.696  16.754  0.00  0.00    +0.000 NA
ATOM     14  C   UNL     1       6.554   6.886  17.497  0.00  0.00    +0.000 C 
BRANCH  13  15
ATOM     15  C   UNL     1       7.202   4.942  16.129  0.00  0.00    +0.000 C 
BRANCH  15  16
ATOM     16  C   UNL     1       7.094   4.805  14.615  0.00  0.00    +0.000 C 
ATOM     17  O   UNL     1       7.832   5.410  13.848  0.00  0.00    +0.000 OA
ATOM     18  N   UNL     1       6.111   3.931  14.190  0.00  0.00    +0.000 N 
ATOM     19  H   UNL     1       5.409   3.664  14.876  0.00  0.00    +0.000 HD
BRANCH  18  20
ATOM     20  C   UNL     1       5.865   3.702  12.783  0.00  0.00    +0.000 C 
ATOM     21  C   UNL     1       6.385   2.356  12.294  0.00  0.00    +0.000 C 
ATOM     22  C   UNL     1       5.686   2.179  10.951  0.00  0.00    +0.000 C 
ATOM     23  C   UNL     1       4.345   2.902  11.083  0.00  0.00    +0.000 C 
ATOM     24  C   UNL     1       4.382   3.635  12.425  0.00  0.00    +0.000 C 
ENDBRANCH  18  20
ENDBRANCH  15  16
ENDBRANCH  13  15
ENDBRANCH   1  13
TORSDOF 6
ENDMDL
MODEL 8
REMARK VINA RESULT:      -7.0      1.702      2.827
REMARK  Name = 
REMARK  9 active torsions:
REMARK  status: ('A' for Active; 'I' for Inactive)
REMARK    1  A    between atoms: C_1  and  O_2
REMARK    2  A    between atoms: O_2  and  C_3
REMARK    3  A    between atoms: C_6  and  C_7
REMARK    4  A    between atoms: C_9  and  S_10
REMARK    5  A    between atoms: S_10  and  N_13
REMARK    6  A    between atoms: N_13  and  C_14
REMARK    7  A    between atoms: N_13  and  C_15
REMARK    8  A    between atoms: C_15  and  C_16
REMARK    9  A    between atoms: N_18  and  C_19
REMARK                            x       y       z     vdW  Elec       q    Type
REMARK                         _______ _______ _______ _____ _____    ______ ____
ROOT
ATOM      1  S   UNL     1       4.744   4.132  18.636  0.00  0.00    +0.000 S 
ATOM      2  O   UNL     1       5.442   3.277  19.579  0.00  0.00    +0.000 OA
ATOM      3  O   UNL     1       4.405   3.624  17.321  0.00  0.00    +0.000 OA
ENDROOT
BRANCH   1  10
ATOM      4  C   UNL     1       2.295   3.779  19.937  0.00  0.00    +0.000 A 
ATOM      5  C   UNL     1       1.168   4.299  20.596  0.00  0.00    +0.000 A 
ATOM      6  C   UNL     1       0.975   5.676  20.732  0.00  0.00    +0.000 A 
ATOM      7  C   UNL     1       1.919   6.569  20.232  0.00  0.00    +0.000 A 
ATOM      8  C   UNL     1       1.752   8.047  20.423  0.00  0.00    +0.000 C 
ATOM      9  C   UNL     1       3.046   6.063  19.572  0.00  0.00    +0.000 A 
ATOM     10  C   UNL     1       3.233   4.679  19.417  0.00  0.00    +0.000 A 
BRANCH   4  12
ATOM     11  C   UNL     1       1.883   1.773  18.741  0.00  0.00    +0.000 C 
ATOM     12  O   UNL     1       2.526   2.433  19.830  0.00  0.00    +0.000 OA
ENDBRANCH   4  12
ENDBRANCH   1  10
BRANCH   1  13
ATOM     13  N   UNL     1       5.737   5.529  18.446  0.00  0.00    +0.000 NA
ATOM     14  C   UNL     1       7.189   5.271  18.645  0.00  0.00    +0.000 C 
BRANCH  13  15
ATOM     15  C   UNL     1       5.489   6.165  17.102  0.00  0.00    +0.000 C 
BRANCH  15  16
ATOM     16  C   UNL     1       6.398   5.640  15.997  0.00  0.00    +0.000 C 
ATOM     17  O   UNL     1       7.553   6.023  15.861  0.00  0.00    +0.000 OA
ATOM     18  N   UNL     1       5.813   4.691  15.180  0.00  0.00    +0.000 N 
ATOM     19  H   UNL     1       4.800   4.614  15.222  0.00  0.00    +0.000 HD
BRANCH  18  20
ATOM     20  C   UNL     1       6.534   4.105  14.071  0.00  0.00    +0.000 C 
ATOM     21  C   UNL     1       5.630   3.372  13.087  0.00  0.00    +0.000 C 
ATOM     22  C   UNL     1       6.518   3.199  11.861  0.00  0.00    +0.000 C 
ATOM     23  C   UNL     1       7.463   4.401  11.860  0.00  0.00    +0.000 C 
ATOM     24  C   UNL     1       7.227   5.134  13.182  0.00  0.00    +0.000 C 
ENDBRANCH  18  20
ENDBRANCH  15  16
ENDBRANCH  13  15
ENDBRANCH   1  13
TORSDOF 6
ENDMDL
MODEL 9
REMARK VINA RESULT:      -6.9      2.417      6.598
REMARK  Name = 
REMARK  9 active torsions:
REMARK  status: ('A' for Active; 'I' for Inactive)
REMARK    1  A    between atoms: C_1  and  O_2
REMARK    2  A    between atoms: O_2  and  C_3
REMARK    3  A    between atoms: C_6  and  C_7
REMARK    4  A    between atoms: C_9  and  S_10
REMARK    5  A    between atoms: S_10  and  N_13
REMARK    6  A    between atoms: N_13  and  C_14
REMARK    7  A    between atoms: N_13  and  C_15
REMARK    8  A    between atoms: C_15  and  C_16
REMARK    9  A    between atoms: N_18  and  C_19
REMARK                            x       y       z     vdW  Elec       q    Type
REMARK                         _______ _______ _______ _____ _____    ______ ____
ROOT
ATOM      1  S   UNL     1       4.138   3.083  18.582  0.00  0.00    +0.000 S 
ATOM      2  O   UNL     1       3.486   2.009  17.856  0.00  0.00    +0.000 OA
ATOM      3  O   UNL     1       4.880   2.785  19.791  0.00  0.00    +0.000 OA
ENDROOT
BRANCH   1  10
ATOM      4  C   UNL     1       6.293   4.725  17.891  0.00  0.00    +0.000 A 
ATOM      5  C   UNL     1       7.158   5.278  16.932  0.00  0.00    +0.000 A 
ATOM      6  C   UNL     1       6.987   5.028  15.568  0.00  0.00    +0.000 A 
ATOM      7  C   UNL     1       5.958   4.199  15.130  0.00  0.00    +0.000 A 
ATOM      8  C   UNL     1       5.799   3.878  13.675  0.00  0.00    +0.000 C 
ATOM      9  C   UNL     1       5.088   3.643  16.077  0.00  0.00    +0.000 A 
ATOM     10  C   UNL     1       5.246   3.908  17.448  0.00  0.00    +0.000 A 
BRANCH   4  12
ATOM     11  C   UNL     1       7.600   5.703  19.612  0.00  0.00    +0.000 C 
ATOM     12  O   UNL     1       6.468   4.921  19.236  0.00  0.00    +0.000 OA
ENDBRANCH   4  12
ENDBRANCH   1  10
BRANCH   1  13
ATOM     13  N   UNL     1       2.893   4.213  18.966  0.00  0.00    +0.000 NA
ATOM     14  C   UNL     1       3.141   4.983  20.216  0.00  0.00    +0.000 C 
BRANCH  13  15
ATOM     15  C   UNL     1       2.657   5.143  17.805  0.00  0.00    +0.000 C 
BRANCH  15  16
ATOM     16  C   UNL     1       2.892   6.613  18.137  0.00  0.00    +0.000 C 
ATOM     17  O   UNL     1       3.994   7.137  18.040  0.00  0.00    +0.000 OA
ATOM     18  N   UNL     1       1.759   7.296  18.535  0.00  0.00    +0.000 N 
ATOM     19  H   UNL     1       0.957   6.732  18.806  0.00  0.00    +0.000 HD
BRANCH  18  20
ATOM     20  C   UNL     1       1.814   8.694  18.903  0.00  0.00    +0.000 C 
ATOM     21  C   UNL     1       1.050   9.599  17.944  0.00  0.00    +0.000 C 
ATOM     22  C   UNL     1       0.920  10.902  18.724  0.00  0.00    +0.000 C 
ATOM     23  C   UNL     1       0.862  10.499  20.198  0.00  0.00    +0.000 C 
ATOM     24  C   UNL     1       1.151   8.998  20.245  0.00  0.00    +0.000 C 
ENDBRANCH  18  20
ENDBRANCH  15  16
ENDBRANCH  13  15
ENDBRANCH   1  13
TORSDOF 6
ENDMDL
