MODEL 1
REMARK VINA RESULT:      -7.5      0.000      0.000
REMARK  Name = 
REMARK  7 active torsions:
REMARK  status: ('A' for Active; 'I' for Inactive)
REMARK    1  A    between atoms: C_1  and  C_2
REMARK    2  A    between atoms: N_4  and  C_5
REMARK    3  A    between atoms: C_5  and  C_6
REMARK    4  A    between atoms: N_13  and  C_14
REMARK    5  A    between atoms: C_14  and  C_15
REMARK    6  A    between atoms: N_19  and  C_20
REMARK    7  A    between atoms: C_30  and  C_31
REMARK                            x       y       z     vdW  Elec       q    Type
REMARK                         _______ _______ _______ _____ _____    ______ ____
ROOT
ATOM      1  C   UNL     1       1.385   8.716  20.142  0.00  0.00    +0.000 A 
ATOM      2  C   UNL     1       1.499   8.903  18.759  0.00  0.00    +0.000 A 
ATOM      3  C   UNL     1       1.409  10.187  18.213  0.00  0.00    +0.000 A 
ATOM      4  C   UNL     1       1.115  11.276  19.033  0.00  0.00    +0.000 A 
ATOM      5  C   UNL     1       0.935  11.096  20.406  0.00  0.00    +0.000 A 
ATOM      6  C   UNL     1       1.161   9.829  20.956  0.00  0.00    +0.000 A 
ATOM      7  C   UNL     1       0.384  12.173  21.300  0.00  0.00    +0.000 C 
ATOM      8  N   UNL     1      -0.920  12.710  20.875  0.00  0.00    +0.000 NA
ATOM      9  C   UNL     1      -0.740  13.641  19.743  0.00  0.00    +0.000 C 
ATOM     10  C   UNL     1      -0.278  13.029  18.409  0.00  0.00    +0.000 C 
ATOM     11  O   UNL     1       1.057  12.516  18.460  0.00  0.00    +0.000 OA
ENDROOT
BRANCH   1  12
ATOM     12  C   UNL     1       1.408   7.343  20.776  0.00  0.00    +0.000 C 
BRANCH  12  16
ATOM     13  C   UNL     1       3.793   5.570  17.462  0.00  0.00    +0.000 C 
ATOM     14  C   UNL     1       3.980   5.230  18.938  0.00  0.00    +0.000 C 
ATOM     15  C   UNL     1       3.425   6.324  19.869  0.00  0.00    +0.000 C 
ATOM     16  N   UNL     1       1.948   6.295  19.907  0.00  0.00    +0.000 NA
ATOM     17  C   UNL     1       1.557   4.968  20.428  0.00  0.00    +0.000 C 
ATOM     18  C   UNL     1       2.078   3.824  19.538  0.00  0.00    +0.000 C 
ATOM     19  C   UNL     1       1.251   3.644  18.270  0.00  0.00    +0.000 C 
ATOM     20  O   UNL     1       3.484   3.919  19.260  0.00  0.00    +0.000 OA
ENDBRANCH  12  16
ENDBRANCH   1  12
BRANCH   8  21
ATOM     21  C   UNL     1      -1.963  11.700  20.600  0.00  0.00    +0.000 C 
BRANCH  21  22
ATOM     22  C   UNL     1      -3.300  12.271  20.211  0.00  0.00    +0.000 A 
ATOM     23  C   UNL     1      -4.175  12.936  21.066  0.00  0.00    +0.000 A 
ATOM     24  C   UNL     1      -5.343  13.259  20.364  0.00  0.00    +0.000 A 
ATOM     25  C   UNL     1      -5.210  12.695  19.121  0.00  0.00    +0.000 A 
ATOM     26  N   UNL     1      -3.980  12.059  19.012  0.00  0.00    +0.000 N 
BRANCH  26  27
ATOM     27  C   UNL     1      -3.586  11.309  17.869  0.00  0.00    +0.000 A 
ATOM     28  C   UNL     1      -2.536  10.393  17.890  0.00  0.00    +0.000 A 
ATOM     29  C   UNL     1      -2.216   9.677  16.737  0.00  0.00    +0.000 A 
ATOM     30  C   UNL     1      -2.954   9.909  15.592  0.00  0.00    +0.000 A 
ATOM     31  N   UNL     1      -3.967  10.796  15.525  0.00  0.00    +0.000 NA
ATOM     32  C   UNL     1      -4.257  11.476  16.660  0.00  0.00    +0.000 A 
ENDBRANCH  26  27
ENDBRANCH  21  22
ENDBRANCH   8  21
TORSDOF 5
ENDMDL
MODEL 2
REMARK VINA RESULT:      -7.5      2.975      5.528
REMARK  Name = 
REMARK  7 active torsions:
REMARK  status: ('A' for Active; 'I' for Inactive)
REMARK    1  A    between atoms: C_1  and  C_2
REMARK    2  A    between atoms: N_4  and  C_5
REMARK    3  A    between atoms: C_5  and  C_6
REMARK    4  A    between atoms: N_13  and  C_14
REMARK    5  A    between atoms: C_14  and  C_15
REMARK    6  A    between atoms: N_19  and  C_20
REMARK    7  A    between atoms: C_30  and  C_31
REMARK                            x       y       z     vdW  Elec       q    Type
REMARK                         _______ _______ _______ _____ _____    ______ ____
ROOT
ATOM      1  C   UNL     1       2.253   8.092  18.553  0.00  0.00    +0.000 A 
ATOM      2  C   UNL     1       2.225   7.614  19.869  0.00  0.00    +0.000 A 
ATOM      3  C   UNL     1       1.316   8.143  20.790  0.00  0.00    +0.000 A 
ATOM      4  C   UNL     1       0.494   9.209  20.427  0.00  0.00    +0.000 A 
ATOM      5  C   UNL     1       0.555   9.739  19.136  0.00  0.00    +0.000 A 
ATOM      6  C   UNL     1       1.372   9.113  18.188  0.00  0.00    +0.000 A 
ATOM      7  C   UNL     1      -0.120  11.029  18.756  0.00  0.00    +0.000 C 
ATOM      8  N   UNL     1       0.255  12.182  19.592  0.00  0.00    +0.000 NA
ATOM      9  C   UNL     1      -0.445  12.114  20.891  0.00  0.00    +0.000 C 
ATOM     10  C   UNL     1      -0.034  10.976  21.842  0.00  0.00    +0.000 C 
ATOM     11  O   UNL     1      -0.395   9.680  21.353  0.00  0.00    +0.000 OA
ENDROOT
BRANCH   1  12
ATOM     12  C   UNL     1       3.261   7.602  17.537  0.00  0.00    +0.000 C 
BRANCH  12  16
ATOM     13  C   UNL     1       4.097   3.699  19.507  0.00  0.00    +0.000 C 
ATOM     14  C   UNL     1       4.306   3.979  18.021  0.00  0.00    +0.000 C 
ATOM     15  C   UNL     1       3.476   5.177  17.525  0.00  0.00    +0.000 C 
ATOM     16  N   UNL     1       4.053   6.456  17.988  0.00  0.00    +0.000 NA
ATOM     17  C   UNL     1       5.416   6.542  17.425  0.00  0.00    +0.000 C 
ATOM     18  C   UNL     1       6.305   5.371  17.886  0.00  0.00    +0.000 C 
ATOM     19  C   UNL     1       6.811   5.547  19.313  0.00  0.00    +0.000 C 
ATOM     20  O   UNL     1       5.698   4.085  17.680  0.00  0.00    +0.000 OA
ENDBRANCH  12  16
ENDBRANCH   1  12
BRANCH   8  21
ATOM     21  C   UNL     1       1.706  12.401  19.758  0.00  0.00    +0.000 C 
BRANCH  21  22
ATOM     22  C   UNL     1       2.222  13.674  19.142  0.00  0.00    +0.000 A 
ATOM     23  C   UNL     1       3.200  13.756  18.154  0.00  0.00    +0.000 A 
ATOM     24  C   UNL     1       3.463  15.105  17.884  0.00  0.00    +0.000 A 
ATOM     25  C   UNL     1       2.721  15.828  18.782  0.00  0.00    +0.000 A 
ATOM     26  N   UNL     1       1.974  14.973  19.584  0.00  0.00    +0.000 N 
BRANCH  26  27
ATOM     27  C   UNL     1       1.168  15.422  20.667  0.00  0.00    +0.000 A 
ATOM     28  C   UNL     1      -0.108  15.953  20.492  0.00  0.00    +0.000 A 
ATOM     29  C   UNL     1      -0.852  16.356  21.601  0.00  0.00    +0.000 A 
ATOM     30  C   UNL     1      -0.288  16.223  22.855  0.00  0.00    +0.000 A 
ATOM     31  N   UNL     1       0.949  15.729  23.067  0.00  0.00    +0.000 NA
ATOM     32  C   UNL     1       1.647  15.344  21.973  0.00  0.00    +0.000 A 
ENDBRANCH  26  27
ENDBRANCH  21  22
ENDBRANCH   8  21
TORSDOF 5
ENDMDL
MODEL 3
REMARK VINA RESULT:      -7.4      2.794      5.272
REMARK  Name = 
REMARK  7 active torsions:
REMARK  status: ('A' for Active; 'I' for Inactive)
REMARK    1  A    between atoms: C_1  and  C_2
REMARK    2  A    between atoms: N_4  and  C_5
REMARK    3  A    between atoms: C_5  and  C_6
REMARK    4  A    between atoms: N_13  and  C_14
REMARK    5  A    between atoms: C_14  and  C_15
REMARK    6  A    between atoms: N_19  and  C_20
REMARK    7  A    between atoms: C_30  and  C_31
REMARK                            x       y       z     vdW  Elec       q    Type
REMARK                         _______ _______ _______ _____ _____    ______ ____
ROOT
ATOM      1  C   UNL     1       1.835   8.583  18.728  0.00  0.00    +0.000 A 
ATOM      2  C   UNL     1       1.740   8.185  20.067  0.00  0.00    +0.000 A 
ATOM      3  C   UNL     1       0.854   8.833  20.933  0.00  0.00    +0.000 A 
ATOM      4  C   UNL     1       0.125   9.936  20.489  0.00  0.00    +0.000 A 
ATOM      5  C   UNL     1       0.257  10.385  19.173  0.00  0.00    +0.000 A 
ATOM      6  C   UNL     1       1.044   9.646  18.283  0.00  0.00    +0.000 A 
ATOM      7  C   UNL     1      -0.308  11.698  18.704  0.00  0.00    +0.000 C 
ATOM      8  N   UNL     1       0.136  12.866  19.485  0.00  0.00    +0.000 NA
ATOM      9  C   UNL     1      -0.597  12.926  20.765  0.00  0.00    +0.000 C 
ATOM     10  C   UNL     1      -0.297  11.816  21.789  0.00  0.00    +0.000 C 
ATOM     11  O   UNL     1      -0.746  10.526  21.363  0.00  0.00    +0.000 OA
ENDROOT
BRANCH   1  12
ATOM     12  C   UNL     1       2.825   7.961  17.768  0.00  0.00    +0.000 C 
BRANCH  12  16
ATOM     13  C   UNL     1       3.018   4.131  20.028  0.00  0.00    +0.000 C 
ATOM     14  C   UNL     1       3.045   4.238  18.506  0.00  0.00    +0.000 C 
ATOM     15  C   UNL     1       2.454   5.566  17.998  0.00  0.00    +0.000 C 
ATOM     16  N   UNL     1       3.385   6.690  18.231  0.00  0.00    +0.000 NA
ATOM     17  C   UNL     1       4.620   6.387  17.478  0.00  0.00    +0.000 C 
ATOM     18  C   UNL     1       5.268   5.069  17.941  0.00  0.00    +0.000 C 
ATOM     19  C   UNL     1       6.026   5.218  19.256  0.00  0.00    +0.000 C 
ATOM     20  O   UNL     1       4.349   3.965  17.966  0.00  0.00    +0.000 OA
ENDBRANCH  12  16
ENDBRANCH   1  12
BRANCH   8  21
ATOM     21  C   UNL     1       1.596  12.984  19.677  0.00  0.00    +0.000 C 
BRANCH  21  22
ATOM     22  C   UNL     1       2.248  14.076  18.873  0.00  0.00    +0.000 A 
ATOM     23  C   UNL     1       3.468  13.975  18.210  0.00  0.00    +0.000 A 
ATOM     24  C   UNL     1       3.777  15.212  17.631  0.00  0.00    +0.000 A 
ATOM     25  C   UNL     1       2.796  16.080  18.035  0.00  0.00    +0.000 A 
ATOM     26  N   UNL     1       1.862  15.415  18.822  0.00  0.00    +0.000 N 
BRANCH  26  27
ATOM     27  C   UNL     1       0.770  16.068  19.459  0.00  0.00    +0.000 A 
ATOM     28  C   UNL     1      -0.413  16.386  18.796  0.00  0.00    +0.000 A 
ATOM     29  C   UNL     1      -1.451  17.009  19.488  0.00  0.00    +0.000 A 
ATOM     30  C   UNL     1      -1.268  17.304  20.825  0.00  0.00    +0.000 A 
ATOM     31  N   UNL     1      -0.135  17.026  21.500  0.00  0.00    +0.000 NA
ATOM     32  C   UNL     1       0.856  16.420  20.804  0.00  0.00    +0.000 A 
ENDBRANCH  26  27
ENDBRANCH  21  22
ENDBRANCH   8  21
TORSDOF 5
ENDMDL
MODEL 4
REMARK VINA RESULT:      -7.4      2.813      5.566
REMARK  Name = 
REMARK  7 active torsions:
REMARK  status: ('A' for Active; 'I' for Inactive)
REMARK    1  A    between atoms: C_1  and  C_2
REMARK    2  A    between atoms: N_4  and  C_5
REMARK    3  A    between atoms: C_5  and  C_6
REMARK    4  A    between atoms: N_13  and  C_14
REMARK    5  A    between atoms: C_14  and  C_15
REMARK    6  A    between atoms: N_19  and  C_20
REMARK    7  A    between atoms: C_30  and  C_31
REMARK                            x       y       z     vdW  Elec       q    Type
REMARK                         _______ _______ _______ _____ _____    ______ ____
ROOT
ATOM      1  C   UNL     1       1.905   8.162  19.059  0.00  0.00    +0.000 A 
ATOM      2  C   UNL     1       1.749   7.874  20.421  0.00  0.00    +0.000 A 
ATOM      3  C   UNL     1       0.852   8.614  21.198  0.00  0.00    +0.000 A 
ATOM      4  C   UNL     1       0.177   9.699  20.642  0.00  0.00    +0.000 A 
ATOM      5  C   UNL     1       0.371  10.039  19.301  0.00  0.00    +0.000 A 
ATOM      6  C   UNL     1       1.166   9.209  18.504  0.00  0.00    +0.000 A 
ATOM      7  C   UNL     1      -0.133  11.327  18.710  0.00  0.00    +0.000 C 
ATOM      8  N   UNL     1       0.319  12.540  19.415  0.00  0.00    +0.000 NA
ATOM      9  C   UNL     1      -0.458  12.722  20.657  0.00  0.00    +0.000 C 
ATOM     10  C   UNL     1      -0.232  11.688  21.774  0.00  0.00    +0.000 C 
ATOM     11  O   UNL     1      -0.706  10.381  21.433  0.00  0.00    +0.000 OA
ENDROOT
BRANCH   1  12
ATOM     12  C   UNL     1       2.909   7.438  18.191  0.00  0.00    +0.000 C 
BRANCH  12  16
ATOM     13  C   UNL     1       1.458   3.439  19.505  0.00  0.00    +0.000 C 
ATOM     14  C   UNL     1       1.773   3.812  18.058  0.00  0.00    +0.000 C 
ATOM     15  C   UNL     1       1.742   5.333  17.821  0.00  0.00    +0.000 C 
ATOM     16  N   UNL     1       2.937   5.988  18.394  0.00  0.00    +0.000 NA
ATOM     17  C   UNL     1       4.112   5.412  17.709  0.00  0.00    +0.000 C 
ATOM     18  C   UNL     1       4.207   3.888  17.909  0.00  0.00    +0.000 C 
ATOM     19  C   UNL     1       4.740   3.509  19.286  0.00  0.00    +0.000 C 
ATOM     20  O   UNL     1       2.986   3.199  17.592  0.00  0.00    +0.000 OA
ENDBRANCH  12  16
ENDBRANCH   1  12
BRANCH   8  21
ATOM     21  C   UNL     1       1.774  12.629  19.655  0.00  0.00    +0.000 C 
BRANCH  21  22
ATOM     22  C   UNL     1       2.431  13.852  19.073  0.00  0.00    +0.000 A 
ATOM     23  C   UNL     1       3.390  13.853  18.065  0.00  0.00    +0.000 A 
ATOM     24  C   UNL     1       3.813  15.169  17.838  0.00  0.00    +0.000 A 
ATOM     25  C   UNL     1       3.186  15.940  18.782  0.00  0.00    +0.000 A 
ATOM     26  N   UNL     1       2.355  15.153  19.570  0.00  0.00    +0.000 N 
BRANCH  26  27
ATOM     27  C   UNL     1       1.634  15.654  20.689  0.00  0.00    +0.000 A 
ATOM     28  C   UNL     1       0.438  16.357  20.566  0.00  0.00    +0.000 A 
ATOM     29  C   UNL     1      -0.228  16.803  21.707  0.00  0.00    +0.000 A 
ATOM     30  C   UNL     1       0.333  16.539  22.941  0.00  0.00    +0.000 A 
ATOM     31  N   UNL     1       1.496  15.875  23.105  0.00  0.00    +0.000 NA
ATOM     32  C   UNL     1       2.119  15.452  21.980  0.00  0.00    +0.000 A 
ENDBRANCH  26  27
ENDBRANCH  21  22
ENDBRANCH   8  21
TORSDOF 5
ENDMDL
MODEL 5
REMARK VINA RESULT:      -7.3      3.194      9.828
REMARK  Name = 
REMARK  7 active torsions:
REMARK  status: ('A' for Active; 'I' for Inactive)
REMARK    1  A    between atoms: C_1  and  C_2
REMARK    2  A    between atoms: N_4  and  C_5
REMARK    3  A    between atoms: C_5  and  C_6
REMARK    4  A    between atoms: N_13  and  C_14
REMARK    5  A    between atoms: C_14  and  C_15
REMARK    6  A    between atoms: N_19  and  C_20
REMARK    7  A    between atoms: C_30  and  C_31
REMARK                            x       y       z     vdW  Elec       q    Type
REMARK                         _______ _______ _______ _____ _____    ______ ____
ROOT
ATOM      1  C   UNL     1       1.916   5.882  20.679  0.00  0.00    +0.000 A 
ATOM      2  C   UNL     1       0.703   5.289  20.309  0.00  0.00    +0.000 A 
ATOM      3  C   UNL     1       0.681   3.979  19.819  0.00  0.00    +0.000 A 
ATOM      4  C   UNL     1       1.876   3.291  19.611  0.00  0.00    +0.000 A 
ATOM      5  C   UNL     1       3.098   3.894  19.916  0.00  0.00    +0.000 A 
ATOM      6  C   UNL     1       3.096   5.150  20.530  0.00  0.00    +0.000 A 
ATOM      7  C   UNL     1       4.418   3.307  19.494  0.00  0.00    +0.000 C 
ATOM      8  N   UNL     1       4.539   3.053  18.048  0.00  0.00    +0.000 NA
ATOM      9  C   UNL     1       3.797   1.829  17.686  0.00  0.00    +0.000 C 
ATOM     10  C   UNL     1       2.264   1.888  17.799  0.00  0.00    +0.000 C 
ATOM     11  O   UNL     1       1.806   2.005  19.150  0.00  0.00    +0.000 OA
ENDROOT
BRANCH   1  12
ATOM     12  C   UNL     1       2.002   7.316  21.151  0.00  0.00    +0.000 C 
BRANCH  12  16
ATOM     13  C   UNL     1      -0.953  10.385  19.859  0.00  0.00    +0.000 C 
ATOM     14  C   UNL     1       0.554  10.615  19.934  0.00  0.00    +0.000 C 
ATOM     15  C   UNL     1       1.256   9.618  20.875  0.00  0.00    +0.000 C 
ATOM     16  N   UNL     1       1.352   8.278  20.258  0.00  0.00    +0.000 NA
ATOM     17  C   UNL     1       2.152   8.430  19.025  0.00  0.00    +0.000 C 
ATOM     18  C   UNL     1       1.502   9.414  18.034  0.00  0.00    +0.000 C 
ATOM     19  C   UNL     1       0.330   8.798  17.278  0.00  0.00    +0.000 C 
ATOM     20  O   UNL     1       1.160  10.675  18.632  0.00  0.00    +0.000 OA
ENDBRANCH  12  16
ENDBRANCH   1  12
BRANCH   8  21
ATOM     21  C   UNL     1       4.189   4.190  17.173  0.00  0.00    +0.000 C 
BRANCH  21  22
ATOM     22  C   UNL     1       5.110   4.382  15.997  0.00  0.00    +0.000 A 
ATOM     23  C   UNL     1       4.964   3.783  14.749  0.00  0.00    +0.000 A 
ATOM     24  C   UNL     1       6.047   4.146  13.939  0.00  0.00    +0.000 A 
ATOM     25  C   UNL     1       6.893   4.874  14.735  0.00  0.00    +0.000 A 
ATOM     26  N   UNL     1       6.355   5.009  16.010  0.00  0.00    +0.000 N 
BRANCH  26  27
ATOM     27  C   UNL     1       7.040   5.642  17.084  0.00  0.00    +0.000 A 
ATOM     28  C   UNL     1       7.301   7.011  17.113  0.00  0.00    +0.000 A 
ATOM     29  C   UNL     1       7.959   7.570  18.208  0.00  0.00    +0.000 A 
ATOM     30  C   UNL     1       8.346   6.736  19.239  0.00  0.00    +0.000 A 
ATOM     31  N   UNL     1       8.126   5.405  19.244  0.00  0.00    +0.000 NA
ATOM     32  C   UNL     1       7.483   4.890  18.169  0.00  0.00    +0.000 A 
ENDBRANCH  26  27
ENDBRANCH  21  22
ENDBRANCH   8  21
TORSDOF 5
ENDMDL
MODEL 6
REMARK VINA RESULT:      -7.3      3.146      6.181
REMARK  Name = 
REMARK  7 active torsions:
REMARK  status: ('A' for Active; 'I' for Inactive)
REMARK    1  A    between atoms: C_1  and  C_2
REMARK    2  A    between atoms: N_4  and  C_5
REMARK    3  A    between atoms: C_5  and  C_6
REMARK    4  A    between atoms: N_13  and  C_14
REMARK    5  A    between atoms: C_14  and  C_15
REMARK    6  A    between atoms: N_19  and  C_20
REMARK    7  A    between atoms: C_30  and  C_31
REMARK                            x       y       z     vdW  Elec       q    Type
REMARK                         _______ _______ _______ _____ _____    ______ ____
ROOT
ATOM      1  C   UNL     1       1.949   8.388  18.845  0.00  0.00    +0.000 A 
ATOM      2  C   UNL     1       1.825   7.825  20.121  0.00  0.00    +0.000 A 
ATOM      3  C   UNL     1       0.932   8.372  21.048  0.00  0.00    +0.000 A 
ATOM      4  C   UNL     1       0.227   9.534  20.736  0.00  0.00    +0.000 A 
ATOM      5  C   UNL     1       0.388  10.143  19.490  0.00  0.00    +0.000 A 
ATOM      6  C   UNL     1       1.181   9.511  18.527  0.00  0.00    +0.000 A 
ATOM      7  C   UNL     1      -0.150  11.515  19.182  0.00  0.00    +0.000 C 
ATOM      8  N   UNL     1       0.295  12.567  20.112  0.00  0.00    +0.000 NA
ATOM      9  C   UNL     1      -0.459  12.476  21.377  0.00  0.00    +0.000 C 
ATOM     10  C   UNL     1      -0.193  11.241  22.257  0.00  0.00    +0.000 C 
ATOM     11  O   UNL     1      -0.652  10.022  21.664  0.00  0.00    +0.000 OA
ENDROOT
BRANCH   1  12
ATOM     12  C   UNL     1       2.947   7.876  17.831  0.00  0.00    +0.000 C 
BRANCH  12  16
ATOM     13  C   UNL     1       3.378   3.897  19.779  0.00  0.00    +0.000 C 
ATOM     14  C   UNL     1       3.451   4.134  18.274  0.00  0.00    +0.000 C 
ATOM     15  C   UNL     1       2.769   5.448  17.850  0.00  0.00    +0.000 C 
ATOM     16  N   UNL     1       3.594   6.619  18.213  0.00  0.00    +0.000 NA
ATOM     17  C   UNL     1       4.876   6.481  17.491  0.00  0.00    +0.000 C 
ATOM     18  C   UNL     1       5.615   5.185  17.873  0.00  0.00    +0.000 C 
ATOM     19  C   UNL     1       6.310   5.283  19.226  0.00  0.00    +0.000 C 
ATOM     20  O   UNL     1       4.791   4.013  17.770  0.00  0.00    +0.000 OA
ENDBRANCH  12  16
ENDBRANCH   1  12
BRANCH   8  21
ATOM     21  C   UNL     1       1.753  12.636  20.341  0.00  0.00    +0.000 C 
BRANCH  21  22
ATOM     22  C   UNL     1       2.461  13.704  19.552  0.00  0.00    +0.000 A 
ATOM     23  C   UNL     1       2.439  13.835  18.166  0.00  0.00    +0.000 A 
ATOM     24  C   UNL     1       3.268  14.901  17.795  0.00  0.00    +0.000 A 
ATOM     25  C   UNL     1       3.867  15.340  18.947  0.00  0.00    +0.000 A 
ATOM     26  N   UNL     1       3.411  14.604  20.034  0.00  0.00    +0.000 N 
BRANCH  26  27
ATOM     27  C   UNL     1       3.913  14.769  21.356  0.00  0.00    +0.000 A 
ATOM     28  C   UNL     1       5.066  14.135  21.812  0.00  0.00    +0.000 A 
ATOM     29  C   UNL     1       5.512  14.358  23.115  0.00  0.00    +0.000 A 
ATOM     30  C   UNL     1       4.781  15.205  23.925  0.00  0.00    +0.000 A 
ATOM     31  N   UNL     1       3.653  15.827  23.527  0.00  0.00    +0.000 NA
ATOM     32  C   UNL     1       3.244  15.594  22.258  0.00  0.00    +0.000 A 
ENDBRANCH  26  27
ENDBRANCH  21  22
ENDBRANCH   8  21
TORSDOF 5
ENDMDL
MODEL 7
REMARK VINA RESULT:      -7.3      2.750      5.130
REMARK  Name = 
REMARK  7 active torsions:
REMARK  status: ('A' for Active; 'I' for Inactive)
REMARK    1  A    between atoms: C_1  and  C_2
REMARK    2  A    between atoms: N_4  and  C_5
REMARK    3  A    between atoms: C_5  and  C_6
REMARK    4  A    between atoms: N_13  and  C_14
REMARK    5  A    between atoms: C_14  and  C_15
REMARK    6  A    between atoms: N_19  and  C_20
REMARK    7  A    between atoms: C_30  and  C_31
REMARK                            x       y       z     vdW  Elec       q    Type
REMARK                         _______ _______ _______ _____ _____    ______ ____
ROOT
ATOM      1  C   UNL     1       1.882   8.233  19.063  0.00  0.00    +0.000 A 
ATOM      2  C   UNL     1       1.765   7.942  20.428  0.00  0.00    +0.000 A 
ATOM      3  C   UNL     1       0.856   8.647  21.222  0.00  0.00    +0.000 A 
ATOM      4  C   UNL     1       0.126   9.704  20.677  0.00  0.00    +0.000 A 
ATOM      5  C   UNL     1       0.279  10.047  19.332  0.00  0.00    +0.000 A 
ATOM      6  C   UNL     1       1.091   9.248  18.520  0.00  0.00    +0.000 A 
ATOM      7  C   UNL     1      -0.288  11.313  18.749  0.00  0.00    +0.000 C 
ATOM      8  N   UNL     1       0.130  12.544  19.442  0.00  0.00    +0.000 NA
ATOM      9  C   UNL     1      -0.628  12.698  20.699  0.00  0.00    +0.000 C 
ATOM     10  C   UNL     1      -0.339  11.677  21.814  0.00  0.00    +0.000 C 
ATOM     11  O   UNL     1      -0.767  10.352  21.485  0.00  0.00    +0.000 OA
ENDROOT
BRANCH   1  12
ATOM     12  C   UNL     1       2.897   7.546  18.176  0.00  0.00    +0.000 C 
BRANCH  12  16
ATOM     13  C   UNL     1       1.611   3.498  19.508  0.00  0.00    +0.000 C 
ATOM     14  C   UNL     1       1.875   3.886  18.056  0.00  0.00    +0.000 C 
ATOM     15  C   UNL     1       1.789   5.406  17.827  0.00  0.00    +0.000 C 
ATOM     16  N   UNL     1       2.976   6.097  18.372  0.00  0.00    +0.000 NA
ATOM     17  C   UNL     1       4.152   5.563  17.653  0.00  0.00    +0.000 C 
ATOM     18  C   UNL     1       4.300   4.041  17.844  0.00  0.00    +0.000 C 
ATOM     19  C   UNL     1       4.882   3.675  19.205  0.00  0.00    +0.000 C 
ATOM     20  O   UNL     1       3.095   3.314  17.556  0.00  0.00    +0.000 OA
ENDBRANCH  12  16
ENDBRANCH   1  12
BRANCH   8  21
ATOM     21  C   UNL     1       1.585  12.692  19.652  0.00  0.00    +0.000 C 
BRANCH  21  22
ATOM     22  C   UNL     1       2.211  13.842  18.909  0.00  0.00    +0.000 A 
ATOM     23  C   UNL     1       3.394  13.784  18.178  0.00  0.00    +0.000 A 
ATOM     24  C   UNL     1       3.691  15.062  17.689  0.00  0.00    +0.000 A 
ATOM     25  C   UNL     1       2.745  15.903  18.216  0.00  0.00    +0.000 A 
ATOM     26  N   UNL     1       1.843  15.185  18.992  0.00  0.00    +0.000 N 
BRANCH  26  27
ATOM     27  C   UNL     1       0.796  15.793  19.738  0.00  0.00    +0.000 A 
ATOM     28  C   UNL     1       0.907  16.089  21.095  0.00  0.00    +0.000 A 
ATOM     29  C   UNL     1      -0.152  16.704  21.761  0.00  0.00    +0.000 A 
ATOM     30  C   UNL     1      -1.298  16.996  21.047  0.00  0.00    +0.000 A 
ATOM     31  N   UNL     1      -1.452  16.714  19.737  0.00  0.00    +0.000 NA
ATOM     32  C   UNL     1      -0.407  16.118  19.116  0.00  0.00    +0.000 A 
ENDBRANCH  26  27
ENDBRANCH  21  22
ENDBRANCH   8  21
TORSDOF 5
ENDMDL
MODEL 8
REMARK VINA RESULT:      -7.1      3.604      7.765
REMARK  Name = 
REMARK  7 active torsions:
REMARK  status: ('A' for Active; 'I' for Inactive)
REMARK    1  A    between atoms: C_1  and  C_2
REMARK    2  A    between atoms: N_4  and  C_5
REMARK    3  A    between atoms: C_5  and  C_6
REMARK    4  A    between atoms: N_13  and  C_14
REMARK    5  A    between atoms: C_14  and  C_15
REMARK    6  A    between atoms: N_19  and  C_20
REMARK    7  A    between atoms: C_30  and  C_31
REMARK                            x       y       z     vdW  Elec       q    Type
REMARK                         _______ _______ _______ _____ _____    ______ ____
ROOT
ATOM      1  C   UNL     1      -2.278  11.933  23.114  0.00  0.00    +0.000 A 
ATOM      2  C   UNL     1      -1.469  10.813  23.342  0.00  0.00    +0.000 A 
ATOM      3  C   UNL     1      -0.401  10.531  22.484  0.00  0.00    +0.000 A 
ATOM      4  C   UNL     1      -0.192  11.313  21.349  0.00  0.00    +0.000 A 
ATOM      5  C   UNL     1      -1.029  12.396  21.074  0.00  0.00    +0.000 A 
ATOM      6  C   UNL     1      -2.008  12.746  22.010  0.00  0.00    +0.000 A 
ATOM      7  C   UNL     1      -1.009  13.123  19.757  0.00  0.00    +0.000 C 
ATOM      8  N   UNL     1      -1.209  12.259  18.581  0.00  0.00    +0.000 NA
ATOM      9  C   UNL     1       0.035  11.524  18.276  0.00  0.00    +0.000 C 
ATOM     10  C   UNL     1       0.477  10.457  19.294  0.00  0.00    +0.000 C 
ATOM     11  O   UNL     1       0.878  11.013  20.550  0.00  0.00    +0.000 OA
ENDROOT
BRANCH   1  12
ATOM     12  C   UNL     1      -3.484  12.245  23.971  0.00  0.00    +0.000 C 
BRANCH  12  16
ATOM     13  C   UNL     1      -6.354  14.693  21.608  0.00  0.00    +0.000 C 
ATOM     14  C   UNL     1      -6.442  14.477  23.116  0.00  0.00    +0.000 C 
ATOM     15  C   UNL     1      -5.680  13.219  23.576  0.00  0.00    +0.000 C 
ATOM     16  N   UNL     1      -4.219  13.441  23.553  0.00  0.00    +0.000 NA
ATOM     17  C   UNL     1      -3.938  14.549  24.489  0.00  0.00    +0.000 C 
ATOM     18  C   UNL     1      -4.668  15.844  24.084  0.00  0.00    +0.000 C 
ATOM     19  C   UNL     1      -3.988  16.562  22.924  0.00  0.00    +0.000 C 
ATOM     20  O   UNL     1      -6.074  15.653  23.855  0.00  0.00    +0.000 OA
ENDBRANCH  12  16
ENDBRANCH   1  12
BRANCH   8  21
ATOM     21  C   UNL     1      -2.380  11.361  18.644  0.00  0.00    +0.000 C 
BRANCH  21  22
ATOM     22  C   UNL     1      -2.895  10.908  17.304  0.00  0.00    +0.000 A 
ATOM     23  C   UNL     1      -2.109  10.482  16.237  0.00  0.00    +0.000 A 
ATOM     24  C   UNL     1      -2.937  10.209  15.141  0.00  0.00    +0.000 A 
ATOM     25  C   UNL     1      -4.204  10.571  15.518  0.00  0.00    +0.000 A 
ATOM     26  N   UNL     1      -4.201  11.031  16.830  0.00  0.00    +0.000 N 
BRANCH  26  27
ATOM     27  C   UNL     1      -5.353  11.559  17.476  0.00  0.00    +0.000 A 
ATOM     28  C   UNL     1      -5.942  12.766  17.107  0.00  0.00    +0.000 A 
ATOM     29  C   UNL     1      -7.084  13.214  17.771  0.00  0.00    +0.000 A 
ATOM     30  C   UNL     1      -7.595  12.441  18.795  0.00  0.00    +0.000 A 
ATOM     31  N   UNL     1      -7.049  11.275  19.193  0.00  0.00    +0.000 NA
ATOM     32  C   UNL     1      -5.943  10.863  18.530  0.00  0.00    +0.000 A 
ENDBRANCH  26  27
ENDBRANCH  21  22
ENDBRANCH   8  21
TORSDOF 5
ENDMDL
MODEL 9
REMARK VINA RESULT:      -7.1      3.549      7.870
REMARK  Name = 
REMARK  7 active torsions:
REMARK  status: ('A' for Active; 'I' for Inactive)
REMARK    1  A    between atoms: C_1  and  C_2
REMARK    2  A    between atoms: N_4  and  C_5
REMARK    3  A    between atoms: C_5  and  C_6
REMARK    4  A    between atoms: N_13  and  C_14
REMARK    5  A    between atoms: C_14  and  C_15
REMARK    6  A    between atoms: N_19  and  C_20
REMARK    7  A    between atoms: C_30  and  C_31
REMARK                            x       y       z     vdW  Elec       q    Type
REMARK                         _______ _______ _______ _____ _____    ______ ____
ROOT
ATOM      1  C   UNL     1      -2.357  12.073  23.002  0.00  0.00    +0.000 A 
ATOM      2  C   UNL     1      -1.581  10.955  23.332  0.00  0.00    +0.000 A 
ATOM      3  C   UNL     1      -0.491  10.596  22.532  0.00  0.00    +0.000 A 
ATOM      4  C   UNL     1      -0.227  11.296  21.355  0.00  0.00    +0.000 A 
ATOM      5  C   UNL     1      -1.032  12.374  20.981  0.00  0.00    +0.000 A 
ATOM      6  C   UNL     1      -2.034  12.804  21.857  0.00  0.00    +0.000 A 
ATOM      7  C   UNL     1      -0.953  13.011  19.620  0.00  0.00    +0.000 C 
ATOM      8  N   UNL     1      -1.132  12.074  18.497  0.00  0.00    +0.000 NA
ATOM      9  C   UNL     1       0.105  11.296  18.285  0.00  0.00    +0.000 C 
ATOM     10  C   UNL     1       0.491  10.292  19.386  0.00  0.00    +0.000 C 
ATOM     11  O   UNL     1       0.861  10.923  20.615  0.00  0.00    +0.000 OA
ENDROOT
BRANCH   1  12
ATOM     12  C   UNL     1      -3.585  12.465  23.795  0.00  0.00    +0.000 C 
BRANCH  12  16
ATOM     13  C   UNL     1      -5.465  16.222  22.325  0.00  0.00    +0.000 C 
ATOM     14  C   UNL     1      -5.661  15.649  23.726  0.00  0.00    +0.000 C 
ATOM     15  C   UNL     1      -5.349  14.142  23.795  0.00  0.00    +0.000 C 
ATOM     16  N   UNL     1      -3.893  13.895  23.748  0.00  0.00    +0.000 NA
ATOM     17  C   UNL     1      -3.305  14.569  24.925  0.00  0.00    +0.000 C 
ATOM     18  C   UNL     1      -3.578  16.085  24.917  0.00  0.00    +0.000 C 
ATOM     19  C   UNL     1      -2.671  16.838  23.949  0.00  0.00    +0.000 C 
ATOM     20  O   UNL     1      -4.964  16.410  24.726  0.00  0.00    +0.000 OA
ENDBRANCH  12  16
ENDBRANCH   1  12
BRANCH   8  21
ATOM     21  C   UNL     1      -2.323  11.204  18.579  0.00  0.00    +0.000 C 
BRANCH  21  22
ATOM     22  C   UNL     1      -2.882  10.780  17.248  0.00  0.00    +0.000 A 
ATOM     23  C   UNL     1      -2.131  10.375  16.147  0.00  0.00    +0.000 A 
ATOM     24  C   UNL     1      -2.995  10.125  15.073  0.00  0.00    +0.000 A 
ATOM     25  C   UNL     1      -4.248  10.482  15.498  0.00  0.00    +0.000 A 
ATOM     26  N   UNL     1      -4.202  10.915  16.818  0.00  0.00    +0.000 N 
BRANCH  26  27
ATOM     27  C   UNL     1      -5.332  11.431  17.511  0.00  0.00    +0.000 A 
ATOM     28  C   UNL     1      -5.992  10.724  18.514  0.00  0.00    +0.000 A 
ATOM     29  C   UNL     1      -7.082  11.298  19.168  0.00  0.00    +0.000 A 
ATOM     30  C   UNL     1      -7.484  12.564  18.788  0.00  0.00    +0.000 A 
ATOM     31  N   UNL     1      -6.883  13.277  17.814  0.00  0.00    +0.000 NA
ATOM     32  C   UNL     1      -5.826  12.695  17.198  0.00  0.00    +0.000 A 
ENDBRANCH  26  27
ENDBRANCH  21  22
ENDBRANCH   8  21
TORSDOF 5
ENDMDL
