MODEL 1
REMARK VINA RESULT:      -8.2      0.000      0.000
REMARK  Name = 
REMARK  6 active torsions:
REMARK  status: ('A' for Active; 'I' for Inactive)
REMARK    1  A    between atoms: C_1  and  C_2
REMARK    2  A    between atoms: C_2  and  C_3
REMARK    3  A    between atoms: C_2  and  C_4
REMARK    4  A    between atoms: C_7  and  N_8
REMARK    5  A    between atoms: N_8  and  C_9
REMARK    6  A    between atoms: C_14  and  C_16
REMARK                            x       y       z     vdW  Elec       q    Type
REMARK                         _______ _______ _______ _____ _____    ______ ____
ROOT
ATOM      1  C   UNL     1       7.323   6.500  17.044  0.00  0.00    +0.000 C 
ATOM      2  C   UNL     1       7.978   6.532  18.430  0.00  0.00    +0.000 C 
ATOM      3  C   UNL     1       7.281   5.646  19.463  0.00  0.00    +0.000 C 
ATOM      4  C   UNL     1       5.755   5.698  19.434  0.00  0.00    +0.000 C 
ATOM      5  N   UNL     1       5.199   5.679  18.084  0.00  0.00    +0.000 N 
ATOM      6  C   UNL     1       4.063   4.995  17.622  0.00  0.00    +0.000 C 
ATOM      7  O   UNL     1       3.569   5.222  16.520  0.00  0.00    +0.000 OA
ATOM      8  C   UNL     1       5.794   6.672  17.178  0.00  0.00    +0.000 C 
ENDROOT
BRANCH   6   9
ATOM      9  C   UNL     1       3.440   3.884  18.382  0.00  0.00    +0.000 A 
ATOM     10  C   UNL     1       3.636   2.593  17.869  0.00  0.00    +0.000 A 
ATOM     11  C   UNL     1       3.076   1.517  18.536  0.00  0.00    +0.000 A 
ATOM     12  N   UNL     1       2.361   1.645  19.670  0.00  0.00    +0.000 NA
ATOM     13  C   UNL     1       2.154   2.901  20.111  0.00  0.00    +0.000 A 
ATOM     14 CL   UNL     1       1.257   3.001  21.569  0.00  0.00    +0.000 Cl
ATOM     15  C   UNL     1       2.628   4.045  19.496  0.00  0.00    +0.000 A 
ENDBRANCH   6   9
BRANCH   1  16
ATOM     16  N   UNL     1       7.637   5.246  16.366  0.00  0.00    +0.000 N 
ATOM     17  H   UNL     1       8.488   4.779  16.667  0.00  0.00    +0.000 HD
BRANCH  16  21
ATOM     18  C   UNL     1       6.066   3.702  12.743  0.00  0.00    +0.000 A 
ATOM     19  C   UNL     1       5.498   3.337  13.969  0.00  0.00    +0.000 A 
ATOM     20  C   UNL     1       5.985   3.866  15.175  0.00  0.00    +0.000 A 
ATOM     21  C   UNL     1       7.045   4.777  15.206  0.00  0.00    +0.000 A 
ATOM     22  C   UNL     1       7.597   5.144  13.971  0.00  0.00    +0.000 A 
ATOM     23  C   UNL     1       7.114   4.627  12.761  0.00  0.00    +0.000 A 
BRANCH  18  25
ATOM     24  C   UNL     1       6.018   1.597  11.340  0.00  0.00    +0.000 C 
ATOM     25  C   UNL     1       5.588   3.062  11.452  0.00  0.00    +0.000 C 
ATOM     26  C   UNL     1       4.067   3.193  11.313  0.00  0.00    +0.000 C 
ENDBRANCH  18  25
ENDBRANCH  16  21
ENDBRANCH   1  16
TORSDOF 4
ENDMDL
MODEL 2
REMARK VINA RESULT:      -7.8      4.110      7.698
REMARK  Name = 
REMARK  6 active torsions:
REMARK  status: ('A' for Active; 'I' for Inactive)
REMARK    1  A    between atoms: C_1  and  C_2
REMARK    2  A    between atoms: C_2  and  C_3
REMARK    3  A    between atoms: C_2  and  C_4
REMARK    4  A    between atoms: C_7  and  N_8
REMARK    5  A    between atoms: N_8  and  C_9
REMARK    6  A    between atoms: C_14  and  C_16
REMARK                            x       y       z     vdW  Elec       q    Type
REMARK                         _______ _______ _______ _____ _____    ______ ____
ROOT
ATOM      1  C   UNL     1       1.165   4.543  20.497  0.00  0.00    +0.000 C 
ATOM      2  C   UNL     1       1.602   3.291  21.265  0.00  0.00    +0.000 C 
ATOM      3  C   UNL     1       3.033   2.847  20.959  0.00  0.00    +0.000 C 
ATOM      4  C   UNL     1       3.427   2.910  19.485  0.00  0.00    +0.000 C 
ATOM      5  N   UNL     1       2.966   4.121  18.812  0.00  0.00    +0.000 N 
ATOM      6  C   UNL     1       3.650   4.903  17.867  0.00  0.00    +0.000 C 
ATOM      7  O   UNL     1       3.085   5.775  17.212  0.00  0.00    +0.000 OA
ATOM      8  C   UNL     1       1.538   4.406  19.005  0.00  0.00    +0.000 C 
ENDROOT
BRANCH   6   9
ATOM      9  C   UNL     1       5.116   4.803  17.663  0.00  0.00    +0.000 A 
ATOM     10  C   UNL     1       5.539   4.318  16.416  0.00  0.00    +0.000 A 
ATOM     11  C   UNL     1       6.895   4.202  16.170  0.00  0.00    +0.000 A 
ATOM     12  N   UNL     1       7.839   4.548  17.066  0.00  0.00    +0.000 NA
ATOM     13  C   UNL     1       7.400   4.968  18.268  0.00  0.00    +0.000 A 
ATOM     14 CL   UNL     1       8.644   5.415  19.360  0.00  0.00    +0.000 Cl
ATOM     15  C   UNL     1       6.070   5.076  18.633  0.00  0.00    +0.000 A 
ENDBRANCH   6   9
BRANCH   1  16
ATOM     16  N   UNL     1       1.790   5.732  21.071  0.00  0.00    +0.000 N 
ATOM     17  H   UNL     1       2.408   5.570  21.862  0.00  0.00    +0.000 HD
BRANCH  16  21
ATOM     18  C   UNL     1       0.617   9.672  20.037  0.00  0.00    +0.000 A 
ATOM     19  C   UNL     1       0.036   9.031  21.137  0.00  0.00    +0.000 A 
ATOM     20  C   UNL     1       0.438   7.739  21.513  0.00  0.00    +0.000 A 
ATOM     21  C   UNL     1       1.431   7.044  20.816  0.00  0.00    +0.000 A 
ATOM     22  C   UNL     1       2.013   7.702  19.725  0.00  0.00    +0.000 A 
ATOM     23  C   UNL     1       1.624   8.994  19.346  0.00  0.00    +0.000 A 
BRANCH  18  25
ATOM     24  C   UNL     1       1.171  11.798  18.782  0.00  0.00    +0.000 C 
ATOM     25  C   UNL     1       0.118  11.035  19.589  0.00  0.00    +0.000 C 
ATOM     26  C   UNL     1      -1.184  10.900  18.791  0.00  0.00    +0.000 C 
ENDBRANCH  18  25
ENDBRANCH  16  21
ENDBRANCH   1  16
TORSDOF 4
ENDMDL
MODEL 3
REMARK VINA RESULT:      -7.7      4.171      7.708
REMARK  Name = 
REMARK  6 active torsions:
REMARK  status: ('A' for Active; 'I' for Inactive)
REMARK    1  A    between atoms: C_1  and  C_2
REMARK    2  A    between atoms: C_2  and  C_3
REMARK    3  A    between atoms: C_2  and  C_4
REMARK    4  A    between atoms: C_7  and  N_8
REMARK    5  A    between atoms: N_8  and  C_9
REMARK    6  A    between atoms: C_14  and  C_16
REMARK                            x       y       z     vdW  Elec       q    Type
REMARK                         _______ _______ _______ _____ _____    ______ ____
ROOT
ATOM      1  C   UNL     1       1.592   4.321  20.723  0.00  0.00    +0.000 C 
ATOM      2  C   UNL     1       2.245   3.145  21.457  0.00  0.00    +0.000 C 
ATOM      3  C   UNL     1       3.616   2.754  20.903  0.00  0.00    +0.000 C 
ATOM      4  C   UNL     1       3.715   2.741  19.378  0.00  0.00    +0.000 C 
ATOM      5  N   UNL     1       3.060   3.881  18.744  0.00  0.00    +0.000 N 
ATOM      6  C   UNL     1       3.501   4.633  17.643  0.00  0.00    +0.000 C 
ATOM      7  O   UNL     1       2.768   5.431  17.064  0.00  0.00    +0.000 OA
ATOM      8  C   UNL     1       1.680   4.106  19.196  0.00  0.00    +0.000 C 
ENDROOT
BRANCH   6   9
ATOM      9  C   UNL     1       4.904   4.594  17.163  0.00  0.00    +0.000 A 
ATOM     10  C   UNL     1       5.900   4.658  18.149  0.00  0.00    +0.000 A 
ATOM     11  C   UNL     1       7.228   4.627  17.761  0.00  0.00    +0.000 A 
ATOM     12  N   UNL     1       7.617   4.522  16.476  0.00  0.00    +0.000 NA
ATOM     13  C   UNL     1       6.637   4.507  15.552  0.00  0.00    +0.000 A 
ATOM     14 CL   UNL     1       7.190   4.350  13.936  0.00  0.00    +0.000 Cl
ATOM     15  C   UNL     1       5.284   4.580  15.828  0.00  0.00    +0.000 A 
ENDBRANCH   6   9
BRANCH   1  16
ATOM     16  N   UNL     1       2.241   5.574  21.099  0.00  0.00    +0.000 N 
ATOM     17  H   UNL     1       2.965   5.504  21.809  0.00  0.00    +0.000 HD
BRANCH  16  21
ATOM     18  C   UNL     1       0.793   9.370  19.887  0.00  0.00    +0.000 A 
ATOM     19  C   UNL     1       0.357   8.802  21.089  0.00  0.00    +0.000 A 
ATOM     20  C   UNL     1       0.852   7.561  21.521  0.00  0.00    +0.000 A 
ATOM     21  C   UNL     1       1.800   6.847  20.781  0.00  0.00    +0.000 A 
ATOM     22  C   UNL     1       2.238   7.433  19.586  0.00  0.00    +0.000 A 
ATOM     23  C   UNL     1       1.755   8.674  19.150  0.00  0.00    +0.000 A 
BRANCH  18  25
ATOM     24  C   UNL     1      -0.792  10.448  18.236  0.00  0.00    +0.000 C 
ATOM     25  C   UNL     1       0.191  10.672  19.388  0.00  0.00    +0.000 C 
ATOM     26  C   UNL     1      -0.482  11.434  20.536  0.00  0.00    +0.000 C 
ENDBRANCH  18  25
ENDBRANCH  16  21
ENDBRANCH   1  16
TORSDOF 4
ENDMDL
MODEL 4
REMARK VINA RESULT:      -7.7      4.195      7.873
REMARK  Name = 
REMARK  6 active torsions:
REMARK  status: ('A' for Active; 'I' for Inactive)
REMARK    1  A    between atoms: C_1  and  C_2
REMARK    2  A    between atoms: C_2  and  C_3
REMARK    3  A    between atoms: C_2  and  C_4
REMARK    4  A    between atoms: C_7  and  N_8
REMARK    5  A    between atoms: N_8  and  C_9
REMARK    6  A    between atoms: C_14  and  C_16
REMARK                            x       y       z     vdW  Elec       q    Type
REMARK                         _______ _______ _______ _____ _____    ______ ____
ROOT
ATOM      1  C   UNL     1       1.169   4.444  20.551  0.00  0.00    +0.000 C 
ATOM      2  C   UNL     1       1.662   3.252  21.379  0.00  0.00    +0.000 C 
ATOM      3  C   UNL     1       3.107   2.848  21.081  0.00  0.00    +0.000 C 
ATOM      4  C   UNL     1       3.484   2.848  19.601  0.00  0.00    +0.000 C 
ATOM      5  N   UNL     1       2.970   4.002  18.870  0.00  0.00    +0.000 N 
ATOM      6  C   UNL     1       3.614   4.759  17.877  0.00  0.00    +0.000 C 
ATOM      7  O   UNL     1       3.009   5.572  17.183  0.00  0.00    +0.000 OA
ATOM      8  C   UNL     1       1.533   4.241  19.063  0.00  0.00    +0.000 C 
ENDROOT
BRANCH   6   9
ATOM      9  C   UNL     1       5.081   4.705  17.663  0.00  0.00    +0.000 A 
ATOM     10  C   UNL     1       5.510   4.222  16.418  0.00  0.00    +0.000 A 
ATOM     11  C   UNL     1       6.868   4.148  16.162  0.00  0.00    +0.000 A 
ATOM     12  N   UNL     1       7.806   4.534  17.047  0.00  0.00    +0.000 NA
ATOM     13  C   UNL     1       7.363   4.952  18.248  0.00  0.00    +0.000 A 
ATOM     14 CL   UNL     1       8.599   5.451  19.326  0.00  0.00    +0.000 Cl
ATOM     15  C   UNL     1       6.033   5.020  18.623  0.00  0.00    +0.000 A 
ENDBRANCH   6   9
BRANCH   1  16
ATOM     16  N   UNL     1       1.751   5.685  21.054  0.00  0.00    +0.000 N 
ATOM     17  H   UNL     1       2.317   5.601  21.894  0.00  0.00    +0.000 HD
BRANCH  16  21
ATOM     18  C   UNL     1       0.774   9.696  20.090  0.00  0.00    +0.000 A 
ATOM     19  C   UNL     1       1.687   8.986  19.302  0.00  0.00    +0.000 A 
ATOM     20  C   UNL     1       1.995   7.646  19.588  0.00  0.00    +0.000 A 
ATOM     21  C   UNL     1       1.406   6.965  20.658  0.00  0.00    +0.000 A 
ATOM     22  C   UNL     1       0.484   7.684  21.431  0.00  0.00    +0.000 A 
ATOM     23  C   UNL     1       0.164   9.019  21.150  0.00  0.00    +0.000 A 
BRANCH  18  25
ATOM     24  C   UNL     1      -0.609  11.376  18.798  0.00  0.00    +0.000 C 
ATOM     25  C   UNL     1       0.509  11.167  19.823  0.00  0.00    +0.000 C 
ATOM     26  C   UNL     1       0.193  11.907  21.128  0.00  0.00    +0.000 C 
ENDBRANCH  18  25
ENDBRANCH  16  21
ENDBRANCH   1  16
TORSDOF 4
ENDMDL
MODEL 5
REMARK VINA RESULT:      -7.7      4.039      7.676
REMARK  Name = 
REMARK  6 active torsions:
REMARK  status: ('A' for Active; 'I' for Inactive)
REMARK    1  A    between atoms: C_1  and  C_2
REMARK    2  A    between atoms: C_2  and  C_3
REMARK    3  A    between atoms: C_2  and  C_4
REMARK    4  A    between atoms: C_7  and  N_8
REMARK    5  A    between atoms: N_8  and  C_9
REMARK    6  A    between atoms: C_14  and  C_16
REMARK                            x       y       z     vdW  Elec       q    Type
REMARK                         _______ _______ _______ _____ _____    ______ ____
ROOT
ATOM      1  C   UNL     1       1.567   4.122  20.765  0.00  0.00    +0.000 C 
ATOM      2  C   UNL     1       2.280   2.983  21.502  0.00  0.00    +0.000 C 
ATOM      3  C   UNL     1       3.655   2.640  20.927  0.00  0.00    +0.000 C 
ATOM      4  C   UNL     1       3.727   2.610  19.402  0.00  0.00    +0.000 C 
ATOM      5  N   UNL     1       3.016   3.713  18.765  0.00  0.00    +0.000 N 
ATOM      6  C   UNL     1       3.405   4.467  17.646  0.00  0.00    +0.000 C 
ATOM      7  O   UNL     1       2.630   5.227  17.071  0.00  0.00    +0.000 OA
ATOM      8  C   UNL     1       1.636   3.889  19.240  0.00  0.00    +0.000 C 
ENDROOT
BRANCH   6   9
ATOM      9  C   UNL     1       4.800   4.478  17.140  0.00  0.00    +0.000 A 
ATOM     10  C   UNL     1       5.810   4.615  18.105  0.00  0.00    +0.000 A 
ATOM     11  C   UNL     1       7.130   4.633  17.692  0.00  0.00    +0.000 A 
ATOM     12  N   UNL     1       7.500   4.508  16.403  0.00  0.00    +0.000 NA
ATOM     13  C   UNL     1       6.506   4.423  15.499  0.00  0.00    +0.000 A 
ATOM     14 CL   UNL     1       7.036   4.244  13.878  0.00  0.00    +0.000 Cl
ATOM     15  C   UNL     1       5.156   4.442  15.800  0.00  0.00    +0.000 A 
ENDBRANCH   6   9
BRANCH   1  16
ATOM     16  N   UNL     1       2.172   5.405  21.112  0.00  0.00    +0.000 N 
ATOM     17  H   UNL     1       2.838   5.389  21.880  0.00  0.00    +0.000 HD
BRANCH  16  21
ATOM     18  C   UNL     1       0.952   9.320  20.034  0.00  0.00    +0.000 A 
ATOM     19  C   UNL     1       1.852   8.615  19.226  0.00  0.00    +0.000 A 
ATOM     20  C   UNL     1       2.239   7.305  19.551  0.00  0.00    +0.000 A 
ATOM     21  C   UNL     1       1.744   6.649  20.683  0.00  0.00    +0.000 A 
ATOM     22  C   UNL     1       0.835   7.361  21.477  0.00  0.00    +0.000 A 
ATOM     23  C   UNL     1       0.437   8.666  21.157  0.00  0.00    +0.000 A 
BRANCH  18  25
ATOM     24  C   UNL     1       1.522  11.359  18.650  0.00  0.00    +0.000 C 
ATOM     25  C   UNL     1       0.604  10.764  19.720  0.00  0.00    +0.000 C 
ATOM     26  C   UNL     1      -0.866  10.889  19.304  0.00  0.00    +0.000 C 
ENDBRANCH  18  25
ENDBRANCH  16  21
ENDBRANCH   1  16
TORSDOF 4
ENDMDL
MODEL 6
REMARK VINA RESULT:      -7.5      0.325      1.006
REMARK  Name = 
REMARK  6 active torsions:
REMARK  status: ('A' for Active; 'I' for Inactive)
REMARK    1  A    between atoms: C_1  and  C_2
REMARK    2  A    between atoms: C_2  and  C_3
REMARK    3  A    between atoms: C_2  and  C_4
REMARK    4  A    between atoms: C_7  and  N_8
REMARK    5  A    between atoms: N_8  and  C_9
REMARK    6  A    between atoms: C_14  and  C_16
REMARK                            x       y       z     vdW  Elec       q    Type
REMARK                         _______ _______ _______ _____ _____    ______ ____
ROOT
ATOM      1  C   UNL     1       7.286   6.376  17.073  0.00  0.00    +0.000 C 
ATOM      2  C   UNL     1       7.843   6.502  18.495  0.00  0.00    +0.000 C 
ATOM      3  C   UNL     1       7.065   5.698  19.537  0.00  0.00    +0.000 C 
ATOM      4  C   UNL     1       5.545   5.761  19.397  0.00  0.00    +0.000 C 
ATOM      5  N   UNL     1       5.085   5.650  18.016  0.00  0.00    +0.000 N 
ATOM      6  C   UNL     1       3.974   4.944  17.525  0.00  0.00    +0.000 C 
ATOM      7  O   UNL     1       3.561   5.095  16.378  0.00  0.00    +0.000 OA
ATOM      8  C   UNL     1       5.754   6.569  17.086  0.00  0.00    +0.000 C 
ENDROOT
BRANCH   6   9
ATOM      9  C   UNL     1       3.284   3.896  18.317  0.00  0.00    +0.000 A 
ATOM     10  C   UNL     1       2.997   2.697  17.646  0.00  0.00    +0.000 A 
ATOM     11  C   UNL     1       2.353   1.685  18.334  0.00  0.00    +0.000 A 
ATOM     12  N   UNL     1       1.999   1.784  19.630  0.00  0.00    +0.000 NA
ATOM     13  C   UNL     1       2.250   2.962  20.232  0.00  0.00    +0.000 A 
ATOM     14 CL   UNL     1       1.799   3.023  21.885  0.00  0.00    +0.000 Cl
ATOM     15  C   UNL     1       2.845   4.052  19.624  0.00  0.00    +0.000 A 
ENDBRANCH   6   9
BRANCH   1  16
ATOM     16  N   UNL     1       7.630   5.073  16.509  0.00  0.00    +0.000 N 
ATOM     17  H   UNL     1       8.387   4.576  16.970  0.00  0.00    +0.000 HD
BRANCH  16  21
ATOM     18  C   UNL     1       6.096   3.633  12.828  0.00  0.00    +0.000 A 
ATOM     19  C   UNL     1       7.087   4.621  12.839  0.00  0.00    +0.000 A 
ATOM     20  C   UNL     1       7.630   5.084  14.049  0.00  0.00    +0.000 A 
ATOM     21  C   UNL     1       7.213   4.580  15.285  0.00  0.00    +0.000 A 
ATOM     22  C   UNL     1       6.229   3.583  15.259  0.00  0.00    +0.000 A 
ATOM     23  C   UNL     1       5.686   3.109  14.057  0.00  0.00    +0.000 A 
BRANCH  18  25
ATOM     24  C   UNL     1       5.752   1.732  11.194  0.00  0.00    +0.000 C 
ATOM     25  C   UNL     1       5.457   3.199  11.521  0.00  0.00    +0.000 C 
ATOM     26  C   UNL     1       3.946   3.456  11.544  0.00  0.00    +0.000 C 
ENDBRANCH  18  25
ENDBRANCH  16  21
ENDBRANCH   1  16
TORSDOF 4
ENDMDL
MODEL 7
REMARK VINA RESULT:      -7.4      3.369      5.701
REMARK  Name = 
REMARK  6 active torsions:
REMARK  status: ('A' for Active; 'I' for Inactive)
REMARK    1  A    between atoms: C_1  and  C_2
REMARK    2  A    between atoms: C_2  and  C_3
REMARK    3  A    between atoms: C_2  and  C_4
REMARK    4  A    between atoms: C_7  and  N_8
REMARK    5  A    between atoms: N_8  and  C_9
REMARK    6  A    between atoms: C_14  and  C_16
REMARK                            x       y       z     vdW  Elec       q    Type
REMARK                         _______ _______ _______ _____ _____    ______ ____
ROOT
ATOM      1  C   UNL     1       3.713   2.377  18.281  0.00  0.00    +0.000 C 
ATOM      2  C   UNL     1       2.278   1.927  17.985  0.00  0.00    +0.000 C 
ATOM      3  C   UNL     1       1.258   3.066  18.003  0.00  0.00    +0.000 C 
ATOM      4  C   UNL     1       1.432   4.071  19.140  0.00  0.00    +0.000 C 
ATOM      5  N   UNL     1       2.823   4.444  19.378  0.00  0.00    +0.000 N 
ATOM      6  C   UNL     1       3.342   5.712  19.683  0.00  0.00    +0.000 C 
ATOM      7  O   UNL     1       4.497   5.868  20.071  0.00  0.00    +0.000 OA
ATOM      8  C   UNL     1       3.733   3.299  19.521  0.00  0.00    +0.000 C 
ENDROOT
BRANCH   6   9
ATOM      9  C   UNL     1       2.570   6.961  19.464  0.00  0.00    +0.000 A 
ATOM     10  C   UNL     1       2.698   7.557  18.200  0.00  0.00    +0.000 A 
ATOM     11  C   UNL     1       2.003   8.724  17.939  0.00  0.00    +0.000 A 
ATOM     12  N   UNL     1       1.191   9.314  18.837  0.00  0.00    +0.000 NA
ATOM     13  C   UNL     1       1.125   8.742  20.054  0.00  0.00    +0.000 A 
ATOM     14 CL   UNL     1       0.061   9.523  21.148  0.00  0.00    +0.000 Cl
ATOM     15  C   UNL     1       1.813   7.604  20.433  0.00  0.00    +0.000 A 
ENDBRANCH   6   9
BRANCH   1  16
ATOM     16  N   UNL     1       4.276   3.067  17.124  0.00  0.00    +0.000 N 
ATOM     17  H   UNL     1       4.125   2.620  16.224  0.00  0.00    +0.000 HD
BRANCH  16  21
ATOM     18  C   UNL     1       6.878   6.407  17.338  0.00  0.00    +0.000 A 
ATOM     19  C   UNL     1       7.198   5.222  18.009  0.00  0.00    +0.000 A 
ATOM     20  C   UNL     1       6.364   4.095  17.921  0.00  0.00    +0.000 A 
ATOM     21  C   UNL     1       5.190   4.105  17.160  0.00  0.00    +0.000 A 
ATOM     22  C   UNL     1       4.888   5.294  16.484  0.00  0.00    +0.000 A 
ATOM     23  C   UNL     1       5.718   6.422  16.560  0.00  0.00    +0.000 A 
BRANCH  18  25
ATOM     24  C   UNL     1       6.927   8.936  17.402  0.00  0.00    +0.000 C 
ATOM     25  C   UNL     1       7.743   7.645  17.507  0.00  0.00    +0.000 C 
ATOM     26  C   UNL     1       8.510   7.594  18.832  0.00  0.00    +0.000 C 
ENDBRANCH  18  25
ENDBRANCH  16  21
ENDBRANCH   1  16
TORSDOF 4
ENDMDL
MODEL 8
REMARK VINA RESULT:      -7.3      4.190      7.861
REMARK  Name = 
REMARK  6 active torsions:
REMARK  status: ('A' for Active; 'I' for Inactive)
REMARK    1  A    between atoms: C_1  and  C_2
REMARK    2  A    between atoms: C_2  and  C_3
REMARK    3  A    between atoms: C_2  and  C_4
REMARK    4  A    between atoms: C_7  and  N_8
REMARK    5  A    between atoms: N_8  and  C_9
REMARK    6  A    between atoms: C_14  and  C_16
REMARK                            x       y       z     vdW  Elec       q    Type
REMARK                         _______ _______ _______ _____ _____    ______ ____
ROOT
ATOM      1  C   UNL     1       1.439   4.396  20.725  0.00  0.00    +0.000 C 
ATOM      2  C   UNL     1       2.214   3.265  21.409  0.00  0.00    +0.000 C 
ATOM      3  C   UNL     1       3.628   3.065  20.862  0.00  0.00    +0.000 C 
ATOM      4  C   UNL     1       3.749   3.147  19.342  0.00  0.00    +0.000 C 
ATOM      5  N   UNL     1       2.975   4.236  18.755  0.00  0.00    +0.000 N 
ATOM      6  C   UNL     1       3.339   5.093  17.704  0.00  0.00    +0.000 C 
ATOM      7  O   UNL     1       2.527   5.832  17.154  0.00  0.00    +0.000 OA
ATOM      8  C   UNL     1       1.572   4.276  19.191  0.00  0.00    +0.000 C 
ENDROOT
BRANCH   6   9
ATOM      9  C   UNL     1       4.744   5.242  17.251  0.00  0.00    +0.000 A 
ATOM     10  C   UNL     1       5.232   4.240  16.399  0.00  0.00    +0.000 A 
ATOM     11  C   UNL     1       6.536   4.326  15.945  0.00  0.00    +0.000 A 
ATOM     12  N   UNL     1       7.364   5.338  16.269  0.00  0.00    +0.000 NA
ATOM     13  C   UNL     1       6.879   6.260  17.122  0.00  0.00    +0.000 A 
ATOM     14 CL   UNL     1       7.967   7.535  17.481  0.00  0.00    +0.000 Cl
ATOM     15  C   UNL     1       5.609   6.243  17.670  0.00  0.00    +0.000 A 
ENDBRANCH   6   9
BRANCH   1  16
ATOM     16  N   UNL     1       1.932   5.694  21.179  0.00  0.00    +0.000 N 
ATOM     17  H   UNL     1       2.549   5.676  21.987  0.00  0.00    +0.000 HD
BRANCH  16  21
ATOM     18  C   UNL     1       0.514   9.575  20.234  0.00  0.00    +0.000 A 
ATOM     19  C   UNL     1       1.533   8.994  19.472  0.00  0.00    +0.000 A 
ATOM     20  C   UNL     1       1.990   7.696  19.750  0.00  0.00    +0.000 A 
ATOM     21  C   UNL     1       1.449   6.930  20.788  0.00  0.00    +0.000 A 
ATOM     22  C   UNL     1       0.421   7.519  21.536  0.00  0.00    +0.000 A 
ATOM     23  C   UNL     1      -0.047   8.812  21.261  0.00  0.00    +0.000 A 
BRANCH  18  25
ATOM     24  C   UNL     1       1.278  11.936  19.739  0.00  0.00    +0.000 C 
ATOM     25  C   UNL     1       0.083  11.009  19.977  0.00  0.00    +0.000 C 
ATOM     26  C   UNL     1      -0.900  11.079  18.804  0.00  0.00    +0.000 C 
ENDBRANCH  18  25
ENDBRANCH  16  21
ENDBRANCH   1  16
TORSDOF 4
ENDMDL
MODEL 9
REMARK VINA RESULT:      -7.2      6.460      8.372
REMARK  Name = 
REMARK  6 active torsions:
REMARK  status: ('A' for Active; 'I' for Inactive)
REMARK    1  A    between atoms: C_1  and  C_2
REMARK    2  A    between atoms: C_2  and  C_3
REMARK    3  A    between atoms: C_2  and  C_4
REMARK    4  A    between atoms: C_7  and  N_8
REMARK    5  A    between atoms: N_8  and  C_9
REMARK    6  A    between atoms: C_14  and  C_16
REMARK                            x       y       z     vdW  Elec       q    Type
REMARK                         _______ _______ _______ _____ _____    ______ ____
ROOT
ATOM      1  C   UNL     1       1.497   8.848  21.623  0.00  0.00    +0.000 C 
ATOM      2  C   UNL     1       0.676   9.302  22.835  0.00  0.00    +0.000 C 
ATOM      3  C   UNL     1      -0.703   9.855  22.475  0.00  0.00    +0.000 C 
ATOM      4  C   UNL     1      -0.732  10.774  21.256  0.00  0.00    +0.000 C 
ATOM      5  N   UNL     1       0.083  10.291  20.145  0.00  0.00    +0.000 N 
ATOM      6  C   UNL     1      -0.213  10.323  18.772  0.00  0.00    +0.000 C 
ATOM      7  O   UNL     1       0.635  10.083  17.917  0.00  0.00    +0.000 OA
ATOM      8  C   UNL     1       1.457   9.931  20.522  0.00  0.00    +0.000 C 
ENDROOT
BRANCH   6   9
ATOM      9  C   UNL     1      -1.588  10.550  18.260  0.00  0.00    +0.000 A 
ATOM     10  C   UNL     1      -1.929   9.875  17.078  0.00  0.00    +0.000 A 
ATOM     11  C   UNL     1      -3.197  10.050  16.553  0.00  0.00    +0.000 A 
ATOM     12  N   UNL     1      -4.133  10.826  17.130  0.00  0.00    +0.000 NA
ATOM     13  C   UNL     1      -3.759  11.493  18.239  0.00  0.00    +0.000 A 
ATOM     14 CL   UNL     1      -4.998  12.448  18.943  0.00  0.00    +0.000 Cl
ATOM     15  C   UNL     1      -2.506  11.427  18.819  0.00  0.00    +0.000 A 
ENDBRANCH   6   9
BRANCH   1  16
ATOM     16  N   UNL     1       0.984   7.581  21.110  0.00  0.00    +0.000 N 
ATOM     17  H   UNL     1       0.073   7.298  21.459  0.00  0.00    +0.000 HD
BRANCH  16  21
ATOM     18  C   UNL     1       2.972   4.544  18.919  0.00  0.00    +0.000 A 
ATOM     19  C   UNL     1       3.140   5.889  18.569  0.00  0.00    +0.000 A 
ATOM     20  C   UNL     1       2.516   6.909  19.306  0.00  0.00    +0.000 A 
ATOM     21  C   UNL     1       1.711   6.630  20.415  0.00  0.00    +0.000 A 
ATOM     22  C   UNL     1       1.560   5.281  20.762  0.00  0.00    +0.000 A 
ATOM     23  C   UNL     1       2.185   4.256  20.037  0.00  0.00    +0.000 A 
BRANCH  18  25
ATOM     24  C   UNL     1       2.564   2.362  17.705  0.00  0.00    +0.000 C 
ATOM     25  C   UNL     1       3.583   3.445  18.068  0.00  0.00    +0.000 C 
ATOM     26  C   UNL     1       4.225   4.031  16.805  0.00  0.00    +0.000 C 
ENDBRANCH  18  25
ENDBRANCH  16  21
ENDBRANCH   1  16
TORSDOF 4
ENDMDL
