MODEL 1
REMARK VINA RESULT:      -8.0      0.000      0.000
REMARK  Name = 
REMARK  9 active torsions:
REMARK  status: ('A' for Active; 'I' for Inactive)
REMARK    1  A    between atoms: C_2  and  C_3
REMARK    2  A    between atoms: C_3  and  O_4
REMARK    3  A    between atoms: O_4  and  C_5
REMARK    4  A    between atoms: C_10  and  C_11
REMARK    5  A    between atoms: N_16  and  C_17
REMARK    6  A    between atoms: C_17  and  C_18
REMARK    7  A    between atoms: C_18  and  O_19
REMARK    8  A    between atoms: C_18  and  C_20
REMARK    9  A    between atoms: C_20  and  N_21
REMARK                            x       y       z     vdW  Elec       q    Type
REMARK                         _______ _______ _______ _____ _____    ______ ____
ROOT
ATOM      1  O   UNL     1       7.982   9.820  17.655  0.00  0.00    +0.000 OA
ATOM      2  C   UNL     1       8.606   9.341  18.600  0.00  0.00    +0.000 C 
ATOM      3  N   UNL     1       8.538   8.012  18.951  0.00  0.00    +0.000 N 
ATOM      4  H   UNL     1       9.254   7.679  19.588  0.00  0.00    +0.000 HD
ENDROOT
BRANCH   2   5
ATOM      5  C   UNL     1       9.615  10.186  19.376  0.00  0.00    +0.000 C 
BRANCH   5   6
ATOM      6  O   UNL     1       9.085  10.876  20.499  0.00  0.00    +0.000 OA
BRANCH   6   7
ATOM      7  C   UNL     1       9.580  12.154  20.671  0.00  0.00    +0.000 A 
ATOM      8  C   UNL     1      10.468  12.744  19.751  0.00  0.00    +0.000 A 
ATOM      9  C   UNL     1      11.008  14.021  19.956  0.00  0.00    +0.000 A 
ATOM     10  C   UNL     1      10.647  14.733  21.084  0.00  0.00    +0.000 A 
ATOM     11  C   UNL     1       9.721  14.197  21.972  0.00  0.00    +0.000 A 
ATOM     12  C   UNL     1       9.164  12.908  21.787  0.00  0.00    +0.000 A 
BRANCH  12  13
ATOM     13  C   UNL     1       8.191  12.444  22.785  0.00  0.00    +0.000 A 
ATOM     14  C   UNL     1       8.408  11.804  24.038  0.00  0.00    +0.000 A 
ATOM     15  C   UNL     1       7.166  11.520  24.539  0.00  0.00    +0.000 A 
ATOM     16  N   UNL     1       6.282  11.971  23.610  0.00  0.00    +0.000 N 
ATOM     17  N   UNL     1       6.870  12.547  22.550  0.00  0.00    +0.000 NA
ATOM     18  H   UNL     1       5.270  11.925  23.619  0.00  0.00    +0.000 HD
ENDBRANCH  12  13
ENDBRANCH   6   7
ENDBRANCH   5   6
ENDBRANCH   2   5
BRANCH   3  19
ATOM     19  C   UNL     1       7.848   6.999  18.151  0.00  0.00    +0.000 C 
BRANCH  19  20
ATOM     20  C   UNL     1       7.755   5.574  18.762  0.00  0.00    +0.000 C 
BRANCH  20  21
ATOM     21  O   UNL     1       7.738   5.621  20.193  0.00  0.00    +0.000 OA
ATOM     22  H   UNL     1       6.830   5.463  20.515  0.00  0.00    +0.000 HD
ENDBRANCH  20  21
BRANCH  20  23
ATOM     23  C   UNL     1       6.420   4.910  18.340  0.00  0.00    +0.000 C 
BRANCH  23  24
ATOM     24  N   UNL     1       5.442   4.619  19.405  0.00  0.00    +0.000 NA
ATOM     25  C   UNL     1       4.880   3.249  19.261  0.00  0.00    +0.000 C 
ATOM     26  C   UNL     1       3.416   3.380  19.539  0.00  0.00    +0.000 A 
ATOM     27  C   UNL     1       2.388   2.472  19.386  0.00  0.00    +0.000 A 
ATOM     28  C   UNL     1       1.102   2.864  19.768  0.00  0.00    +0.000 A 
ATOM     29  C   UNL     1       0.879   4.122  20.358  0.00  0.00    +0.000 A 
ATOM     30  C   UNL     1       1.909   5.058  20.430  0.00  0.00    +0.000 A 
ATOM     31  C   UNL     1       3.145   4.684  19.939  0.00  0.00    +0.000 A 
ATOM     32  C   UNL     1       4.280   5.533  19.465  0.00  0.00    +0.000 C 
ENDBRANCH  23  24
ENDBRANCH  20  23
ENDBRANCH  19  20
ENDBRANCH   3  19
TORSDOF 9
ENDMDL
MODEL 2
REMARK VINA RESULT:      -7.9      5.663      9.380
REMARK  Name = 
REMARK  9 active torsions:
REMARK  status: ('A' for Active; 'I' for Inactive)
REMARK    1  A    between atoms: C_2  and  C_3
REMARK    2  A    between atoms: C_3  and  O_4
REMARK    3  A    between atoms: O_4  and  C_5
REMARK    4  A    between atoms: C_10  and  C_11
REMARK    5  A    between atoms: N_16  and  C_17
REMARK    6  A    between atoms: C_17  and  C_18
REMARK    7  A    between atoms: C_18  and  O_19
REMARK    8  A    between atoms: C_18  and  C_20
REMARK    9  A    between atoms: C_20  and  N_21
REMARK                            x       y       z     vdW  Elec       q    Type
REMARK                         _______ _______ _______ _____ _____    ______ ____
ROOT
ATOM      1  O   UNL     1       2.058   8.306  18.890  0.00  0.00    +0.000 OA
ATOM      2  C   UNL     1       2.214   7.449  19.759  0.00  0.00    +0.000 C 
ATOM      3  N   UNL     1       1.976   7.679  21.095  0.00  0.00    +0.000 N 
ATOM      4  H   UNL     1       1.915   6.858  21.687  0.00  0.00    +0.000 HD
ENDROOT
BRANCH   2   5
ATOM      5  C   UNL     1       2.564   6.011  19.381  0.00  0.00    +0.000 C 
BRANCH   5   6
ATOM      6  O   UNL     1       2.926   5.818  18.020  0.00  0.00    +0.000 OA
BRANCH   6   7
ATOM      7  C   UNL     1       4.282   5.901  17.772  0.00  0.00    +0.000 A 
ATOM      8  C   UNL     1       4.906   7.109  17.407  0.00  0.00    +0.000 A 
ATOM      9  C   UNL     1       6.273   7.178  17.107  0.00  0.00    +0.000 A 
ATOM     10  C   UNL     1       7.039   6.031  17.187  0.00  0.00    +0.000 A 
ATOM     11  C   UNL     1       6.459   4.840  17.609  0.00  0.00    +0.000 A 
ATOM     12  C   UNL     1       5.079   4.747  17.916  0.00  0.00    +0.000 A 
BRANCH  12  13
ATOM     13  C   UNL     1       4.574   3.439  18.356  0.00  0.00    +0.000 A 
ATOM     14  C   UNL     1       3.688   2.539  17.701  0.00  0.00    +0.000 A 
ATOM     15  C   UNL     1       3.487   1.502  18.573  0.00  0.00    +0.000 A 
ATOM     16  N   UNL     1       4.219   1.803  19.678  0.00  0.00    +0.000 N 
ATOM     17  N   UNL     1       4.898   2.956  19.570  0.00  0.00    +0.000 NA
ATOM     18  H   UNL     1       4.311   1.282  20.542  0.00  0.00    +0.000 HD
ENDBRANCH  12  13
ENDBRANCH   6   7
ENDBRANCH   5   6
ENDBRANCH   2   5
BRANCH   3  19
ATOM     19  C   UNL     1       1.366   8.907  21.607  0.00  0.00    +0.000 C 
BRANCH  19  20
ATOM     20  C   UNL     1      -0.173   9.038  21.446  0.00  0.00    +0.000 C 
BRANCH  20  21
ATOM     21  O   UNL     1      -0.860   8.591  22.619  0.00  0.00    +0.000 OA
ATOM     22  H   UNL     1      -0.221   8.469  23.347  0.00  0.00    +0.000 HD
ENDBRANCH  20  21
BRANCH  20  23
ATOM     23  C   UNL     1      -0.555  10.530  21.270  0.00  0.00    +0.000 C 
BRANCH  23  24
ATOM     24  N   UNL     1      -0.790  11.011  19.895  0.00  0.00    +0.000 NA
ATOM     25  C   UNL     1      -2.026  11.835  19.817  0.00  0.00    +0.000 C 
ATOM     26  C   UNL     1      -2.715  11.413  18.558  0.00  0.00    +0.000 A 
ATOM     27  C   UNL     1      -3.971  11.720  18.075  0.00  0.00    +0.000 A 
ATOM     28  C   UNL     1      -4.340  11.204  16.829  0.00  0.00    +0.000 A 
ATOM     29  C   UNL     1      -3.431  10.454  16.062  0.00  0.00    +0.000 A 
ATOM     30  C   UNL     1      -2.198  10.082  16.596  0.00  0.00    +0.000 A 
ATOM     31  C   UNL     1      -1.905  10.510  17.876  0.00  0.00    +0.000 A 
ATOM     32  C   UNL     1      -0.938   9.952  18.871  0.00  0.00    +0.000 C 
ENDBRANCH  23  24
ENDBRANCH  20  23
ENDBRANCH  19  20
ENDBRANCH   3  19
TORSDOF 9
ENDMDL
MODEL 3
REMARK VINA RESULT:      -7.9      6.200     10.296
REMARK  Name = 
REMARK  9 active torsions:
REMARK  status: ('A' for Active; 'I' for Inactive)
REMARK    1  A    between atoms: C_2  and  C_3
REMARK    2  A    between atoms: C_3  and  O_4
REMARK    3  A    between atoms: O_4  and  C_5
REMARK    4  A    between atoms: C_10  and  C_11
REMARK    5  A    between atoms: N_16  and  C_17
REMARK    6  A    between atoms: C_17  and  C_18
REMARK    7  A    between atoms: C_18  and  O_19
REMARK    8  A    between atoms: C_18  and  C_20
REMARK    9  A    between atoms: C_20  and  N_21
REMARK                            x       y       z     vdW  Elec       q    Type
REMARK                         _______ _______ _______ _____ _____    ______ ____
ROOT
ATOM      1  O   UNL     1       1.815   9.262  17.344  0.00  0.00    +0.000 OA
ATOM      2  C   UNL     1       1.945   8.514  18.311  0.00  0.00    +0.000 C 
ATOM      3  N   UNL     1       1.394   8.775  19.545  0.00  0.00    +0.000 N 
ATOM      4  H   UNL     1       1.366   7.999  20.196  0.00  0.00    +0.000 HD
ENDROOT
BRANCH   2   5
ATOM      5  C   UNL     1       2.630   7.157  18.160  0.00  0.00    +0.000 C 
BRANCH   5   6
ATOM      6  O   UNL     1       3.281   6.678  19.328  0.00  0.00    +0.000 OA
BRANCH   6   7
ATOM      7  C   UNL     1       2.894   5.411  19.720  0.00  0.00    +0.000 A 
ATOM      8  C   UNL     1       1.711   5.180  20.448  0.00  0.00    +0.000 A 
ATOM      9  C   UNL     1       1.349   3.899  20.887  0.00  0.00    +0.000 A 
ATOM     10  C   UNL     1       2.165   2.826  20.584  0.00  0.00    +0.000 A 
ATOM     11  C   UNL     1       3.304   3.021  19.810  0.00  0.00    +0.000 A 
ATOM     12  C   UNL     1       3.691   4.306  19.357  0.00  0.00    +0.000 A 
BRANCH  12  13
ATOM     13  C   UNL     1       4.910   4.395  18.543  0.00  0.00    +0.000 A 
ATOM     14  C   UNL     1       5.056   4.503  17.131  0.00  0.00    +0.000 A 
ATOM     15  C   UNL     1       6.403   4.479  16.886  0.00  0.00    +0.000 A 
ATOM     16  N   UNL     1       6.997   4.356  18.102  0.00  0.00    +0.000 N 
ATOM     17  N   UNL     1       6.124   4.319  19.121  0.00  0.00    +0.000 NA
ATOM     18  H   UNL     1       7.983   4.289  18.325  0.00  0.00    +0.000 HD
ENDBRANCH  12  13
ENDBRANCH   6   7
ENDBRANCH   5   6
ENDBRANCH   2   5
BRANCH   3  19
ATOM     19  C   UNL     1       0.470   9.882  19.799  0.00  0.00    +0.000 C 
BRANCH  19  20
ATOM     20  C   UNL     1       1.061  11.315  19.712  0.00  0.00    +0.000 C 
BRANCH  20  21
ATOM     21  O   UNL     1       0.862  11.883  18.413  0.00  0.00    +0.000 OA
ATOM     22  H   UNL     1       0.244  11.325  17.902  0.00  0.00    +0.000 HD
ENDBRANCH  20  21
BRANCH  20  23
ATOM     23  C   UNL     1       0.321  12.248  20.704  0.00  0.00    +0.000 C 
BRANCH  23  24
ATOM     24  N   UNL     1      -0.975  11.782  21.233  0.00  0.00    +0.000 NA
ATOM     25  C   UNL     1      -2.111  12.437  20.530  0.00  0.00    +0.000 C 
ATOM     26  C   UNL     1      -3.103  12.780  21.595  0.00  0.00    +0.000 A 
ATOM     27  C   UNL     1      -4.253  13.541  21.539  0.00  0.00    +0.000 A 
ATOM     28  C   UNL     1      -5.019  13.661  22.703  0.00  0.00    +0.000 A 
ATOM     29  C   UNL     1      -4.662  12.967  23.874  0.00  0.00    +0.000 A 
ATOM     30  C   UNL     1      -3.456  12.271  23.940  0.00  0.00    +0.000 A 
ATOM     31  C   UNL     1      -2.663  12.264  22.810  0.00  0.00    +0.000 A 
ATOM     32  C   UNL     1      -1.194  12.024  22.677  0.00  0.00    +0.000 C 
ENDBRANCH  23  24
ENDBRANCH  20  23
ENDBRANCH  19  20
ENDBRANCH   3  19
TORSDOF 9
ENDMDL
MODEL 4
REMARK VINA RESULT:      -7.9      5.863      6.951
REMARK  Name = 
REMARK  9 active torsions:
REMARK  status: ('A' for Active; 'I' for Inactive)
REMARK    1  A    between atoms: C_2  and  C_3
REMARK    2  A    between atoms: C_3  and  O_4
REMARK    3  A    between atoms: O_4  and  C_5
REMARK    4  A    between atoms: C_10  and  C_11
REMARK    5  A    between atoms: N_16  and  C_17
REMARK    6  A    between atoms: C_17  and  C_18
REMARK    7  A    between atoms: C_18  and  O_19
REMARK    8  A    between atoms: C_18  and  C_20
REMARK    9  A    between atoms: C_20  and  N_21
REMARK                            x       y       z     vdW  Elec       q    Type
REMARK                         _______ _______ _______ _____ _____    ______ ____
ROOT
ATOM      1  O   UNL     1       2.669   8.471  17.141  0.00  0.00    +0.000 OA
ATOM      2  C   UNL     1       2.812   7.819  18.174  0.00  0.00    +0.000 C 
ATOM      3  N   UNL     1       3.850   6.936  18.369  0.00  0.00    +0.000 N 
ATOM      4  H   UNL     1       4.003   6.629  19.323  0.00  0.00    +0.000 HD
ENDROOT
BRANCH   2   5
ATOM      5  C   UNL     1       1.899   8.053  19.376  0.00  0.00    +0.000 C 
BRANCH   5   6
ATOM      6  O   UNL     1       1.040   9.180  19.268  0.00  0.00    +0.000 OA
BRANCH   6   7
ATOM      7  C   UNL     1       0.490   9.595  20.465  0.00  0.00    +0.000 A 
ATOM      8  C   UNL     1       0.286   8.714  21.544  0.00  0.00    +0.000 A 
ATOM      9  C   UNL     1      -0.319   9.130  22.737  0.00  0.00    +0.000 A 
ATOM     10  C   UNL     1      -0.714  10.447  22.870  0.00  0.00    +0.000 A 
ATOM     11  C   UNL     1      -0.465  11.350  21.843  0.00  0.00    +0.000 A 
ATOM     12  C   UNL     1       0.144  10.953  20.627  0.00  0.00    +0.000 A 
BRANCH  12  13
ATOM     13  C   UNL     1       0.364  11.992  19.612  0.00  0.00    +0.000 A 
ATOM     14  C   UNL     1       1.504  12.811  19.382  0.00  0.00    +0.000 A 
ATOM     15  C   UNL     1       1.162  13.659  18.362  0.00  0.00    +0.000 A 
ATOM     16  N   UNL     1      -0.118  13.342  18.033  0.00  0.00    +0.000 N 
ATOM     17  N   UNL     1      -0.620  12.331  18.758  0.00  0.00    +0.000 NA
ATOM     18  H   UNL     1      -0.718  13.762  17.333  0.00  0.00    +0.000 HD
ENDBRANCH  12  13
ENDBRANCH   6   7
ENDBRANCH   5   6
ENDBRANCH   2   5
BRANCH   3  19
ATOM     19  C   UNL     1       4.975   6.794  17.443  0.00  0.00    +0.000 C 
BRANCH  19  20
ATOM     20  C   UNL     1       4.820   5.735  16.319  0.00  0.00    +0.000 C 
BRANCH  20  21
ATOM     21  O   UNL     1       5.481   6.149  15.118  0.00  0.00    +0.000 OA
ATOM     22  H   UNL     1       5.233   5.554  14.385  0.00  0.00    +0.000 HD
ENDBRANCH  20  21
BRANCH  20  23
ATOM     23  C   UNL     1       5.503   4.412  16.748  0.00  0.00    +0.000 C 
BRANCH  23  24
ATOM     24  N   UNL     1       4.694   3.452  17.522  0.00  0.00    +0.000 NA
ATOM     25  C   UNL     1       3.251   3.560  17.173  0.00  0.00    +0.000 C 
ATOM     26  C   UNL     1       2.513   3.468  18.471  0.00  0.00    +0.000 A 
ATOM     27  C   UNL     1       1.180   3.674  18.762  0.00  0.00    +0.000 A 
ATOM     28  C   UNL     1       0.757   3.477  20.080  0.00  0.00    +0.000 A 
ATOM     29  C   UNL     1       1.651   3.013  21.061  0.00  0.00    +0.000 A 
ATOM     30  C   UNL     1       3.009   2.889  20.774  0.00  0.00    +0.000 A 
ATOM     31  C   UNL     1       3.419   3.201  19.492  0.00  0.00    +0.000 A 
ATOM     32  C   UNL     1       4.771   3.598  18.993  0.00  0.00    +0.000 C 
ENDBRANCH  23  24
ENDBRANCH  20  23
ENDBRANCH  19  20
ENDBRANCH   3  19
TORSDOF 9
ENDMDL
MODEL 5
REMARK VINA RESULT:      -7.9      5.907     10.128
REMARK  Name = 
REMARK  9 active torsions:
REMARK  status: ('A' for Active; 'I' for Inactive)
REMARK    1  A    between atoms: C_2  and  C_3
REMARK    2  A    between atoms: C_3  and  O_4
REMARK    3  A    between atoms: O_4  and  C_5
REMARK    4  A    between atoms: C_10  and  C_11
REMARK    5  A    between atoms: N_16  and  C_17
REMARK    6  A    between atoms: C_17  and  C_18
REMARK    7  A    between atoms: C_18  and  O_19
REMARK    8  A    between atoms: C_18  and  C_20
REMARK    9  A    between atoms: C_20  and  N_21
REMARK                            x       y       z     vdW  Elec       q    Type
REMARK                         _______ _______ _______ _____ _____    ______ ____
ROOT
ATOM      1  O   UNL     1       1.682   7.929  19.747  0.00  0.00    +0.000 OA
ATOM      2  C   UNL     1       2.230   8.026  18.649  0.00  0.00    +0.000 C 
ATOM      3  N   UNL     1       1.969   9.047  17.765  0.00  0.00    +0.000 N 
ATOM      4  H   UNL     1       2.629   9.160  17.003  0.00  0.00    +0.000 HD
ENDROOT
BRANCH   2   5
ATOM      5  C   UNL     1       3.351   7.068  18.252  0.00  0.00    +0.000 C 
BRANCH   5   6
ATOM      6  O   UNL     1       3.590   6.008  19.168  0.00  0.00    +0.000 OA
BRANCH   6   7
ATOM      7  C   UNL     1       3.103   4.781  18.762  0.00  0.00    +0.000 A 
ATOM      8  C   UNL     1       1.759   4.407  18.950  0.00  0.00    +0.000 A 
ATOM      9  C   UNL     1       1.282   3.142  18.582  0.00  0.00    +0.000 A 
ATOM     10  C   UNL     1       2.149   2.237  18.002  0.00  0.00    +0.000 A 
ATOM     11  C   UNL     1       3.465   2.607  17.747  0.00  0.00    +0.000 A 
ATOM     12  C   UNL     1       3.970   3.879  18.111  0.00  0.00    +0.000 A 
BRANCH  12  13
ATOM     13  C   UNL     1       5.375   4.165  17.789  0.00  0.00    +0.000 A 
ATOM     14  C   UNL     1       5.999   4.345  16.523  0.00  0.00    +0.000 A 
ATOM     15  C   UNL     1       7.333   4.516  16.780  0.00  0.00    +0.000 A 
ATOM     16  N   UNL     1       7.463   4.429  18.129  0.00  0.00    +0.000 N 
ATOM     17  N   UNL     1       6.298   4.234  18.766  0.00  0.00    +0.000 NA
ATOM     18  H   UNL     1       8.303   4.490  18.694  0.00  0.00    +0.000 HD
ENDBRANCH  12  13
ENDBRANCH   6   7
ENDBRANCH   5   6
ENDBRANCH   2   5
BRANCH   3  19
ATOM     19  C   UNL     1       1.137  10.207  18.092  0.00  0.00    +0.000 C 
BRANCH  19  20
ATOM     20  C   UNL     1       1.883  11.494  18.537  0.00  0.00    +0.000 C 
BRANCH  20  21
ATOM     21  O   UNL     1       2.366  12.233  17.410  0.00  0.00    +0.000 OA
ATOM     22  H   UNL     1       2.018  11.840  16.587  0.00  0.00    +0.000 HD
ENDBRANCH  20  21
BRANCH  20  23
ATOM     23  C   UNL     1       0.903  12.437  19.279  0.00  0.00    +0.000 C 
BRANCH  23  24
ATOM     24  N   UNL     1      -0.230  11.814  19.988  0.00  0.00    +0.000 NA
ATOM     25  C   UNL     1      -1.510  12.504  19.673  0.00  0.00    +0.000 C 
ATOM     26  C   UNL     1      -2.245  12.609  20.971  0.00  0.00    +0.000 A 
ATOM     27  C   UNL     1      -3.396  13.297  21.299  0.00  0.00    +0.000 A 
ATOM     28  C   UNL     1      -3.882  13.179  22.604  0.00  0.00    +0.000 A 
ATOM     29  C   UNL     1      -3.256  12.327  23.532  0.00  0.00    +0.000 A 
ATOM     30  C   UNL     1      -2.051  11.704  23.214  0.00  0.00    +0.000 A 
ATOM     31  C   UNL     1      -1.531  11.930  21.953  0.00  0.00    +0.000 A 
ATOM     32  C   UNL     1      -0.124  11.803  21.465  0.00  0.00    +0.000 C 
ENDBRANCH  23  24
ENDBRANCH  20  23
ENDBRANCH  19  20
ENDBRANCH   3  19
TORSDOF 9
ENDMDL
MODEL 6
REMARK VINA RESULT:      -7.8      6.180     10.255
REMARK  Name = 
REMARK  9 active torsions:
REMARK  status: ('A' for Active; 'I' for Inactive)
REMARK    1  A    between atoms: C_2  and  C_3
REMARK    2  A    between atoms: C_3  and  O_4
REMARK    3  A    between atoms: O_4  and  C_5
REMARK    4  A    between atoms: C_10  and  C_11
REMARK    5  A    between atoms: N_16  and  C_17
REMARK    6  A    between atoms: C_17  and  C_18
REMARK    7  A    between atoms: C_18  and  O_19
REMARK    8  A    between atoms: C_18  and  C_20
REMARK    9  A    between atoms: C_20  and  N_21
REMARK                            x       y       z     vdW  Elec       q    Type
REMARK                         _______ _______ _______ _____ _____    ______ ____
ROOT
ATOM      1  O   UNL     1       2.786   8.830  17.157  0.00  0.00    +0.000 OA
ATOM      2  C   UNL     1       2.231   8.376  18.156  0.00  0.00    +0.000 C 
ATOM      3  N   UNL     1       1.495   9.150  19.025  0.00  0.00    +0.000 N 
ATOM      4  H   UNL     1       0.900   8.650  19.676  0.00  0.00    +0.000 HD
ENDROOT
BRANCH   2   5
ATOM      5  C   UNL     1       2.217   6.873  18.425  0.00  0.00    +0.000 C 
BRANCH   5   6
ATOM      6  O   UNL     1       3.235   6.409  19.302  0.00  0.00    +0.000 OA
BRANCH   6   7
ATOM      7  C   UNL     1       3.006   5.154  19.830  0.00  0.00    +0.000 A 
ATOM      8  C   UNL     1       1.915   4.884  20.678  0.00  0.00    +0.000 A 
ATOM      9  C   UNL     1       1.716   3.621  21.252  0.00  0.00    +0.000 A 
ATOM     10  C   UNL     1       2.605   2.603  20.967  0.00  0.00    +0.000 A 
ATOM     11  C   UNL     1       3.652   2.828  20.081  0.00  0.00    +0.000 A 
ATOM     12  C   UNL     1       3.874   4.096  19.490  0.00  0.00    +0.000 A 
BRANCH  12  13
ATOM     13  C   UNL     1       5.009   4.220  18.565  0.00  0.00    +0.000 A 
ATOM     14  C   UNL     1       5.039   4.129  17.145  0.00  0.00    +0.000 A 
ATOM     15  C   UNL     1       6.355   4.246  16.786  0.00  0.00    +0.000 A 
ATOM     16  N   UNL     1       7.043   4.389  17.948  0.00  0.00    +0.000 N 
ATOM     17  N   UNL     1       6.258   4.394  19.036  0.00  0.00    +0.000 NA
ATOM     18  H   UNL     1       8.042   4.489  18.089  0.00  0.00    +0.000 HD
ENDBRANCH  12  13
ENDBRANCH   6   7
ENDBRANCH   5   6
ENDBRANCH   2   5
BRANCH   3  19
ATOM     19  C   UNL     1       1.163  10.554  18.775  0.00  0.00    +0.000 C 
BRANCH  19  20
ATOM     20  C   UNL     1       0.117  11.200  19.722  0.00  0.00    +0.000 C 
BRANCH  20  21
ATOM     21  O   UNL     1      -1.215  11.017  19.231  0.00  0.00    +0.000 OA
ATOM     22  H   UNL     1      -1.786  11.741  19.552  0.00  0.00    +0.000 HD
ENDBRANCH  20  21
BRANCH  20  23
ATOM     23  C   UNL     1       0.162  10.502  21.105  0.00  0.00    +0.000 C 
BRANCH  23  24
ATOM     24  N   UNL     1      -0.115  11.333  22.292  0.00  0.00    +0.000 NA
ATOM     25  C   UNL     1      -1.335  10.866  23.004  0.00  0.00    +0.000 C 
ATOM     26  C   UNL     1      -2.080  12.106  23.386  0.00  0.00    +0.000 A 
ATOM     27  C   UNL     1      -3.347  12.266  23.910  0.00  0.00    +0.000 A 
ATOM     28  C   UNL     1      -3.774  13.563  24.210  0.00  0.00    +0.000 A 
ATOM     29  C   UNL     1      -2.910  14.662  24.047  0.00  0.00    +0.000 A 
ATOM     30  C   UNL     1      -1.666  14.495  23.440  0.00  0.00    +0.000 A 
ATOM     31  C   UNL     1      -1.315  13.218  23.049  0.00  0.00    +0.000 A 
ATOM     32  C   UNL     1      -0.324  12.773  22.023  0.00  0.00    +0.000 C 
ENDBRANCH  23  24
ENDBRANCH  20  23
ENDBRANCH  19  20
ENDBRANCH   3  19
TORSDOF 9
ENDMDL
MODEL 7
REMARK VINA RESULT:      -7.8      6.284     10.583
REMARK  Name = 
REMARK  9 active torsions:
REMARK  status: ('A' for Active; 'I' for Inactive)
REMARK    1  A    between atoms: C_2  and  C_3
REMARK    2  A    between atoms: C_3  and  O_4
REMARK    3  A    between atoms: O_4  and  C_5
REMARK    4  A    between atoms: C_10  and  C_11
REMARK    5  A    between atoms: N_16  and  C_17
REMARK    6  A    between atoms: C_17  and  C_18
REMARK    7  A    between atoms: C_18  and  O_19
REMARK    8  A    between atoms: C_18  and  C_20
REMARK    9  A    between atoms: C_20  and  N_21
REMARK                            x       y       z     vdW  Elec       q    Type
REMARK                         _______ _______ _______ _____ _____    ______ ____
ROOT
ATOM      1  O   UNL     1       2.628   8.732  17.465  0.00  0.00    +0.000 OA
ATOM      2  C   UNL     1       2.359   8.200  18.541  0.00  0.00    +0.000 C 
ATOM      3  N   UNL     1       1.522   8.768  19.473  0.00  0.00    +0.000 N 
ATOM      4  H   UNL     1       1.191   8.156  20.210  0.00  0.00    +0.000 HD
ENDROOT
BRANCH   2   5
ATOM      5  C   UNL     1       2.847   6.787  18.854  0.00  0.00    +0.000 C 
BRANCH   5   6
ATOM      6  O   UNL     1       2.995   5.937  17.725  0.00  0.00    +0.000 OA
BRANCH   6   7
ATOM      7  C   UNL     1       2.754   4.601  17.979  0.00  0.00    +0.000 A 
ATOM      8  C   UNL     1       1.454   4.098  18.177  0.00  0.00    +0.000 A 
ATOM      9  C   UNL     1       1.218   2.752  18.485  0.00  0.00    +0.000 A 
ATOM     10  C   UNL     1       2.289   1.884  18.581  0.00  0.00    +0.000 A 
ATOM     11  C   UNL     1       3.576   2.345  18.325  0.00  0.00    +0.000 A 
ATOM     12  C   UNL     1       3.838   3.701  18.014  0.00  0.00    +0.000 A 
BRANCH  12  13
ATOM     13  C   UNL     1       5.236   4.076  17.758  0.00  0.00    +0.000 A 
ATOM     14  C   UNL     1       5.895   4.339  16.525  0.00  0.00    +0.000 A 
ATOM     15  C   UNL     1       7.207   4.573  16.839  0.00  0.00    +0.000 A 
ATOM     16  N   UNL     1       7.292   4.441  18.188  0.00  0.00    +0.000 N 
ATOM     17  N   UNL     1       6.118   4.158  18.772  0.00  0.00    +0.000 NA
ATOM     18  H   UNL     1       8.106   4.526  18.787  0.00  0.00    +0.000 HD
ENDBRANCH  12  13
ENDBRANCH   6   7
ENDBRANCH   5   6
ENDBRANCH   2   5
BRANCH   3  19
ATOM     19  C   UNL     1       0.741   9.982  19.226  0.00  0.00    +0.000 C 
BRANCH  19  20
ATOM     20  C   UNL     1      -0.304  10.369  20.307  0.00  0.00    +0.000 C 
BRANCH  20  21
ATOM     21  O   UNL     1      -0.389   9.371  21.330  0.00  0.00    +0.000 OA
ATOM     22  H   UNL     1      -0.945   9.699  22.063  0.00  0.00    +0.000 HD
ENDBRANCH  20  21
BRANCH  20  23
ATOM     23  C   UNL     1       0.139  11.673  21.018  0.00  0.00    +0.000 C 
BRANCH  23  24
ATOM     24  N   UNL     1      -0.918  12.629  21.398  0.00  0.00    +0.000 NA
ATOM     25  C   UNL     1      -1.225  12.544  22.851  0.00  0.00    +0.000 C 
ATOM     26  C   UNL     1      -2.715  12.622  22.956  0.00  0.00    +0.000 A 
ATOM     27  C   UNL     1      -3.551  12.427  24.038  0.00  0.00    +0.000 A 
ATOM     28  C   UNL     1      -4.924  12.606  23.847  0.00  0.00    +0.000 A 
ATOM     29  C   UNL     1      -5.428  13.043  22.609  0.00  0.00    +0.000 A 
ATOM     30  C   UNL     1      -4.584  13.156  21.505  0.00  0.00    +0.000 A 
ATOM     31  C   UNL     1      -3.248  12.861  21.694  0.00  0.00    +0.000 A 
ATOM     32  C   UNL     1      -2.211  12.457  20.697  0.00  0.00    +0.000 C 
ENDBRANCH  23  24
ENDBRANCH  20  23
ENDBRANCH  19  20
ENDBRANCH   3  19
TORSDOF 9
ENDMDL
MODEL 8
REMARK VINA RESULT:      -7.7      6.009      9.553
REMARK  Name = 
REMARK  9 active torsions:
REMARK  status: ('A' for Active; 'I' for Inactive)
REMARK    1  A    between atoms: C_2  and  C_3
REMARK    2  A    between atoms: C_3  and  O_4
REMARK    3  A    between atoms: O_4  and  C_5
REMARK    4  A    between atoms: C_10  and  C_11
REMARK    5  A    between atoms: N_16  and  C_17
REMARK    6  A    between atoms: C_17  and  C_18
REMARK    7  A    between atoms: C_18  and  O_19
REMARK    8  A    between atoms: C_18  and  C_20
REMARK    9  A    between atoms: C_20  and  N_21
REMARK                            x       y       z     vdW  Elec       q    Type
REMARK                         _______ _______ _______ _____ _____    ______ ____
ROOT
ATOM      1  O   UNL     1       1.976   5.689  19.922  0.00  0.00    +0.000 OA
ATOM      2  C   UNL     1       2.358   6.742  19.414  0.00  0.00    +0.000 C 
ATOM      3  N   UNL     1       1.965   7.982  19.863  0.00  0.00    +0.000 N 
ATOM      4  H   UNL     1       2.506   8.772  19.530  0.00  0.00    +0.000 HD
ENDROOT
BRANCH   2   5
ATOM      5  C   UNL     1       3.416   6.736  18.312  0.00  0.00    +0.000 C 
BRANCH   5   6
ATOM      6  O   UNL     1       4.547   5.913  18.568  0.00  0.00    +0.000 OA
BRANCH   6   7
ATOM      7  C   UNL     1       5.121   5.363  17.439  0.00  0.00    +0.000 A 
ATOM      8  C   UNL     1       6.135   6.020  16.716  0.00  0.00    +0.000 A 
ATOM      9  C   UNL     1       6.678   5.480  15.543  0.00  0.00    +0.000 A 
ATOM     10  C   UNL     1       6.220   4.259  15.087  0.00  0.00    +0.000 A 
ATOM     11  C   UNL     1       5.266   3.562  15.820  0.00  0.00    +0.000 A 
ATOM     12  C   UNL     1       4.701   4.088  17.007  0.00  0.00    +0.000 A 
BRANCH  12  13
ATOM     13  C   UNL     1       3.705   3.263  17.703  0.00  0.00    +0.000 A 
ATOM     14  C   UNL     1       3.829   2.500  18.898  0.00  0.00    +0.000 A 
ATOM     15  C   UNL     1       2.628   1.865  19.069  0.00  0.00    +0.000 A 
ATOM     16  N   UNL     1       1.858   2.242  18.015  0.00  0.00    +0.000 N 
ATOM     17  N   UNL     1       2.473   3.097  17.184  0.00  0.00    +0.000 NA
ATOM     18  H   UNL     1       0.910   1.966  17.789  0.00  0.00    +0.000 HD
ENDBRANCH  12  13
ENDBRANCH   6   7
ENDBRANCH   5   6
ENDBRANCH   2   5
BRANCH   3  19
ATOM     19  C   UNL     1       1.182   8.188  21.083  0.00  0.00    +0.000 C 
BRANCH  19  20
ATOM     20  C   UNL     1       0.434   9.543  21.208  0.00  0.00    +0.000 C 
BRANCH  20  21
ATOM     21  O   UNL     1       0.529  10.071  22.535  0.00  0.00    +0.000 OA
ATOM     22  H   UNL     1      -0.264  10.604  22.734  0.00  0.00    +0.000 HD
ENDBRANCH  20  21
BRANCH  20  23
ATOM     23  C   UNL     1       1.096  10.594  20.281  0.00  0.00    +0.000 C 
BRANCH  23  24
ATOM     24  N   UNL     1       0.325  11.042  19.106  0.00  0.00    +0.000 NA
ATOM     25  C   UNL     1      -0.854  11.852  19.512  0.00  0.00    +0.000 C 
ATOM     26  C   UNL     1      -1.980  11.395  18.639  0.00  0.00    +0.000 A 
ATOM     27  C   UNL     1      -3.329  11.680  18.691  0.00  0.00    +0.000 A 
ATOM     28  C   UNL     1      -4.155  11.133  17.703  0.00  0.00    +0.000 A 
ATOM     29  C   UNL     1      -3.612  10.375  16.650  0.00  0.00    +0.000 A 
ATOM     30  C   UNL     1      -2.262  10.027  16.656  0.00  0.00    +0.000 A 
ATOM     31  C   UNL     1      -1.491  10.486  17.706  0.00  0.00    +0.000 A 
ATOM     32  C   UNL     1      -0.199   9.960  18.243  0.00  0.00    +0.000 C 
ENDBRANCH  23  24
ENDBRANCH  20  23
ENDBRANCH  19  20
ENDBRANCH   3  19
TORSDOF 9
ENDMDL
MODEL 9
REMARK VINA RESULT:      -7.7      6.200     10.451
REMARK  Name = 
REMARK  9 active torsions:
REMARK  status: ('A' for Active; 'I' for Inactive)
REMARK    1  A    between atoms: C_2  and  C_3
REMARK    2  A    between atoms: C_3  and  O_4
REMARK    3  A    between atoms: O_4  and  C_5
REMARK    4  A    between atoms: C_10  and  C_11
REMARK    5  A    between atoms: N_16  and  C_17
REMARK    6  A    between atoms: C_17  and  C_18
REMARK    7  A    between atoms: C_18  and  O_19
REMARK    8  A    between atoms: C_18  and  C_20
REMARK    9  A    between atoms: C_20  and  N_21
REMARK                            x       y       z     vdW  Elec       q    Type
REMARK                         _______ _______ _______ _____ _____    ______ ____
ROOT
ATOM      1  O   UNL     1       3.003   7.693  17.966  0.00  0.00    +0.000 OA
ATOM      2  C   UNL     1       2.313   7.834  18.974  0.00  0.00    +0.000 C 
ATOM      3  N   UNL     1       1.530   8.943  19.202  0.00  0.00    +0.000 N 
ATOM      4  H   UNL     1       0.837   8.859  19.937  0.00  0.00    +0.000 HD
ENDROOT
BRANCH   2   5
ATOM      5  C   UNL     1       2.183   6.704  19.993  0.00  0.00    +0.000 C 
BRANCH   5   6
ATOM      6  O   UNL     1       3.149   5.669  19.871  0.00  0.00    +0.000 OA
BRANCH   6   7
ATOM      7  C   UNL     1       2.641   4.461  19.434  0.00  0.00    +0.000 A 
ATOM      8  C   UNL     1       1.347   4.024  19.775  0.00  0.00    +0.000 A 
ATOM      9  C   UNL     1       0.855   2.775  19.371  0.00  0.00    +0.000 A 
ATOM     10  C   UNL     1       1.654   1.953  18.601  0.00  0.00    +0.000 A 
ATOM     11  C   UNL     1       2.910   2.391  18.197  0.00  0.00    +0.000 A 
ATOM     12  C   UNL     1       3.429   3.648  18.594  0.00  0.00    +0.000 A 
BRANCH  12  13
ATOM     13  C   UNL     1       4.766   4.010  18.105  0.00  0.00    +0.000 A 
ATOM     14  C   UNL     1       5.190   4.362  16.793  0.00  0.00    +0.000 A 
ATOM     15  C   UNL     1       6.546   4.538  16.868  0.00  0.00    +0.000 A 
ATOM     16  N   UNL     1       6.880   4.289  18.161  0.00  0.00    +0.000 N 
ATOM     17  N   UNL     1       5.827   3.984  18.935  0.00  0.00    +0.000 NA
ATOM     18  H   UNL     1       7.795   4.303  18.597  0.00  0.00    +0.000 HD
ENDBRANCH  12  13
ENDBRANCH   6   7
ENDBRANCH   5   6
ENDBRANCH   2   5
BRANCH   3  19
ATOM     19  C   UNL     1       1.310   9.995  18.207  0.00  0.00    +0.000 C 
BRANCH  19  20
ATOM     20  C   UNL     1       0.883  11.386  18.749  0.00  0.00    +0.000 C 
BRANCH  20  21
ATOM     21  O   UNL     1       1.479  12.445  17.993  0.00  0.00    +0.000 OA
ATOM     22  H   UNL     1       0.942  13.255  18.084  0.00  0.00    +0.000 HD
ENDBRANCH  20  21
BRANCH  20  23
ATOM     23  C   UNL     1      -0.649  11.560  18.595  0.00  0.00    +0.000 C 
BRANCH  23  24
ATOM     24  N   UNL     1      -1.321  12.496  19.516  0.00  0.00    +0.000 NA
ATOM     25  C   UNL     1      -0.806  12.348  20.904  0.00  0.00    +0.000 C 
ATOM     26  C   UNL     1      -2.008  12.416  21.792  0.00  0.00    +0.000 A 
ATOM     27  C   UNL     1      -2.141  12.173  23.144  0.00  0.00    +0.000 A 
ATOM     28  C   UNL     1      -3.400  12.356  23.723  0.00  0.00    +0.000 A 
ATOM     29  C   UNL     1      -4.479  12.843  22.963  0.00  0.00    +0.000 A 
ATOM     30  C   UNL     1      -4.352  13.006  21.585  0.00  0.00    +0.000 A 
ATOM     31  C   UNL     1      -3.127  12.707  21.019  0.00  0.00    +0.000 A 
ATOM     32  C   UNL     1      -2.791  12.349  19.608  0.00  0.00    +0.000 C 
ENDBRANCH  23  24
ENDBRANCH  20  23
ENDBRANCH  19  20
ENDBRANCH   3  19
TORSDOF 9
ENDMDL
