MODEL 1
REMARK VINA RESULT:      -6.8      0.000      0.000
REMARK  Name = 
REMARK  4 active torsions:
REMARK  status: ('A' for Active; 'I' for Inactive)
REMARK    1  A    between atoms: C_1  and  C_2
REMARK    2  A    between atoms: C_2  and  N_3
REMARK    3  A    between atoms: C_2  and  C_4
REMARK    4  A    between atoms: C_6  and  C_7
REMARK                            x       y       z     vdW  Elec       q    Type
REMARK                         _______ _______ _______ _____ _____    ______ ____
ROOT
ATOM      1  C   UNL     1       6.436   4.884  18.448  0.00  0.00    +0.000 A 
ATOM      2  N   UNL     1       5.389   4.750  19.239  0.00  0.00    +0.000 NA
ATOM      3  C   UNL     1       4.429   4.107  18.491  0.00  0.00    +0.000 A 
ATOM      4  C   UNL     1       4.917   3.814  17.236  0.00  0.00    +0.000 A 
ATOM      5  N   UNL     1       6.192   4.307  17.225  0.00  0.00    +0.000 N 
ATOM      6  H   UNL     1       6.869   4.243  16.478  0.00  0.00    +0.000 HD
ENDROOT
BRANCH   3   7
ATOM      7  C   UNL     1       3.105   3.793  18.996  0.00  0.00    +0.000 A 
ATOM      8  C   UNL     1       2.648   4.294  20.223  0.00  0.00    +0.000 A 
ATOM      9  C   UNL     1       1.382   3.951  20.704  0.00  0.00    +0.000 A 
ATOM     10  C   UNL     1       0.559   3.107  19.961  0.00  0.00    +0.000 A 
ATOM     11  C   UNL     1       0.998   2.607  18.737  0.00  0.00    +0.000 A 
ATOM     12  C   UNL     1       2.266   2.945  18.259  0.00  0.00    +0.000 A 
ENDBRANCH   3   7
BRANCH   1  14
ATOM     13  C   UNL     1       7.819   6.961  18.214  0.00  0.00    +0.000 C 
ATOM     14  C   UNL     1       7.750   5.535  18.755  0.00  0.00    +0.000 C 
BRANCH  14  15
ATOM     15  N   UNL     1       7.976   5.528  20.208  0.00  0.00    +0.000 NA
ATOM     16  H   UNL     1       8.946   5.244  20.365  0.00  0.00    +0.000 HD
ATOM     17  H   UNL     1       7.414   4.786  20.622  0.00  0.00    +0.000 HD
ENDBRANCH  14  15
ENDBRANCH   1  14
TORSDOF 3
ENDMDL
MODEL 2
REMARK VINA RESULT:      -6.8      0.097      1.293
REMARK  Name = 
REMARK  4 active torsions:
REMARK  status: ('A' for Active; 'I' for Inactive)
REMARK    1  A    between atoms: C_1  and  C_2
REMARK    2  A    between atoms: C_2  and  N_3
REMARK    3  A    between atoms: C_2  and  C_4
REMARK    4  A    between atoms: C_6  and  C_7
REMARK                            x       y       z     vdW  Elec       q    Type
REMARK                         _______ _______ _______ _____ _____    ______ ____
ROOT
ATOM      1  C   UNL     1       6.488   4.847  18.483  0.00  0.00    +0.000 A 
ATOM      2  N   UNL     1       5.454   4.658  19.279  0.00  0.00    +0.000 NA
ATOM      3  C   UNL     1       4.492   4.042  18.511  0.00  0.00    +0.000 A 
ATOM      4  C   UNL     1       4.966   3.822  17.236  0.00  0.00    +0.000 A 
ATOM      5  N   UNL     1       6.234   4.333  17.235  0.00  0.00    +0.000 N 
ATOM      6  H   UNL     1       6.901   4.318  16.476  0.00  0.00    +0.000 HD
ENDROOT
BRANCH   3   7
ATOM      7  C   UNL     1       3.179   3.684  19.017  0.00  0.00    +0.000 A 
ATOM      8  C   UNL     1       2.326   2.828  18.307  0.00  0.00    +0.000 A 
ATOM      9  C   UNL     1       1.054   2.524  18.798  0.00  0.00    +0.000 A 
ATOM     10  C   UNL     1       0.624   3.069  20.007  0.00  0.00    +0.000 A 
ATOM     11  C   UNL     1       1.464   3.917  20.725  0.00  0.00    +0.000 A 
ATOM     12  C   UNL     1       2.733   4.226  20.231  0.00  0.00    +0.000 A 
ENDBRANCH   3   7
BRANCH   1  14
ATOM     13  C   UNL     1       7.869   6.928  18.277  0.00  0.00    +0.000 C 
ATOM     14  C   UNL     1       7.798   5.499  18.807  0.00  0.00    +0.000 C 
BRANCH  14  15
ATOM     15  N   UNL     1       8.011   5.480  20.261  0.00  0.00    +0.000 NA
ATOM     16  H   UNL     1       8.781   4.834  20.449  0.00  0.00    +0.000 HD
ATOM     17  H   UNL     1       7.197   5.058  20.705  0.00  0.00    +0.000 HD
ENDBRANCH  14  15
ENDBRANCH   1  14
TORSDOF 3
ENDMDL
MODEL 3
REMARK VINA RESULT:      -6.6      2.292      3.002
REMARK  Name = 
REMARK  4 active torsions:
REMARK  status: ('A' for Active; 'I' for Inactive)
REMARK    1  A    between atoms: C_1  and  C_2
REMARK    2  A    between atoms: C_2  and  N_3
REMARK    3  A    between atoms: C_2  and  C_4
REMARK    4  A    between atoms: C_6  and  C_7
REMARK                            x       y       z     vdW  Elec       q    Type
REMARK                         _______ _______ _______ _____ _____    ______ ____
ROOT
ATOM      1  C   UNL     1       5.474   4.706  16.077  0.00  0.00    +0.000 A 
ATOM      2  N   UNL     1       4.622   3.905  16.685  0.00  0.00    +0.000 NA
ATOM      3  C   UNL     1       3.831   4.715  17.468  0.00  0.00    +0.000 A 
ATOM      4  C   UNL     1       4.188   6.036  17.302  0.00  0.00    +0.000 A 
ATOM      5  N   UNL     1       5.227   6.015  16.413  0.00  0.00    +0.000 N 
ATOM      6  H   UNL     1       5.722   6.807  16.028  0.00  0.00    +0.000 HD
ENDROOT
BRANCH   3   7
ATOM      7  C   UNL     1       2.775   4.209  18.325  0.00  0.00    +0.000 A 
ATOM      8  C   UNL     1       2.059   3.048  18.003  0.00  0.00    +0.000 A 
ATOM      9  C   UNL     1       1.025   2.599  18.828  0.00  0.00    +0.000 A 
ATOM     10  C   UNL     1       0.699   3.304  19.985  0.00  0.00    +0.000 A 
ATOM     11  C   UNL     1       1.405   4.456  20.320  0.00  0.00    +0.000 A 
ATOM     12  C   UNL     1       2.436   4.909  19.492  0.00  0.00    +0.000 A 
ENDBRANCH   3   7
BRANCH   1  14
ATOM     13  C   UNL     1       6.028   3.955  13.750  0.00  0.00    +0.000 C 
ATOM     14  C   UNL     1       6.571   4.338  15.125  0.00  0.00    +0.000 C 
BRANCH  14  15
ATOM     15  N   UNL     1       7.517   5.457  15.008  0.00  0.00    +0.000 NA
ATOM     16  H   UNL     1       7.905   5.628  15.938  0.00  0.00    +0.000 HD
ATOM     17  H   UNL     1       6.997   6.302  14.778  0.00  0.00    +0.000 HD
ENDBRANCH  14  15
ENDBRANCH   1  14
TORSDOF 3
ENDMDL
MODEL 4
REMARK VINA RESULT:      -6.6      1.299      1.514
REMARK  Name = 
REMARK  4 active torsions:
REMARK  status: ('A' for Active; 'I' for Inactive)
REMARK    1  A    between atoms: C_1  and  C_2
REMARK    2  A    between atoms: C_2  and  N_3
REMARK    3  A    between atoms: C_2  and  C_4
REMARK    4  A    between atoms: C_6  and  C_7
REMARK                            x       y       z     vdW  Elec       q    Type
REMARK                         _______ _______ _______ _____ _____    ______ ____
ROOT
ATOM      1  C   UNL     1       5.866   4.548  17.472  0.00  0.00    +0.000 A 
ATOM      2  N   UNL     1       5.298   4.353  18.646  0.00  0.00    +0.000 NA
ATOM      3  C   UNL     1       4.033   3.879  18.382  0.00  0.00    +0.000 A 
ATOM      4  C   UNL     1       3.845   3.751  17.023  0.00  0.00    +0.000 A 
ATOM      5  N   UNL     1       5.017   4.173  16.459  0.00  0.00    +0.000 N 
ATOM      6  H   UNL     1       5.256   4.186  15.478  0.00  0.00    +0.000 HD
ENDROOT
BRANCH   3   7
ATOM      7  C   UNL     1       3.069   3.563  19.420  0.00  0.00    +0.000 A 
ATOM      8  C   UNL     1       3.437   2.862  20.577  0.00  0.00    +0.000 A 
ATOM      9  C   UNL     1       2.484   2.541  21.546  0.00  0.00    +0.000 A 
ATOM     10  C   UNL     1       1.154   2.920  21.371  0.00  0.00    +0.000 A 
ATOM     11  C   UNL     1       0.776   3.622  20.229  0.00  0.00    +0.000 A 
ATOM     12  C   UNL     1       1.727   3.938  19.256  0.00  0.00    +0.000 A 
ENDBRANCH   3   7
BRANCH   1  14
ATOM     13  C   UNL     1       7.455   6.460  17.794  0.00  0.00    +0.000 C 
ATOM     14  C   UNL     1       7.238   5.077  17.185  0.00  0.00    +0.000 C 
BRANCH  14  15
ATOM     15  N   UNL     1       8.246   4.132  17.687  0.00  0.00    +0.000 NA
ATOM     16  H   UNL     1       9.166   4.524  17.474  0.00  0.00    +0.000 HD
ATOM     17  H   UNL     1       8.190   3.274  17.140  0.00  0.00    +0.000 HD
ENDBRANCH  14  15
ENDBRANCH   1  14
TORSDOF 3
ENDMDL
MODEL 5
REMARK VINA RESULT:      -6.6      1.567      2.641
REMARK  Name = 
REMARK  4 active torsions:
REMARK  status: ('A' for Active; 'I' for Inactive)
REMARK    1  A    between atoms: C_1  and  C_2
REMARK    2  A    between atoms: C_2  and  N_3
REMARK    3  A    between atoms: C_2  and  C_4
REMARK    4  A    between atoms: C_6  and  C_7
REMARK                            x       y       z     vdW  Elec       q    Type
REMARK                         _______ _______ _______ _____ _____    ______ ____
ROOT
ATOM      1  C   UNL     1       5.972   4.236  16.865  0.00  0.00    +0.000 A 
ATOM      2  N   UNL     1       4.677   4.012  16.974  0.00  0.00    +0.000 NA
ATOM      3  C   UNL     1       4.419   3.928  18.323  0.00  0.00    +0.000 A 
ATOM      4  C   UNL     1       5.572   4.142  19.046  0.00  0.00    +0.000 A 
ATOM      5  N   UNL     1       6.548   4.341  18.108  0.00  0.00    +0.000 N 
ATOM      6  H   UNL     1       7.520   4.562  18.272  0.00  0.00    +0.000 HD
ENDROOT
BRANCH   3   7
ATOM      7  C   UNL     1       3.099   3.660  18.866  0.00  0.00    +0.000 A 
ATOM      8  C   UNL     1       2.238   2.725  18.275  0.00  0.00    +0.000 A 
ATOM      9  C   UNL     1       0.960   2.508  18.796  0.00  0.00    +0.000 A 
ATOM     10  C   UNL     1       0.532   3.220  19.916  0.00  0.00    +0.000 A 
ATOM     11  C   UNL     1       1.380   4.148  20.515  0.00  0.00    +0.000 A 
ATOM     12  C   UNL     1       2.656   4.370  19.991  0.00  0.00    +0.000 A 
ENDBRANCH   3   7
BRANCH   1  14
ATOM     13  C   UNL     1       5.950   4.134  14.361  0.00  0.00    +0.000 C 
ATOM     14  C   UNL     1       6.783   4.390  15.615  0.00  0.00    +0.000 C 
BRANCH  14  15
ATOM     15  N   UNL     1       7.372   5.736  15.572  0.00  0.00    +0.000 NA
ATOM     16  H   UNL     1       6.633   6.385  15.293  0.00  0.00    +0.000 HD
ATOM     17  H   UNL     1       8.054   5.770  14.815  0.00  0.00    +0.000 HD
ENDBRANCH  14  15
ENDBRANCH   1  14
TORSDOF 3
ENDMDL
MODEL 6
REMARK VINA RESULT:      -6.6      2.370      3.004
REMARK  Name = 
REMARK  4 active torsions:
REMARK  status: ('A' for Active; 'I' for Inactive)
REMARK    1  A    between atoms: C_1  and  C_2
REMARK    2  A    between atoms: C_2  and  N_3
REMARK    3  A    between atoms: C_2  and  C_4
REMARK    4  A    between atoms: C_6  and  C_7
REMARK                            x       y       z     vdW  Elec       q    Type
REMARK                         _______ _______ _______ _____ _____    ______ ____
ROOT
ATOM      1  C   UNL     1       5.651   4.950  15.807  0.00  0.00    +0.000 A 
ATOM      2  N   UNL     1       4.775   4.285  16.533  0.00  0.00    +0.000 NA
ATOM      3  C   UNL     1       4.117   5.227  17.291  0.00  0.00    +0.000 A 
ATOM      4  C   UNL     1       4.580   6.490  16.990  0.00  0.00    +0.000 A 
ATOM      5  N   UNL     1       5.548   6.299  16.044  0.00  0.00    +0.000 N 
ATOM      6  H   UNL     1       6.084   7.007  15.563  0.00  0.00    +0.000 HD
ENDROOT
BRANCH   3   7
ATOM      7  C   UNL     1       3.082   4.894  18.253  0.00  0.00    +0.000 A 
ATOM      8  C   UNL     1       2.986   5.552  19.487  0.00  0.00    +0.000 A 
ATOM      9  C   UNL     1       2.001   5.192  20.409  0.00  0.00    +0.000 A 
ATOM     10  C   UNL     1       1.099   4.173  20.105  0.00  0.00    +0.000 A 
ATOM     11  C   UNL     1       1.180   3.515  18.881  0.00  0.00    +0.000 A 
ATOM     12  C   UNL     1       2.168   3.871  17.960  0.00  0.00    +0.000 A 
ENDBRANCH   3   7
BRANCH   1  14
ATOM     13  C   UNL     1       5.960   3.865  13.569  0.00  0.00    +0.000 C 
ATOM     14  C   UNL     1       6.641   4.404  14.824  0.00  0.00    +0.000 C 
BRANCH  14  15
ATOM     15  N   UNL     1       7.612   5.451  14.470  0.00  0.00    +0.000 NA
ATOM     16  H   UNL     1       7.193   6.351  14.713  0.00  0.00    +0.000 HD
ATOM     17  H   UNL     1       7.715   5.471  13.456  0.00  0.00    +0.000 HD
ENDBRANCH  14  15
ENDBRANCH   1  14
TORSDOF 3
ENDMDL
MODEL 7
REMARK VINA RESULT:      -6.5      1.134      1.240
REMARK  Name = 
REMARK  4 active torsions:
REMARK  status: ('A' for Active; 'I' for Inactive)
REMARK    1  A    between atoms: C_1  and  C_2
REMARK    2  A    between atoms: C_2  and  N_3
REMARK    3  A    between atoms: C_2  and  C_4
REMARK    4  A    between atoms: C_6  and  C_7
REMARK                            x       y       z     vdW  Elec       q    Type
REMARK                         _______ _______ _______ _____ _____    ______ ____
ROOT
ATOM      1  C   UNL     1       6.801   4.975  18.328  0.00  0.00    +0.000 A 
ATOM      2  N   UNL     1       5.703   4.600  18.954  0.00  0.00    +0.000 NA
ATOM      3  C   UNL     1       4.881   4.063  17.989  0.00  0.00    +0.000 A 
ATOM      4  C   UNL     1       5.508   4.080  16.762  0.00  0.00    +0.000 A 
ATOM      5  N   UNL     1       6.727   4.655  16.993  0.00  0.00    +0.000 N 
ATOM      6  H   UNL     1       7.473   4.802  16.328  0.00  0.00    +0.000 HD
ENDROOT
BRANCH   3   7
ATOM      7  C   UNL     1       3.551   3.553  18.270  0.00  0.00    +0.000 A 
ATOM      8  C   UNL     1       3.356   2.362  18.983  0.00  0.00    +0.000 A 
ATOM      9  C   UNL     1       2.067   1.875  19.213  0.00  0.00    +0.000 A 
ATOM     10  C   UNL     1       0.960   2.576  18.736  0.00  0.00    +0.000 A 
ATOM     11  C   UNL     1       1.140   3.763  18.031  0.00  0.00    +0.000 A 
ATOM     12  C   UNL     1       2.429   4.248  17.796  0.00  0.00    +0.000 A 
ENDBRANCH   3   7
BRANCH   1  14
ATOM     13  C   UNL     1       8.087   7.116  18.529  0.00  0.00    +0.000 C 
ATOM     14  C   UNL     1       8.014   5.638  18.904  0.00  0.00    +0.000 C 
BRANCH  14  15
ATOM     15  N   UNL     1       8.014   5.481  20.366  0.00  0.00    +0.000 NA
ATOM     16  H   UNL     1       7.477   6.258  20.757  0.00  0.00    +0.000 HD
ATOM     17  H   UNL     1       8.964   5.617  20.709  0.00  0.00    +0.000 HD
ENDBRANCH  14  15
ENDBRANCH   1  14
TORSDOF 3
ENDMDL
MODEL 8
REMARK VINA RESULT:      -6.5      1.595      2.568
REMARK  Name = 
REMARK  4 active torsions:
REMARK  status: ('A' for Active; 'I' for Inactive)
REMARK    1  A    between atoms: C_1  and  C_2
REMARK    2  A    between atoms: C_2  and  N_3
REMARK    3  A    between atoms: C_2  and  C_4
REMARK    4  A    between atoms: C_6  and  C_7
REMARK                            x       y       z     vdW  Elec       q    Type
REMARK                         _______ _______ _______ _____ _____    ______ ____
ROOT
ATOM      1  C   UNL     1       6.023   4.362  16.460  0.00  0.00    +0.000 A 
ATOM      2  N   UNL     1       4.751   4.124  16.714  0.00  0.00    +0.000 NA
ATOM      3  C   UNL     1       4.591   4.326  18.066  0.00  0.00    +0.000 A 
ATOM      4  C   UNL     1       5.780   4.728  18.634  0.00  0.00    +0.000 A 
ATOM      5  N   UNL     1       6.677   4.752  17.603  0.00  0.00    +0.000 N 
ATOM      6  H   UNL     1       7.646   5.035  17.639  0.00  0.00    +0.000 HD
ENDROOT
BRANCH   3   7
ATOM      7  C   UNL     1       3.326   4.138  18.755  0.00  0.00    +0.000 A 
ATOM      8  C   UNL     1       3.031   4.814  19.947  0.00  0.00    +0.000 A 
ATOM      9  C   UNL     1       1.820   4.592  20.608  0.00  0.00    +0.000 A 
ATOM     10  C   UNL     1       0.892   3.696  20.082  0.00  0.00    +0.000 A 
ATOM     11  C   UNL     1       1.170   3.022  18.895  0.00  0.00    +0.000 A 
ATOM     12  C   UNL     1       2.383   3.239  18.237  0.00  0.00    +0.000 A 
ENDBRANCH   3   7
BRANCH   1  14
ATOM     13  C   UNL     1       5.768   4.053  13.986  0.00  0.00    +0.000 C 
ATOM     14  C   UNL     1       6.736   4.268  15.146  0.00  0.00    +0.000 C 
BRANCH  14  15
ATOM     15  N   UNL     1       7.533   5.485  14.929  0.00  0.00    +0.000 NA
ATOM     16  H   UNL     1       8.472   5.303  15.290  0.00  0.00    +0.000 HD
ATOM     17  H   UNL     1       7.161   6.227  15.520  0.00  0.00    +0.000 HD
ENDBRANCH  14  15
ENDBRANCH   1  14
TORSDOF 3
ENDMDL
MODEL 9
REMARK VINA RESULT:      -6.4      2.236      2.717
REMARK  Name = 
REMARK  4 active torsions:
REMARK  status: ('A' for Active; 'I' for Inactive)
REMARK    1  A    between atoms: C_1  and  C_2
REMARK    2  A    between atoms: C_2  and  N_3
REMARK    3  A    between atoms: C_2  and  C_4
REMARK    4  A    between atoms: C_6  and  C_7
REMARK                            x       y       z     vdW  Elec       q    Type
REMARK                         _______ _______ _______ _____ _____    ______ ____
ROOT
ATOM      1  C   UNL     1       5.410   4.655  16.488  0.00  0.00    +0.000 A 
ATOM      2  N   UNL     1       4.828   3.838  17.344  0.00  0.00    +0.000 NA
ATOM      3  C   UNL     1       3.882   4.589  18.003  0.00  0.00    +0.000 A 
ATOM      4  C   UNL     1       3.867   5.877  17.512  0.00  0.00    +0.000 A 
ATOM      5  N   UNL     1       4.837   5.902  16.548  0.00  0.00    +0.000 N 
ATOM      6  H   UNL     1       5.087   6.676  15.948  0.00  0.00    +0.000 HD
ENDROOT
BRANCH   3   7
ATOM      7  C   UNL     1       3.035   4.058  19.055  0.00  0.00    +0.000 A 
ATOM      8  C   UNL     1       1.693   4.443  19.182  0.00  0.00    +0.000 A 
ATOM      9  C   UNL     1       0.906   3.942  20.223  0.00  0.00    +0.000 A 
ATOM     10  C   UNL     1       1.452   3.050  21.144  0.00  0.00    +0.000 A 
ATOM     11  C   UNL     1       2.783   2.656  21.026  0.00  0.00    +0.000 A 
ATOM     12  C   UNL     1       3.571   3.160  19.989  0.00  0.00    +0.000 A 
ENDBRANCH   3   7
BRANCH   1  14
ATOM     13  C   UNL     1       6.007   4.002  14.143  0.00  0.00    +0.000 C 
ATOM     14  C   UNL     1       6.526   4.354  15.535  0.00  0.00    +0.000 C 
BRANCH  14  15
ATOM     15  N   UNL     1       7.438   5.505  15.465  0.00  0.00    +0.000 NA
ATOM     16  H   UNL     1       8.160   5.282  14.776  0.00  0.00    +0.000 HD
ATOM     17  H   UNL     1       7.934   5.583  16.351  0.00  0.00    +0.000 HD
ENDBRANCH  14  15
ENDBRANCH   1  14
TORSDOF 3
ENDMDL
