MODEL 1
REMARK VINA RESULT:      -7.3      0.000      0.000
REMARK  Name = 
REMARK  9 active torsions:
REMARK  status: ('A' for Active; 'I' for Inactive)
REMARK    1  A    between atoms: C_1  and  C_2
REMARK    2  A    between atoms: C_2  and  C_3
REMARK    3  A    between atoms: C_3  and  N_4
REMARK    4  A    between atoms: N_7  and  C_8
REMARK    5  A    between atoms: C_11  and  O_12
REMARK    6  A    between atoms: O_12  and  C_13
REMARK    7  A    between atoms: C_16  and  S_17
REMARK    8  A    between atoms: S_17  and  C_20
REMARK    9  A    between atoms: C_20  and  C_21
REMARK                            x       y       z     vdW  Elec       q    Type
REMARK                         _______ _______ _______ _____ _____    ______ ____
ROOT
ATOM      1  C   UNL     1       4.714   4.209  17.376  0.00  0.00    +0.000 A 
ATOM      2  C   UNL     1       5.222   4.942  18.447  0.00  0.00    +0.000 A 
ATOM      3  C   UNL     1       4.397   5.362  19.486  0.00  0.00    +0.000 A 
ATOM      4  C   UNL     1       3.021   5.150  19.420  0.00  0.00    +0.000 A 
ATOM      5  C   UNL     1       2.497   4.394  18.370  0.00  0.00    +0.000 A 
ATOM      6  C   UNL     1       3.341   3.931  17.347  0.00  0.00    +0.000 A 
ENDROOT
BRANCH   1  10
ATOM      7  N   UNL     1       6.656   3.814  14.317  0.00  0.00    +0.000 N 
ATOM      8  C   UNL     1       5.958   4.527  15.259  0.00  0.00    +0.000 C 
ATOM      9  O   UNL     1       5.756   5.727  15.120  0.00  0.00    +0.000 OA
ATOM     10  N   UNL     1       5.540   3.751  16.324  0.00  0.00    +0.000 N 
ATOM     11  H   UNL     1       6.810   2.826  14.430  0.00  0.00    +0.000 HD
ATOM     12  H   UNL     1       5.995   2.859  16.444  0.00  0.00    +0.000 HD
BRANCH   7  13
ATOM     13  C   UNL     1       7.189   4.491  13.148  0.00  0.00    +0.000 C 
BRANCH  13  15
ATOM     14  C   UNL     1       5.553   2.973  11.954  0.00  0.00    +0.000 C 
ATOM     15  C   UNL     1       6.845   3.766  11.847  0.00  0.00    +0.000 C 
ENDBRANCH  13  15
ENDBRANCH   7  13
ENDBRANCH   1  10
BRANCH   4  16
ATOM     16  O   UNL     1       2.146   5.681  20.348  0.00  0.00    +0.000 OA
BRANCH  16  17
ATOM     17  C   UNL     1       1.764   6.999  20.172  0.00  0.00    +0.000 A 
ATOM     18  C   UNL     1       1.970   7.691  18.970  0.00  0.00    +0.000 A 
ATOM     19  C   UNL     1       1.694   9.053  18.881  0.00  0.00    +0.000 A 
ATOM     20  C   UNL     1       1.120   9.704  19.973  0.00  0.00    +0.000 A 
ATOM     21  C   UNL     1       0.837   9.011  21.155  0.00  0.00    +0.000 A 
ATOM     22  C   UNL     1       1.167   7.652  21.255  0.00  0.00    +0.000 A 
BRANCH  20  23
ATOM     23  S   UNL     1       0.767  11.445  19.831  0.00  0.00    +0.000 S 
ATOM     24  O   UNL     1       1.180  12.067  21.072  0.00  0.00    +0.000 OA
ATOM     25  O   UNL     1       1.324  11.869  18.556  0.00  0.00    +0.000 OA
BRANCH  23  26
ATOM     26  C   UNL     1      -1.018  11.491  19.721  0.00  0.00    +0.000 C 
BRANCH  26  27
ATOM     27  C   UNL     1      -1.360  11.495  18.263  0.00  0.00    +0.000 C 
ATOM     28  C   UNL     1      -1.777  10.202  17.613  0.00  0.00    +0.000 C 
ATOM     29  S   UNL     1      -3.024  11.375  17.810  0.00  0.00    +0.000 S 
ENDBRANCH  26  27
ENDBRANCH  23  26
ENDBRANCH  20  23
ENDBRANCH  16  17
ENDBRANCH   4  16
TORSDOF 8
ENDMDL
MODEL 2
REMARK VINA RESULT:      -7.1      1.075      1.567
REMARK  Name = 
REMARK  9 active torsions:
REMARK  status: ('A' for Active; 'I' for Inactive)
REMARK    1  A    between atoms: C_1  and  C_2
REMARK    2  A    between atoms: C_2  and  C_3
REMARK    3  A    between atoms: C_3  and  N_4
REMARK    4  A    between atoms: N_7  and  C_8
REMARK    5  A    between atoms: C_11  and  O_12
REMARK    6  A    between atoms: O_12  and  C_13
REMARK    7  A    between atoms: C_16  and  S_17
REMARK    8  A    between atoms: S_17  and  C_20
REMARK    9  A    between atoms: C_20  and  C_21
REMARK                            x       y       z     vdW  Elec       q    Type
REMARK                         _______ _______ _______ _____ _____    ______ ____
ROOT
ATOM      1  C   UNL     1       5.414   4.133  16.917  0.00  0.00    +0.000 A 
ATOM      2  C   UNL     1       5.899   5.008  17.887  0.00  0.00    +0.000 A 
ATOM      3  C   UNL     1       5.121   5.369  18.984  0.00  0.00    +0.000 A 
ATOM      4  C   UNL     1       3.796   4.946  19.073  0.00  0.00    +0.000 A 
ATOM      5  C   UNL     1       3.301   4.048  18.127  0.00  0.00    +0.000 A 
ATOM      6  C   UNL     1       4.106   3.648  17.047  0.00  0.00    +0.000 A 
ENDROOT
BRANCH   1  10
ATOM      7  N   UNL     1       6.724   3.347  13.608  0.00  0.00    +0.000 N 
ATOM      8  C   UNL     1       5.846   3.927  14.488  0.00  0.00    +0.000 C 
ATOM      9  O   UNL     1       4.867   4.545  14.087  0.00  0.00    +0.000 OA
ATOM     10  N   UNL     1       6.198   3.733  15.810  0.00  0.00    +0.000 N 
ATOM     11  H   UNL     1       7.521   2.830  13.942  0.00  0.00    +0.000 HD
ATOM     12  H   UNL     1       7.148   3.448  15.992  0.00  0.00    +0.000 HD
BRANCH   7  13
ATOM     13  C   UNL     1       6.509   3.484  12.178  0.00  0.00    +0.000 C 
BRANCH  13  15
ATOM     14  C   UNL     1       6.398   1.180  11.136  0.00  0.00    +0.000 C 
ATOM     15  C   UNL     1       5.607   2.385  11.616  0.00  0.00    +0.000 C 
ENDBRANCH  13  15
ENDBRANCH   7  13
ENDBRANCH   1  10
BRANCH   4  16
ATOM     16  O   UNL     1       2.940   5.401  20.059  0.00  0.00    +0.000 OA
BRANCH  16  17
ATOM     17  C   UNL     1       2.410   6.669  19.896  0.00  0.00    +0.000 A 
ATOM     18  C   UNL     1       1.743   7.347  20.927  0.00  0.00    +0.000 A 
ATOM     19  C   UNL     1       1.109   8.561  20.679  0.00  0.00    +0.000 A 
ATOM     20  C   UNL     1       1.224   9.146  19.419  0.00  0.00    +0.000 A 
ATOM     21  C   UNL     1       1.951   8.519  18.401  0.00  0.00    +0.000 A 
ATOM     22  C   UNL     1       2.542   7.271  18.641  0.00  0.00    +0.000 A 
BRANCH  20  23
ATOM     23  S   UNL     1       0.411  10.706  19.130  0.00  0.00    +0.000 S 
ATOM     24  O   UNL     1      -0.350  11.017  20.322  0.00  0.00    +0.000 OA
ATOM     25  O   UNL     1       1.435  11.611  18.633  0.00  0.00    +0.000 OA
BRANCH  23  26
ATOM     26  C   UNL     1      -0.721  10.333  17.796  0.00  0.00    +0.000 C 
BRANCH  26  27
ATOM     27  C   UNL     1      -2.103  10.411  18.368  0.00  0.00    +0.000 C 
ATOM     28  C   UNL     1      -2.981  11.572  17.981  0.00  0.00    +0.000 C 
ATOM     29  S   UNL     1      -3.439  10.041  17.337  0.00  0.00    +0.000 S 
ENDBRANCH  26  27
ENDBRANCH  23  26
ENDBRANCH  20  23
ENDBRANCH  16  17
ENDBRANCH   4  16
TORSDOF 8
ENDMDL
MODEL 3
REMARK VINA RESULT:      -7.0      1.277      1.814
REMARK  Name = 
REMARK  9 active torsions:
REMARK  status: ('A' for Active; 'I' for Inactive)
REMARK    1  A    between atoms: C_1  and  C_2
REMARK    2  A    between atoms: C_2  and  C_3
REMARK    3  A    between atoms: C_3  and  N_4
REMARK    4  A    between atoms: N_7  and  C_8
REMARK    5  A    between atoms: C_11  and  O_12
REMARK    6  A    between atoms: O_12  and  C_13
REMARK    7  A    between atoms: C_16  and  S_17
REMARK    8  A    between atoms: S_17  and  C_20
REMARK    9  A    between atoms: C_20  and  C_21
REMARK                            x       y       z     vdW  Elec       q    Type
REMARK                         _______ _______ _______ _____ _____    ______ ____
ROOT
ATOM      1  C   UNL     1       4.627   4.141  17.414  0.00  0.00    +0.000 A 
ATOM      2  C   UNL     1       5.223   4.901  18.418  0.00  0.00    +0.000 A 
ATOM      3  C   UNL     1       4.469   5.431  19.461  0.00  0.00    +0.000 A 
ATOM      4  C   UNL     1       3.081   5.304  19.459  0.00  0.00    +0.000 A 
ATOM      5  C   UNL     1       2.469   4.524  18.478  0.00  0.00    +0.000 A 
ATOM      6  C   UNL     1       3.239   3.949  17.453  0.00  0.00    +0.000 A 
ENDROOT
BRANCH   1  10
ATOM      7  N   UNL     1       6.272   3.371  14.253  0.00  0.00    +0.000 N 
ATOM      8  C   UNL     1       5.611   4.182  15.142  0.00  0.00    +0.000 C 
ATOM      9  O   UNL     1       5.286   5.322  14.835  0.00  0.00    +0.000 OA
ATOM     10  N   UNL     1       5.379   3.571  16.360  0.00  0.00    +0.000 N 
ATOM     11  H   UNL     1       6.527   2.431  14.506  0.00  0.00    +0.000 HD
ATOM     12  H   UNL     1       5.925   2.749  16.569  0.00  0.00    +0.000 HD
BRANCH   7  13
ATOM     13  C   UNL     1       6.616   3.876  12.936  0.00  0.00    +0.000 C 
BRANCH  13  15
ATOM     14  C   UNL     1       5.797   1.888  11.600  0.00  0.00    +0.000 C 
ATOM     15  C   UNL     1       5.658   3.380  11.852  0.00  0.00    +0.000 C 
ENDBRANCH  13  15
ENDBRANCH   7  13
ENDBRANCH   1  10
BRANCH   4  16
ATOM     16  O   UNL     1       2.280   5.942  20.387  0.00  0.00    +0.000 OA
BRANCH  16  17
ATOM     17  C   UNL     1       1.901   7.242  20.103  0.00  0.00    +0.000 A 
ATOM     18  C   UNL     1       1.292   8.076  21.053  0.00  0.00    +0.000 A 
ATOM     19  C   UNL     1       0.805   9.327  20.686  0.00  0.00    +0.000 A 
ATOM     20  C   UNL     1       1.014   9.785  19.385  0.00  0.00    +0.000 A 
ATOM     21  C   UNL     1       1.688   8.996  18.446  0.00  0.00    +0.000 A 
ATOM     22  C   UNL     1       2.127   7.716  18.808  0.00  0.00    +0.000 A 
BRANCH  20  23
ATOM     23  S   UNL     1       0.389  11.395  18.943  0.00  0.00    +0.000 S 
ATOM     24  O   UNL     1       1.519  12.185  18.501  0.00  0.00    +0.000 OA
ATOM     25  O   UNL     1      -0.752  11.162  18.073  0.00  0.00    +0.000 OA
BRANCH  23  26
ATOM     26  C   UNL     1      -0.201  12.043  20.502  0.00  0.00    +0.000 C 
BRANCH  26  27
ATOM     27  C   UNL     1      -1.341  12.962  20.184  0.00  0.00    +0.000 C 
ATOM     28  C   UNL     1      -2.674  12.715  20.841  0.00  0.00    +0.000 C 
ATOM     29  S   UNL     1      -1.824  14.115  21.377  0.00  0.00    +0.000 S 
ENDBRANCH  26  27
ENDBRANCH  23  26
ENDBRANCH  20  23
ENDBRANCH  16  17
ENDBRANCH   4  16
TORSDOF 8
ENDMDL
MODEL 4
REMARK VINA RESULT:      -7.0      0.651      1.147
REMARK  Name = 
REMARK  9 active torsions:
REMARK  status: ('A' for Active; 'I' for Inactive)
REMARK    1  A    between atoms: C_1  and  C_2
REMARK    2  A    between atoms: C_2  and  C_3
REMARK    3  A    between atoms: C_3  and  N_4
REMARK    4  A    between atoms: N_7  and  C_8
REMARK    5  A    between atoms: C_11  and  O_12
REMARK    6  A    between atoms: O_12  and  C_13
REMARK    7  A    between atoms: C_16  and  S_17
REMARK    8  A    between atoms: S_17  and  C_20
REMARK    9  A    between atoms: C_20  and  C_21
REMARK                            x       y       z     vdW  Elec       q    Type
REMARK                         _______ _______ _______ _____ _____    ______ ____
ROOT
ATOM      1  C   UNL     1       4.372   4.312  17.294  0.00  0.00    +0.000 A 
ATOM      2  C   UNL     1       2.981   4.259  17.361  0.00  0.00    +0.000 A 
ATOM      3  C   UNL     1       2.280   4.981  18.323  0.00  0.00    +0.000 A 
ATOM      4  C   UNL     1       2.966   5.684  19.311  0.00  0.00    +0.000 A 
ATOM      5  C   UNL     1       4.357   5.771  19.245  0.00  0.00    +0.000 A 
ATOM      6  C   UNL     1       5.059   5.081  18.243  0.00  0.00    +0.000 A 
ENDROOT
BRANCH   1  10
ATOM      7  N   UNL     1       6.135   3.235  14.291  0.00  0.00    +0.000 N 
ATOM      8  C   UNL     1       5.555   4.158  15.124  0.00  0.00    +0.000 C 
ATOM      9  O   UNL     1       5.476   5.337  14.802  0.00  0.00    +0.000 OA
ATOM     10  N   UNL     1       5.101   3.607  16.308  0.00  0.00    +0.000 N 
ATOM     11  H   UNL     1       6.188   2.266  14.555  0.00  0.00    +0.000 HD
ATOM     12  H   UNL     1       5.464   2.700  16.557  0.00  0.00    +0.000 HD
BRANCH   7  13
ATOM     13  C   UNL     1       6.688   3.660  13.017  0.00  0.00    +0.000 C 
BRANCH  13  15
ATOM     14  C   UNL     1       5.959   1.842  11.415  0.00  0.00    +0.000 C 
ATOM     15  C   UNL     1       5.787   3.291  11.838  0.00  0.00    +0.000 C 
ENDBRANCH  13  15
ENDBRANCH   7  13
ENDBRANCH   1  10
BRANCH   4  16
ATOM     16  O   UNL     1       2.319   6.287  20.373  0.00  0.00    +0.000 OA
BRANCH  16  17
ATOM     17  C   UNL     1       1.768   7.536  20.147  0.00  0.00    +0.000 A 
ATOM     18  C   UNL     1       2.058   8.295  19.004  0.00  0.00    +0.000 A 
ATOM     19  C   UNL     1       1.590   9.600  18.884  0.00  0.00    +0.000 A 
ATOM     20  C   UNL     1       0.747  10.115  19.868  0.00  0.00    +0.000 A 
ATOM     21  C   UNL     1       0.386   9.344  20.979  0.00  0.00    +0.000 A 
ATOM     22  C   UNL     1       0.905   8.050  21.120  0.00  0.00    +0.000 A 
BRANCH  20  23
ATOM     23  S   UNL     1       0.152  11.785  19.686  0.00  0.00    +0.000 S 
ATOM     24  O   UNL     1       0.322  12.441  20.966  0.00  0.00    +0.000 OA
ATOM     25  O   UNL     1       0.779  12.310  18.483  0.00  0.00    +0.000 OA
BRANCH  23  26
ATOM     26  C   UNL     1      -1.595  11.562  19.372  0.00  0.00    +0.000 C 
BRANCH  26  27
ATOM     27  C   UNL     1      -1.735  11.260  17.911  0.00  0.00    +0.000 C 
ATOM     28  C   UNL     1      -1.943   9.830  17.485  0.00  0.00    +0.000 C 
ATOM     29  S   UNL     1      -3.305  10.870  17.302  0.00  0.00    +0.000 S 
ENDBRANCH  26  27
ENDBRANCH  23  26
ENDBRANCH  20  23
ENDBRANCH  16  17
ENDBRANCH   4  16
TORSDOF 8
ENDMDL
MODEL 5
REMARK VINA RESULT:      -6.8      0.966      1.258
REMARK  Name = 
REMARK  9 active torsions:
REMARK  status: ('A' for Active; 'I' for Inactive)
REMARK    1  A    between atoms: C_1  and  C_2
REMARK    2  A    between atoms: C_2  and  C_3
REMARK    3  A    between atoms: C_3  and  N_4
REMARK    4  A    between atoms: N_7  and  C_8
REMARK    5  A    between atoms: C_11  and  O_12
REMARK    6  A    between atoms: O_12  and  C_13
REMARK    7  A    between atoms: C_16  and  S_17
REMARK    8  A    between atoms: S_17  and  C_20
REMARK    9  A    between atoms: C_20  and  C_21
REMARK                            x       y       z     vdW  Elec       q    Type
REMARK                         _______ _______ _______ _____ _____    ______ ____
ROOT
ATOM      1  C   UNL     1       4.576   4.098  17.366  0.00  0.00    +0.000 A 
ATOM      2  C   UNL     1       5.137   4.771  18.448  0.00  0.00    +0.000 A 
ATOM      3  C   UNL     1       4.353   5.195  19.517  0.00  0.00    +0.000 A 
ATOM      4  C   UNL     1       2.968   5.051  19.471  0.00  0.00    +0.000 A 
ATOM      5  C   UNL     1       2.389   4.355  18.409  0.00  0.00    +0.000 A 
ATOM      6  C   UNL     1       3.190   3.886  17.355  0.00  0.00    +0.000 A 
ENDROOT
BRANCH   1  10
ATOM      7  N   UNL     1       6.485   3.728  14.283  0.00  0.00    +0.000 N 
ATOM      8  C   UNL     1       5.852   4.439  15.272  0.00  0.00    +0.000 C 
ATOM      9  O   UNL     1       5.765   5.659  15.214  0.00  0.00    +0.000 OA
ATOM     10  N   UNL     1       5.359   3.636  16.283  0.00  0.00    +0.000 N 
ATOM     11  H   UNL     1       6.544   2.725  14.328  0.00  0.00    +0.000 HD
ATOM     12  H   UNL     1       5.728   2.699  16.342  0.00  0.00    +0.000 HD
BRANCH   7  13
ATOM     13  C   UNL     1       7.083   4.429  13.161  0.00  0.00    +0.000 C 
BRANCH  13  15
ATOM     14  C   UNL     1       5.620   2.792  11.903  0.00  0.00    +0.000 C 
ATOM     15  C   UNL     1       6.806   3.738  11.826  0.00  0.00    +0.000 C 
ENDBRANCH  13  15
ENDBRANCH   7  13
ENDBRANCH   1  10
BRANCH   4  16
ATOM     16  O   UNL     1       2.136   5.592  20.434  0.00  0.00    +0.000 OA
BRANCH  16  17
ATOM     17  C   UNL     1       1.755   6.911  20.267  0.00  0.00    +0.000 A 
ATOM     18  C   UNL     1       2.029   7.635  19.097  0.00  0.00    +0.000 A 
ATOM     19  C   UNL     1       1.748   8.996  19.025  0.00  0.00    +0.000 A 
ATOM     20  C   UNL     1       1.100   9.616  20.094  0.00  0.00    +0.000 A 
ATOM     21  C   UNL     1       0.751   8.891  21.239  0.00  0.00    +0.000 A 
ATOM     22  C   UNL     1       1.086   7.532  21.325  0.00  0.00    +0.000 A 
BRANCH  20  23
ATOM     23  S   UNL     1       0.743  11.358  19.974  0.00  0.00    +0.000 S 
ATOM     24  O   UNL     1       1.343  11.997  21.126  0.00  0.00    +0.000 OA
ATOM     25  O   UNL     1       1.102  11.753  18.622  0.00  0.00    +0.000 OA
BRANCH  23  26
ATOM     26  C   UNL     1      -1.038  11.418  20.135  0.00  0.00    +0.000 C 
BRANCH  26  27
ATOM     27  C   UNL     1      -1.359  12.655  20.917  0.00  0.00    +0.000 C 
ATOM     28  C   UNL     1      -1.383  13.979  20.200  0.00  0.00    +0.000 C 
ATOM     29  S   UNL     1      -2.915  13.377  20.708  0.00  0.00    +0.000 S 
ENDBRANCH  26  27
ENDBRANCH  23  26
ENDBRANCH  20  23
ENDBRANCH  16  17
ENDBRANCH   4  16
TORSDOF 8
ENDMDL
MODEL 6
REMARK VINA RESULT:      -6.8      1.078      1.455
REMARK  Name = 
REMARK  9 active torsions:
REMARK  status: ('A' for Active; 'I' for Inactive)
REMARK    1  A    between atoms: C_1  and  C_2
REMARK    2  A    between atoms: C_2  and  C_3
REMARK    3  A    between atoms: C_3  and  N_4
REMARK    4  A    between atoms: N_7  and  C_8
REMARK    5  A    between atoms: C_11  and  O_12
REMARK    6  A    between atoms: O_12  and  C_13
REMARK    7  A    between atoms: C_16  and  S_17
REMARK    8  A    between atoms: S_17  and  C_20
REMARK    9  A    between atoms: C_20  and  C_21
REMARK                            x       y       z     vdW  Elec       q    Type
REMARK                         _______ _______ _______ _____ _____    ______ ____
ROOT
ATOM      1  C   UNL     1       5.142   4.285  16.781  0.00  0.00    +0.000 A 
ATOM      2  C   UNL     1       3.903   3.803  17.200  0.00  0.00    +0.000 A 
ATOM      3  C   UNL     1       3.191   4.435  18.215  0.00  0.00    +0.000 A 
ATOM      4  C   UNL     1       3.758   5.501  18.911  0.00  0.00    +0.000 A 
ATOM      5  C   UNL     1       4.985   6.016  18.490  0.00  0.00    +0.000 A 
ATOM      6  C   UNL     1       5.679   5.405  17.432  0.00  0.00    +0.000 A 
ENDROOT
BRANCH   1  10
ATOM      7  N   UNL     1       6.496   3.206  13.574  0.00  0.00    +0.000 N 
ATOM      8  C   UNL     1       5.773   4.029  14.401  0.00  0.00    +0.000 C 
ATOM      9  O   UNL     1       5.130   4.969  13.950  0.00  0.00    +0.000 OA
ATOM     10  N   UNL     1       5.868   3.674  15.734  0.00  0.00    +0.000 N 
ATOM     11  H   UNL     1       7.014   2.428  13.947  0.00  0.00    +0.000 HD
ATOM     12  H   UNL     1       6.629   3.063  15.989  0.00  0.00    +0.000 HD
BRANCH   7  13
ATOM     13  C   UNL     1       6.522   3.463  12.145  0.00  0.00    +0.000 C 
BRANCH  13  15
ATOM     14  C   UNL     1       6.167   1.191  11.088  0.00  0.00    +0.000 C 
ATOM     15  C   UNL     1       7.153   2.315  11.357  0.00  0.00    +0.000 C 
ENDBRANCH  13  15
ENDBRANCH   7  13
ENDBRANCH   1  10
BRANCH   4  16
ATOM     16  O   UNL     1       3.158   6.060  20.024  0.00  0.00    +0.000 OA
BRANCH  16  17
ATOM     17  C   UNL     1       2.328   7.146  19.812  0.00  0.00    +0.000 A 
ATOM     18  C   UNL     1       2.280   7.834  18.591  0.00  0.00    +0.000 A 
ATOM     19  C   UNL     1       1.533   9.002  18.465  0.00  0.00    +0.000 A 
ATOM     20  C   UNL     1       0.751   9.429  19.539  0.00  0.00    +0.000 A 
ATOM     21  C   UNL     1       0.728   8.711  20.740  0.00  0.00    +0.000 A 
ATOM     22  C   UNL     1       1.526   7.567  20.876  0.00  0.00    +0.000 A 
BRANCH  20  23
ATOM     23  S   UNL     1      -0.205  10.921  19.350  0.00  0.00    +0.000 S 
ATOM     24  O   UNL     1      -0.462  11.435  20.679  0.00  0.00    +0.000 OA
ATOM     25  O   UNL     1       0.488  11.724  18.355  0.00  0.00    +0.000 OA
BRANCH  23  26
ATOM     26  C   UNL     1      -1.740  10.333  18.645  0.00  0.00    +0.000 C 
BRANCH  26  27
ATOM     27  C   UNL     1      -2.186  11.368  17.658  0.00  0.00    +0.000 C 
ATOM     28  C   UNL     1      -2.477  10.941  16.243  0.00  0.00    +0.000 C 
ATOM     29  S   UNL     1      -3.848  11.389  17.186  0.00  0.00    +0.000 S 
ENDBRANCH  26  27
ENDBRANCH  23  26
ENDBRANCH  20  23
ENDBRANCH  16  17
ENDBRANCH   4  16
TORSDOF 8
ENDMDL
MODEL 7
REMARK VINA RESULT:      -6.8      1.680      2.470
REMARK  Name = 
REMARK  9 active torsions:
REMARK  status: ('A' for Active; 'I' for Inactive)
REMARK    1  A    between atoms: C_1  and  C_2
REMARK    2  A    between atoms: C_2  and  C_3
REMARK    3  A    between atoms: C_3  and  N_4
REMARK    4  A    between atoms: N_7  and  C_8
REMARK    5  A    between atoms: C_11  and  O_12
REMARK    6  A    between atoms: O_12  and  C_13
REMARK    7  A    between atoms: C_16  and  S_17
REMARK    8  A    between atoms: S_17  and  C_20
REMARK    9  A    between atoms: C_20  and  C_21
REMARK                            x       y       z     vdW  Elec       q    Type
REMARK                         _______ _______ _______ _____ _____    ______ ____
ROOT
ATOM      1  C   UNL     1       4.518   4.235  17.397  0.00  0.00    +0.000 A 
ATOM      2  C   UNL     1       5.104   4.930  18.453  0.00  0.00    +0.000 A 
ATOM      3  C   UNL     1       4.334   5.430  19.500  0.00  0.00    +0.000 A 
ATOM      4  C   UNL     1       2.944   5.339  19.454  0.00  0.00    +0.000 A 
ATOM      5  C   UNL     1       2.340   4.623  18.420  0.00  0.00    +0.000 A 
ATOM      6  C   UNL     1       3.125   4.078  17.390  0.00  0.00    +0.000 A 
ENDROOT
BRANCH   1  10
ATOM      7  N   UNL     1       6.412   3.658  14.337  0.00  0.00    +0.000 N 
ATOM      8  C   UNL     1       5.804   4.435  15.291  0.00  0.00    +0.000 C 
ATOM      9  O   UNL     1       5.757   5.653  15.176  0.00  0.00    +0.000 OA
ATOM     10  N   UNL     1       5.285   3.697  16.338  0.00  0.00    +0.000 N 
ATOM     11  H   UNL     1       6.439   2.656  14.430  0.00  0.00    +0.000 HD
ATOM     12  H   UNL     1       5.623   2.752  16.442  0.00  0.00    +0.000 HD
BRANCH   7  13
ATOM     13  C   UNL     1       7.033   4.286  13.184  0.00  0.00    +0.000 C 
BRANCH  13  15
ATOM     14  C   UNL     1       5.840   2.456  11.905  0.00  0.00    +0.000 C 
ATOM     15  C   UNL     1       6.365   3.881  11.870  0.00  0.00    +0.000 C 
ENDBRANCH  13  15
ENDBRANCH   7  13
ENDBRANCH   1  10
BRANCH   4  16
ATOM     16  O   UNL     1       2.133   5.953  20.390  0.00  0.00    +0.000 OA
BRANCH  16  17
ATOM     17  C   UNL     1       1.821   7.284  20.176  0.00  0.00    +0.000 A 
ATOM     18  C   UNL     1       1.218   8.086  21.156  0.00  0.00    +0.000 A 
ATOM     19  C   UNL     1       0.799   9.378  20.853  0.00  0.00    +0.000 A 
ATOM     20  C   UNL     1       1.072   9.905  19.591  0.00  0.00    +0.000 A 
ATOM     21  C   UNL     1       1.741   9.144  18.626  0.00  0.00    +0.000 A 
ATOM     22  C   UNL     1       2.112   7.825  18.920  0.00  0.00    +0.000 A 
BRANCH  20  23
ATOM     23  S   UNL     1       0.534  11.565  19.231  0.00  0.00    +0.000 S 
ATOM     24  O   UNL     1      -0.515  11.469  18.238  0.00  0.00    +0.000 OA
ATOM     25  O   UNL     1       0.297  12.202  20.517  0.00  0.00    +0.000 OA
BRANCH  23  26
ATOM     26  C   UNL     1       1.980  12.307  18.482  0.00  0.00    +0.000 C 
BRANCH  26  27
ATOM     27  C   UNL     1       2.015  13.735  18.933  0.00  0.00    +0.000 C 
ATOM     28  C   UNL     1       3.200  14.214  19.729  0.00  0.00    +0.000 C 
ATOM     29  S   UNL     1       3.083  14.825  18.122  0.00  0.00    +0.000 S 
ENDBRANCH  26  27
ENDBRANCH  23  26
ENDBRANCH  20  23
ENDBRANCH  16  17
ENDBRANCH   4  16
TORSDOF 8
ENDMDL
MODEL 8
REMARK VINA RESULT:      -6.7      1.602      2.391
REMARK  Name = 
REMARK  9 active torsions:
REMARK  status: ('A' for Active; 'I' for Inactive)
REMARK    1  A    between atoms: C_1  and  C_2
REMARK    2  A    between atoms: C_2  and  C_3
REMARK    3  A    between atoms: C_3  and  N_4
REMARK    4  A    between atoms: N_7  and  C_8
REMARK    5  A    between atoms: C_11  and  O_12
REMARK    6  A    between atoms: O_12  and  C_13
REMARK    7  A    between atoms: C_16  and  S_17
REMARK    8  A    between atoms: S_17  and  C_20
REMARK    9  A    between atoms: C_20  and  C_21
REMARK                            x       y       z     vdW  Elec       q    Type
REMARK                         _______ _______ _______ _____ _____    ______ ____
ROOT
ATOM      1  C   UNL     1       4.986   4.319  16.950  0.00  0.00    +0.000 A 
ATOM      2  C   UNL     1       3.605   4.154  17.044  0.00  0.00    +0.000 A 
ATOM      3  C   UNL     1       2.870   4.797  18.036  0.00  0.00    +0.000 A 
ATOM      4  C   UNL     1       3.519   5.532  19.026  0.00  0.00    +0.000 A 
ATOM      5  C   UNL     1       4.897   5.732  18.934  0.00  0.00    +0.000 A 
ATOM      6  C   UNL     1       5.630   5.121  17.903  0.00  0.00    +0.000 A 
ENDROOT
BRANCH   1  10
ATOM      7  N   UNL     1       6.476   3.237  13.805  0.00  0.00    +0.000 N 
ATOM      8  C   UNL     1       5.738   4.073  14.604  0.00  0.00    +0.000 C 
ATOM      9  O   UNL     1       5.155   5.042  14.134  0.00  0.00    +0.000 OA
ATOM     10  N   UNL     1       5.747   3.696  15.935  0.00  0.00    +0.000 N 
ATOM     11  H   UNL     1       6.945   2.435  14.194  0.00  0.00    +0.000 HD
ATOM     12  H   UNL     1       6.470   3.055  16.222  0.00  0.00    +0.000 HD
BRANCH   7  13
ATOM     13  C   UNL     1       6.591   3.512  12.384  0.00  0.00    +0.000 C 
BRANCH  13  15
ATOM     14  C   UNL     1       6.512   1.295  11.166  0.00  0.00    +0.000 C 
ATOM     15  C   UNL     1       5.751   2.557  11.535  0.00  0.00    +0.000 C 
ENDBRANCH  13  15
ENDBRANCH   7  13
ENDBRANCH   1  10
BRANCH   4  16
ATOM     16  O   UNL     1       2.850   6.059  20.114  0.00  0.00    +0.000 OA
BRANCH  16  17
ATOM     17  C   UNL     1       2.161   7.243  19.917  0.00  0.00    +0.000 A 
ATOM     18  C   UNL     1       2.212   7.955  18.709  0.00  0.00    +0.000 A 
ATOM     19  C   UNL     1       1.614   9.207  18.601  0.00  0.00    +0.000 A 
ATOM     20  C   UNL     1       0.879   9.707  19.676  0.00  0.00    +0.000 A 
ATOM     21  C   UNL     1       0.754   8.974  20.862  0.00  0.00    +0.000 A 
ATOM     22  C   UNL     1       1.404   7.738  20.982  0.00  0.00    +0.000 A 
BRANCH  20  23
ATOM     23  S   UNL     1       0.116  11.308  19.509  0.00  0.00    +0.000 S 
ATOM     24  O   UNL     1      -0.746  11.251  18.347  0.00  0.00    +0.000 OA
ATOM     25  O   UNL     1      -0.413  11.644  20.821  0.00  0.00    +0.000 OA
BRANCH  23  26
ATOM     26  C   UNL     1       1.501  12.384  19.157  0.00  0.00    +0.000 C 
BRANCH  26  27
ATOM     27  C   UNL     1       0.947  13.769  19.014  0.00  0.00    +0.000 C 
ATOM     28  C   UNL     1       1.153  14.749  20.138  0.00  0.00    +0.000 C 
ATOM     29  S   UNL     1       2.046  15.064  18.699  0.00  0.00    +0.000 S 
ENDBRANCH  26  27
ENDBRANCH  23  26
ENDBRANCH  20  23
ENDBRANCH  16  17
ENDBRANCH   4  16
TORSDOF 8
ENDMDL
MODEL 9
REMARK VINA RESULT:      -6.7      1.157      1.702
REMARK  Name = 
REMARK  9 active torsions:
REMARK  status: ('A' for Active; 'I' for Inactive)
REMARK    1  A    between atoms: C_1  and  C_2
REMARK    2  A    between atoms: C_2  and  C_3
REMARK    3  A    between atoms: C_3  and  N_4
REMARK    4  A    between atoms: N_7  and  C_8
REMARK    5  A    between atoms: C_11  and  O_12
REMARK    6  A    between atoms: O_12  and  C_13
REMARK    7  A    between atoms: C_16  and  S_17
REMARK    8  A    between atoms: S_17  and  C_20
REMARK    9  A    between atoms: C_20  and  C_21
REMARK                            x       y       z     vdW  Elec       q    Type
REMARK                         _______ _______ _______ _____ _____    ______ ____
ROOT
ATOM      1  C   UNL     1       4.838   4.206  16.944  0.00  0.00    +0.000 A 
ATOM      2  C   UNL     1       3.496   3.855  17.076  0.00  0.00    +0.000 A 
ATOM      3  C   UNL     1       2.693   4.435  18.054  0.00  0.00    +0.000 A 
ATOM      4  C   UNL     1       3.248   5.300  18.995  0.00  0.00    +0.000 A 
ATOM      5  C   UNL     1       4.583   5.685  18.864  0.00  0.00    +0.000 A 
ATOM      6  C   UNL     1       5.378   5.134  17.845  0.00  0.00    +0.000 A 
ENDROOT
BRANCH   1  10
ATOM      7  N   UNL     1       6.463   3.256  13.823  0.00  0.00    +0.000 N 
ATOM      8  C   UNL     1       5.650   4.030  14.612  0.00  0.00    +0.000 C 
ATOM      9  O   UNL     1       5.003   4.953  14.134  0.00  0.00    +0.000 OA
ATOM     10  N   UNL     1       5.662   3.648  15.940  0.00  0.00    +0.000 N 
ATOM     11  H   UNL     1       6.985   2.490  14.218  0.00  0.00    +0.000 HD
ATOM     12  H   UNL     1       6.427   3.062  16.239  0.00  0.00    +0.000 HD
BRANCH   7  13
ATOM     13  C   UNL     1       6.582   3.546  12.406  0.00  0.00    +0.000 C 
BRANCH  13  15
ATOM     14  C   UNL     1       6.416   1.379  11.109  0.00  0.00    +0.000 C 
ATOM     15  C   UNL     1       5.696   2.643  11.548  0.00  0.00    +0.000 C 
ENDBRANCH  13  15
ENDBRANCH   7  13
ENDBRANCH   1  10
BRANCH   4  16
ATOM     16  O   UNL     1       2.529   5.779  20.074  0.00  0.00    +0.000 OA
BRANCH  16  17
ATOM     17  C   UNL     1       2.020   7.062  19.971  0.00  0.00    +0.000 A 
ATOM     18  C   UNL     1       2.094   7.811  18.788  0.00  0.00    +0.000 A 
ATOM     19  C   UNL     1       1.692   9.144  18.769  0.00  0.00    +0.000 A 
ATOM     20  C   UNL     1       1.122   9.700  19.914  0.00  0.00    +0.000 A 
ATOM     21  C   UNL     1       0.970   8.942  21.080  0.00  0.00    +0.000 A 
ATOM     22  C   UNL     1       1.427   7.617  21.108  0.00  0.00    +0.000 A 
BRANCH  20  23
ATOM     23  S   UNL     1       0.605  11.405  19.861  0.00  0.00    +0.000 S 
ATOM     24  O   UNL     1       1.053  12.025  21.090  0.00  0.00    +0.000 OA
ATOM     25  O   UNL     1       1.024  11.915  18.565  0.00  0.00    +0.000 OA
BRANCH  23  26
ATOM     26  C   UNL     1      -1.180  11.289  19.882  0.00  0.00    +0.000 C 
BRANCH  26  27
ATOM     27  C   UNL     1      -1.693  12.619  20.343  0.00  0.00    +0.000 C 
ATOM     28  C   UNL     1      -3.179  12.865  20.329  0.00  0.00    +0.000 C 
ATOM     29  S   UNL     1      -2.461  12.712  21.888  0.00  0.00    +0.000 S 
ENDBRANCH  26  27
ENDBRANCH  23  26
ENDBRANCH  20  23
ENDBRANCH  16  17
ENDBRANCH   4  16
TORSDOF 8
ENDMDL
