MODEL 1
REMARK VINA RESULT:      -8.6      0.000      0.000
REMARK  Name = 
REMARK  10 active torsions:
REMARK  status: ('A' for Active; 'I' for Inactive)
REMARK    1  A    between atoms: C_1  and  C_2
REMARK    2  A    between atoms: C_4  and  C_5
REMARK    3  A    between atoms: C_5  and  C_6
REMARK    4  A    between atoms: C_6  and  C_7
REMARK    5  A    between atoms: C_6  and  C_8
REMARK    6  A    between atoms: C_11  and  C_12
REMARK    7  A    between atoms: C_13  and  C_14
REMARK    8  A    between atoms: C_17  and  O_18
REMARK    9  A    between atoms: C_19  and  C_20
REMARK   10  A    between atoms: C_25  and  O_26
REMARK                            x       y       z     vdW  Elec       q    Type
REMARK                         _______ _______ _______ _____ _____    ______ ____
ROOT
ATOM      1  C   UNL     1       2.195   6.290  19.438  0.00  0.00    +0.000 C 
ATOM      2  C   UNL     1       1.982   5.280  20.597  0.00  0.00    +0.000 C 
ATOM      3  C   UNL     1       2.410   3.827  20.381  0.00  0.00    +0.000 C 
ATOM      4  C   UNL     1       2.081   3.283  18.989  0.00  0.00    +0.000 C 
ATOM      5  C   UNL     1       2.664   1.878  18.803  0.00  0.00    +0.000 C 
ATOM      6  C   UNL     1       2.473   4.259  17.851  0.00  0.00    +0.000 C 
ATOM      7  C   UNL     1       1.799   5.640  18.096  0.00  0.00    +0.000 C 
ENDROOT
BRANCH   6   8
ATOM      8  C   UNL     1       3.976   4.373  17.582  0.00  0.00    +0.000 A 
ATOM      9  C   UNL     1       4.871   4.633  18.626  0.00  0.00    +0.000 A 
ATOM     10  C   UNL     1       6.253   4.707  18.375  0.00  0.00    +0.000 A 
ATOM     11  C   UNL     1       6.749   4.496  17.090  0.00  0.00    +0.000 A 
ATOM     12  C   UNL     1       5.888   4.242  16.035  0.00  0.00    +0.000 A 
ATOM     13  C   UNL     1       6.322   3.950  14.631  0.00  0.00    +0.000 C 
ATOM     14  C   UNL     1       4.517   4.217  16.301  0.00  0.00    +0.000 A 
BRANCH  11  15
ATOM     15  O   UNL     1       8.091   4.535  16.839  0.00  0.00    +0.000 OA
ATOM     16  H   UNL     1       8.293   5.373  16.389  0.00  0.00    +0.000 HD
ENDBRANCH  11  15
ENDBRANCH   6   8
BRANCH   1  17
ATOM     17  C   UNL     1       1.485   7.648  19.769  0.00  0.00    +0.000 C 
ATOM     18  C   UNL     1       1.814   8.063  21.219  0.00  0.00    +0.000 C 
BRANCH  17  19
ATOM     19  C   UNL     1       1.870   8.820  18.820  0.00  0.00    +0.000 C 
BRANCH  19  23
ATOM     20  C   UNL     1      -2.580   9.909  16.708  0.00  0.00    +0.000 C 
ATOM     21  C   UNL     1      -1.428  10.326  17.577  0.00  0.00    +0.000 A 
ATOM     22  C   UNL     1      -0.374   9.432  17.816  0.00  0.00    +0.000 A 
ATOM     23  C   UNL     1       0.735   9.800  18.594  0.00  0.00    +0.000 A 
ATOM     24  C   UNL     1       0.769  11.086  19.146  0.00  0.00    +0.000 A 
ATOM     25  C   UNL     1      -0.283  11.985  18.926  0.00  0.00    +0.000 A 
ATOM     26  C   UNL     1      -1.367  11.600  18.138  0.00  0.00    +0.000 A 
BRANCH  26  27
ATOM     27  O   UNL     1      -2.389  12.471  17.901  0.00  0.00    +0.000 OA
ATOM     28  H   UNL     1      -2.021  13.360  17.764  0.00  0.00    +0.000 HD
ENDBRANCH  26  27
ENDBRANCH  19  23
ENDBRANCH  17  19
ENDBRANCH   1  17
TORSDOF 6
ENDMDL
MODEL 2
REMARK VINA RESULT:      -8.4      0.364      1.369
REMARK  Name = 
REMARK  10 active torsions:
REMARK  status: ('A' for Active; 'I' for Inactive)
REMARK    1  A    between atoms: C_1  and  C_2
REMARK    2  A    between atoms: C_4  and  C_5
REMARK    3  A    between atoms: C_5  and  C_6
REMARK    4  A    between atoms: C_6  and  C_7
REMARK    5  A    between atoms: C_6  and  C_8
REMARK    6  A    between atoms: C_11  and  C_12
REMARK    7  A    between atoms: C_13  and  C_14
REMARK    8  A    between atoms: C_17  and  O_18
REMARK    9  A    between atoms: C_19  and  C_20
REMARK   10  A    between atoms: C_25  and  O_26
REMARK                            x       y       z     vdW  Elec       q    Type
REMARK                         _______ _______ _______ _____ _____    ______ ____
ROOT
ATOM      1  C   UNL     1       2.213   6.194  19.391  0.00  0.00    +0.000 C 
ATOM      2  C   UNL     1       1.998   5.216  20.576  0.00  0.00    +0.000 C 
ATOM      3  C   UNL     1       2.410   3.754  20.394  0.00  0.00    +0.000 C 
ATOM      4  C   UNL     1       2.065   3.179  19.020  0.00  0.00    +0.000 C 
ATOM      5  C   UNL     1       2.631   1.763  18.865  0.00  0.00    +0.000 C 
ATOM      6  C   UNL     1       2.459   4.120  17.854  0.00  0.00    +0.000 C 
ATOM      7  C   UNL     1       1.801   5.515  18.068  0.00  0.00    +0.000 C 
ENDROOT
BRANCH   6   8
ATOM      8  C   UNL     1       3.960   4.212  17.572  0.00  0.00    +0.000 A 
ATOM      9  C   UNL     1       4.482   3.797  16.341  0.00  0.00    +0.000 A 
ATOM     10  C   UNL     1       5.859   3.912  16.079  0.00  0.00    +0.000 A 
ATOM     11  C   UNL     1       6.716   4.463  17.030  0.00  0.00    +0.000 A 
ATOM     12  C   UNL     1       6.230   4.878  18.259  0.00  0.00    +0.000 A 
ATOM     13  C   UNL     1       7.055   5.531  19.327  0.00  0.00    +0.000 C 
ATOM     14  C   UNL     1       4.866   4.713  18.513  0.00  0.00    +0.000 A 
BRANCH  11  15
ATOM     15  O   UNL     1       8.049   4.609  16.775  0.00  0.00    +0.000 OA
ATOM     16  H   UNL     1       8.431   3.725  16.636  0.00  0.00    +0.000 HD
ENDBRANCH  11  15
ENDBRANCH   6   8
BRANCH   1  17
ATOM     17  C   UNL     1       1.520   7.567  19.692  0.00  0.00    +0.000 C 
ATOM     18  C   UNL     1       1.826   7.993  21.145  0.00  0.00    +0.000 C 
BRANCH  17  19
ATOM     19  C   UNL     1       1.946   8.722  18.739  0.00  0.00    +0.000 C 
BRANCH  19  23
ATOM     20  C   UNL     1      -2.605  10.045  17.010  0.00  0.00    +0.000 C 
ATOM     21  C   UNL     1      -1.343  10.416  17.733  0.00  0.00    +0.000 A 
ATOM     22  C   UNL     1      -0.339   9.455  17.924  0.00  0.00    +0.000 A 
ATOM     23  C   UNL     1       0.870   9.777  18.564  0.00  0.00    +0.000 A 
ATOM     24  C   UNL     1       1.055  11.084  19.027  0.00  0.00    +0.000 A 
ATOM     25  C   UNL     1       0.056  12.051  18.854  0.00  0.00    +0.000 A 
ATOM     26  C   UNL     1      -1.130  11.711  18.203  0.00  0.00    +0.000 A 
BRANCH  26  27
ATOM     27  O   UNL     1      -2.103  12.647  18.013  0.00  0.00    +0.000 OA
ATOM     28  H   UNL     1      -1.916  13.136  17.195  0.00  0.00    +0.000 HD
ENDBRANCH  26  27
ENDBRANCH  19  23
ENDBRANCH  17  19
ENDBRANCH   1  17
TORSDOF 6
ENDMDL
MODEL 3
REMARK VINA RESULT:      -8.4      1.768      2.364
REMARK  Name = 
REMARK  10 active torsions:
REMARK  status: ('A' for Active; 'I' for Inactive)
REMARK    1  A    between atoms: C_1  and  C_2
REMARK    2  A    between atoms: C_4  and  C_5
REMARK    3  A    between atoms: C_5  and  C_6
REMARK    4  A    between atoms: C_6  and  C_7
REMARK    5  A    between atoms: C_6  and  C_8
REMARK    6  A    between atoms: C_11  and  C_12
REMARK    7  A    between atoms: C_13  and  C_14
REMARK    8  A    between atoms: C_17  and  O_18
REMARK    9  A    between atoms: C_19  and  C_20
REMARK   10  A    between atoms: C_25  and  O_26
REMARK                            x       y       z     vdW  Elec       q    Type
REMARK                         _______ _______ _______ _____ _____    ______ ____
ROOT
ATOM      1  C   UNL     1       2.382   6.384  19.675  0.00  0.00    +0.000 C 
ATOM      2  C   UNL     1       1.981   5.235  20.637  0.00  0.00    +0.000 C 
ATOM      3  C   UNL     1       2.232   3.793  20.190  0.00  0.00    +0.000 C 
ATOM      4  C   UNL     1       1.911   3.536  18.717  0.00  0.00    +0.000 C 
ATOM      5  C   UNL     1       2.319   2.116  18.311  0.00  0.00    +0.000 C 
ATOM      6  C   UNL     1       2.484   4.624  17.774  0.00  0.00    +0.000 C 
ATOM      7  C   UNL     1       1.979   6.024  18.229  0.00  0.00    +0.000 C 
ENDROOT
BRANCH   6   8
ATOM      8  C   UNL     1       4.000   4.578  17.575  0.00  0.00    +0.000 A 
ATOM      9  C   UNL     1       4.869   4.714  18.664  0.00  0.00    +0.000 A 
ATOM     10  C   UNL     1       6.261   4.642  18.476  0.00  0.00    +0.000 A 
ATOM     11  C   UNL     1       6.791   4.407  17.208  0.00  0.00    +0.000 A 
ATOM     12  C   UNL     1       5.957   4.274  16.110  0.00  0.00    +0.000 A 
ATOM     13  C   UNL     1       6.422   3.967  14.718  0.00  0.00    +0.000 C 
ATOM     14  C   UNL     1       4.581   4.393  16.315  0.00  0.00    +0.000 A 
BRANCH  11  15
ATOM     15  O   UNL     1       8.139   4.303  17.018  0.00  0.00    +0.000 OA
ATOM     16  H   UNL     1       8.436   3.458  17.395  0.00  0.00    +0.000 HD
ENDBRANCH  11  15
ENDBRANCH   6   8
BRANCH   1  17
ATOM     17  C   UNL     1       1.834   7.752  20.210  0.00  0.00    +0.000 C 
ATOM     18  C   UNL     1       1.762   8.769  19.050  0.00  0.00    +0.000 C 
BRANCH  17  19
ATOM     19  C   UNL     1       0.430   7.663  20.876  0.00  0.00    +0.000 C 
BRANCH  19  23
ATOM     20  C   UNL     1      -1.140  12.378  20.006  0.00  0.00    +0.000 C 
ATOM     21  C   UNL     1      -0.833  11.281  20.984  0.00  0.00    +0.000 A 
ATOM     22  C   UNL     1      -0.392  10.033  20.519  0.00  0.00    +0.000 A 
ATOM     23  C   UNL     1      -0.062   8.996  21.407  0.00  0.00    +0.000 A 
ATOM     24  C   UNL     1      -0.194   9.224  22.782  0.00  0.00    +0.000 A 
ATOM     25  C   UNL     1      -0.645  10.461  23.260  0.00  0.00    +0.000 A 
ATOM     26  C   UNL     1      -0.953  11.480  22.358  0.00  0.00    +0.000 A 
BRANCH  26  27
ATOM     27  O   UNL     1      -1.376  12.695  22.812  0.00  0.00    +0.000 OA
ATOM     28  H   UNL     1      -1.881  12.567  23.632  0.00  0.00    +0.000 HD
ENDBRANCH  26  27
ENDBRANCH  19  23
ENDBRANCH  17  19
ENDBRANCH   1  17
TORSDOF 6
ENDMDL
MODEL 4
REMARK VINA RESULT:      -8.4      1.210      1.991
REMARK  Name = 
REMARK  10 active torsions:
REMARK  status: ('A' for Active; 'I' for Inactive)
REMARK    1  A    between atoms: C_1  and  C_2
REMARK    2  A    between atoms: C_4  and  C_5
REMARK    3  A    between atoms: C_5  and  C_6
REMARK    4  A    between atoms: C_6  and  C_7
REMARK    5  A    between atoms: C_6  and  C_8
REMARK    6  A    between atoms: C_11  and  C_12
REMARK    7  A    between atoms: C_13  and  C_14
REMARK    8  A    between atoms: C_17  and  O_18
REMARK    9  A    between atoms: C_19  and  C_20
REMARK   10  A    between atoms: C_25  and  O_26
REMARK                            x       y       z     vdW  Elec       q    Type
REMARK                         _______ _______ _______ _____ _____    ______ ____
ROOT
ATOM      1  C   UNL     1       2.484   7.105  19.093  0.00  0.00    +0.000 C 
ATOM      2  C   UNL     1       2.059   6.349  20.380  0.00  0.00    +0.000 C 
ATOM      3  C   UNL     1       2.218   4.828  20.413  0.00  0.00    +0.000 C 
ATOM      4  C   UNL     1       1.829   4.135  19.106  0.00  0.00    +0.000 C 
ATOM      5  C   UNL     1       2.147   2.637  19.169  0.00  0.00    +0.000 C 
ATOM      6  C   UNL     1       2.423   4.829  17.854  0.00  0.00    +0.000 C 
ATOM      7  C   UNL     1       2.009   6.329  17.847  0.00  0.00    +0.000 C 
ENDROOT
BRANCH   6   8
ATOM      8  C   UNL     1       3.926   4.629  17.652  0.00  0.00    +0.000 A 
ATOM      9  C   UNL     1       4.416   4.007  16.498  0.00  0.00    +0.000 A 
ATOM     10  C   UNL     1       5.801   3.853  16.307  0.00  0.00    +0.000 A 
ATOM     11  C   UNL     1       6.703   4.341  17.251  0.00  0.00    +0.000 A 
ATOM     12  C   UNL     1       6.248   4.957  18.406  0.00  0.00    +0.000 A 
ATOM     13  C   UNL     1       7.133   5.562  19.454  0.00  0.00    +0.000 C 
ATOM     14  C   UNL     1       4.869   5.059  18.594  0.00  0.00    +0.000 A 
BRANCH  11  15
ATOM     15  O   UNL     1       8.050   4.226  17.062  0.00  0.00    +0.000 OA
ATOM     16  H   UNL     1       8.458   3.992  17.913  0.00  0.00    +0.000 HD
ENDBRANCH  11  15
ENDBRANCH   6   8
BRANCH   1  17
ATOM     17  C   UNL     1       2.029   8.603  19.173  0.00  0.00    +0.000 C 
ATOM     18  C   UNL     1       1.535   9.068  17.785  0.00  0.00    +0.000 C 
BRANCH  17  19
ATOM     19  C   UNL     1       0.905   8.877  20.214  0.00  0.00    +0.000 C 
BRANCH  19  23
ATOM     20  C   UNL     1      -2.949  11.645  18.501  0.00  0.00    +0.000 C 
ATOM     21  C   UNL     1      -1.629  11.574  19.212  0.00  0.00    +0.000 A 
ATOM     22  C   UNL     1      -1.006  10.332  19.406  0.00  0.00    +0.000 A 
ATOM     23  C   UNL     1       0.245  10.232  20.035  0.00  0.00    +0.000 A 
ATOM     24  C   UNL     1       0.864  11.403  20.486  0.00  0.00    +0.000 A 
ATOM     25  C   UNL     1       0.248  12.649  20.311  0.00  0.00    +0.000 A 
ATOM     26  C   UNL     1      -0.989  12.724  19.670  0.00  0.00    +0.000 A 
BRANCH  26  27
ATOM     27  O   UNL     1      -1.591  13.932  19.478  0.00  0.00    +0.000 OA
ATOM     28  H   UNL     1      -1.454  14.483  20.267  0.00  0.00    +0.000 HD
ENDBRANCH  26  27
ENDBRANCH  19  23
ENDBRANCH  17  19
ENDBRANCH   1  17
TORSDOF 6
ENDMDL
MODEL 5
REMARK VINA RESULT:      -8.4      2.740      8.689
REMARK  Name = 
REMARK  10 active torsions:
REMARK  status: ('A' for Active; 'I' for Inactive)
REMARK    1  A    between atoms: C_1  and  C_2
REMARK    2  A    between atoms: C_4  and  C_5
REMARK    3  A    between atoms: C_5  and  C_6
REMARK    4  A    between atoms: C_6  and  C_7
REMARK    5  A    between atoms: C_6  and  C_8
REMARK    6  A    between atoms: C_11  and  C_12
REMARK    7  A    between atoms: C_13  and  C_14
REMARK    8  A    between atoms: C_17  and  O_18
REMARK    9  A    between atoms: C_19  and  C_20
REMARK   10  A    between atoms: C_25  and  O_26
REMARK                            x       y       z     vdW  Elec       q    Type
REMARK                         _______ _______ _______ _____ _____    ______ ____
ROOT
ATOM      1  C   UNL     1       0.803   9.064  18.982  0.00  0.00    +0.000 C 
ATOM      2  C   UNL     1       0.713   8.962  20.527  0.00  0.00    +0.000 C 
ATOM      3  C   UNL     1      -0.084  10.030  21.280  0.00  0.00    +0.000 C 
ATOM      4  C   UNL     1       0.118  11.448  20.743  0.00  0.00    +0.000 C 
ATOM      5  C   UNL     1      -0.815  12.436  21.451  0.00  0.00    +0.000 C 
ATOM      6  C   UNL     1       0.026  11.528  19.198  0.00  0.00    +0.000 C 
ATOM      7  C   UNL     1       1.039  10.531  18.565  0.00  0.00    +0.000 C 
ENDROOT
BRANCH   6   8
ATOM      8  C   UNL     1      -1.385  11.383  18.623  0.00  0.00    +0.000 A 
ATOM      9  C   UNL     1      -2.478  11.995  19.248  0.00  0.00    +0.000 A 
ATOM     10  C   UNL     1      -3.767  11.880  18.696  0.00  0.00    +0.000 A 
ATOM     11  C   UNL     1      -3.967  11.180  17.508  0.00  0.00    +0.000 A 
ATOM     12  C   UNL     1      -2.906  10.559  16.869  0.00  0.00    +0.000 A 
ATOM     13  C   UNL     1      -3.005   9.829  15.563  0.00  0.00    +0.000 C 
ATOM     14  C   UNL     1      -1.643  10.650  17.459  0.00  0.00    +0.000 A 
BRANCH  11  15
ATOM     15  O   UNL     1      -5.208  11.089  16.946  0.00  0.00    +0.000 OA
ATOM     16  H   UNL     1      -5.145  11.378  16.020  0.00  0.00    +0.000 HD
ENDBRANCH  11  15
ENDBRANCH   6   8
BRANCH   1  17
ATOM     17  C   UNL     1       1.842   8.027  18.432  0.00  0.00    +0.000 C 
ATOM     18  C   UNL     1       2.968   8.772  17.683  0.00  0.00    +0.000 C 
BRANCH  17  19
ATOM     19  C   UNL     1       2.488   7.127  19.525  0.00  0.00    +0.000 C 
BRANCH  19  23
ATOM     20  C   UNL     1       1.486   2.608  21.531  0.00  0.00    +0.000 C 
ATOM     21  C   UNL     1       1.687   3.462  20.313  0.00  0.00    +0.000 A 
ATOM     22  C   UNL     1       1.954   4.831  20.456  0.00  0.00    +0.000 A 
ATOM     23  C   UNL     1       2.182   5.653  19.339  0.00  0.00    +0.000 A 
ATOM     24  C   UNL     1       2.125   5.080  18.064  0.00  0.00    +0.000 A 
ATOM     25  C   UNL     1       1.848   3.716  17.905  0.00  0.00    +0.000 A 
ATOM     26  C   UNL     1       1.638   2.919  19.030  0.00  0.00    +0.000 A 
BRANCH  26  27
ATOM     27  O   UNL     1       1.383   1.586  18.890  0.00  0.00    +0.000 OA
ATOM     28  H   UNL     1       0.565   1.369  19.368  0.00  0.00    +0.000 HD
ENDBRANCH  26  27
ENDBRANCH  19  23
ENDBRANCH  17  19
ENDBRANCH   1  17
TORSDOF 6
ENDMDL
MODEL 6
REMARK VINA RESULT:      -8.4      0.824      1.659
REMARK  Name = 
REMARK  10 active torsions:
REMARK  status: ('A' for Active; 'I' for Inactive)
REMARK    1  A    between atoms: C_1  and  C_2
REMARK    2  A    between atoms: C_4  and  C_5
REMARK    3  A    between atoms: C_5  and  C_6
REMARK    4  A    between atoms: C_6  and  C_7
REMARK    5  A    between atoms: C_6  and  C_8
REMARK    6  A    between atoms: C_11  and  C_12
REMARK    7  A    between atoms: C_13  and  C_14
REMARK    8  A    between atoms: C_17  and  O_18
REMARK    9  A    between atoms: C_19  and  C_20
REMARK   10  A    between atoms: C_25  and  O_26
REMARK                            x       y       z     vdW  Elec       q    Type
REMARK                         _______ _______ _______ _____ _____    ______ ____
ROOT
ATOM      1  C   UNL     1       2.202   6.471  19.212  0.00  0.00    +0.000 C 
ATOM      2  C   UNL     1       1.994   5.589  20.472  0.00  0.00    +0.000 C 
ATOM      3  C   UNL     1       2.425   4.122  20.410  0.00  0.00    +0.000 C 
ATOM      4  C   UNL     1       2.093   3.434  19.085  0.00  0.00    +0.000 C 
ATOM      5  C   UNL     1       2.678   2.018  19.047  0.00  0.00    +0.000 C 
ATOM      6  C   UNL     1       2.481   4.284  17.849  0.00  0.00    +0.000 C 
ATOM      7  C   UNL     1       1.805   5.682  17.947  0.00  0.00    +0.000 C 
ENDROOT
BRANCH   6   8
ATOM      8  C   UNL     1       3.983   4.371  17.566  0.00  0.00    +0.000 A 
ATOM      9  C   UNL     1       4.894   4.603  18.603  0.00  0.00    +0.000 A 
ATOM     10  C   UNL     1       6.274   4.653  18.338  0.00  0.00    +0.000 A 
ATOM     11  C   UNL     1       6.753   4.445  17.045  0.00  0.00    +0.000 A 
ATOM     12  C   UNL     1       5.876   4.219  15.997  0.00  0.00    +0.000 A 
ATOM     13  C   UNL     1       6.290   3.931  14.586  0.00  0.00    +0.000 C 
ATOM     14  C   UNL     1       4.508   4.217  16.278  0.00  0.00    +0.000 A 
BRANCH  11  15
ATOM     15  O   UNL     1       8.092   4.460  16.781  0.00  0.00    +0.000 OA
ATOM     16  H   UNL     1       8.223   4.819  15.887  0.00  0.00    +0.000 HD
ENDBRANCH  11  15
ENDBRANCH   6   8
BRANCH   1  17
ATOM     17  C   UNL     1       1.491   7.855  19.399  0.00  0.00    +0.000 C 
ATOM     18  C   UNL     1       1.672   8.337  20.855  0.00  0.00    +0.000 C 
BRANCH  17  19
ATOM     19  C   UNL     1       2.001   8.972  18.443  0.00  0.00    +0.000 C 
BRANCH  19  23
ATOM     20  C   UNL     1       1.643  13.985  18.874  0.00  0.00    +0.000 C 
ATOM     21  C   UNL     1       0.971  12.657  18.678  0.00  0.00    +0.000 A 
ATOM     22  C   UNL     1       1.741  11.486  18.624  0.00  0.00    +0.000 A 
ATOM     23  C   UNL     1       1.144  10.223  18.478  0.00  0.00    +0.000 A 
ATOM     24  C   UNL     1      -0.249  10.150  18.371  0.00  0.00    +0.000 A 
ATOM     25  C   UNL     1      -1.031  11.312  18.410  0.00  0.00    +0.000 A 
ATOM     26  C   UNL     1      -0.414  12.554  18.571  0.00  0.00    +0.000 A 
BRANCH  26  27
ATOM     27  O   UNL     1      -1.165  13.691  18.628  0.00  0.00    +0.000 OA
ATOM     28  H   UNL     1      -2.092  13.450  18.792  0.00  0.00    +0.000 HD
ENDBRANCH  26  27
ENDBRANCH  19  23
ENDBRANCH  17  19
ENDBRANCH   1  17
TORSDOF 6
ENDMDL
MODEL 7
REMARK VINA RESULT:      -8.3      1.236      1.562
REMARK  Name = 
REMARK  10 active torsions:
REMARK  status: ('A' for Active; 'I' for Inactive)
REMARK    1  A    between atoms: C_1  and  C_2
REMARK    2  A    between atoms: C_4  and  C_5
REMARK    3  A    between atoms: C_5  and  C_6
REMARK    4  A    between atoms: C_6  and  C_7
REMARK    5  A    between atoms: C_6  and  C_8
REMARK    6  A    between atoms: C_11  and  C_12
REMARK    7  A    between atoms: C_13  and  C_14
REMARK    8  A    between atoms: C_17  and  O_18
REMARK    9  A    between atoms: C_19  and  C_20
REMARK   10  A    between atoms: C_25  and  O_26
REMARK                            x       y       z     vdW  Elec       q    Type
REMARK                         _______ _______ _______ _____ _____    ______ ____
ROOT
ATOM      1  C   UNL     1       2.413   7.264  19.158  0.00  0.00    +0.000 C 
ATOM      2  C   UNL     1       1.983   6.519  20.449  0.00  0.00    +0.000 C 
ATOM      3  C   UNL     1       2.176   5.003  20.511  0.00  0.00    +0.000 C 
ATOM      4  C   UNL     1       1.827   4.280  19.209  0.00  0.00    +0.000 C 
ATOM      5  C   UNL     1       2.179   2.791  19.302  0.00  0.00    +0.000 C 
ATOM      6  C   UNL     1       2.427   4.967  17.956  0.00  0.00    +0.000 C 
ATOM      7  C   UNL     1       1.979   6.457  17.916  0.00  0.00    +0.000 C 
ENDROOT
BRANCH   6   8
ATOM      8  C   UNL     1       3.939   4.798  17.784  0.00  0.00    +0.000 A 
ATOM      9  C   UNL     1       4.803   4.940  18.877  0.00  0.00    +0.000 A 
ATOM     10  C   UNL     1       6.188   4.755  18.715  0.00  0.00    +0.000 A 
ATOM     11  C   UNL     1       6.713   4.403  17.473  0.00  0.00    +0.000 A 
ATOM     12  C   UNL     1       5.884   4.260  16.373  0.00  0.00    +0.000 A 
ATOM     13  C   UNL     1       6.341   3.833  15.011  0.00  0.00    +0.000 C 
ATOM     14  C   UNL     1       4.518   4.492  16.548  0.00  0.00    +0.000 A 
BRANCH  11  15
ATOM     15  O   UNL     1       8.052   4.190  17.312  0.00  0.00    +0.000 OA
ATOM     16  H   UNL     1       8.259   3.294  17.629  0.00  0.00    +0.000 HD
ENDBRANCH  11  15
ENDBRANCH   6   8
BRANCH   1  17
ATOM     17  C   UNL     1       1.923   8.752  19.204  0.00  0.00    +0.000 C 
ATOM     18  C   UNL     1       1.400   9.167  17.811  0.00  0.00    +0.000 C 
BRANCH  17  19
ATOM     19  C   UNL     1       0.805   9.026  20.252  0.00  0.00    +0.000 C 
BRANCH  19  23
ATOM     20  C   UNL     1      -3.109  11.828  18.740  0.00  0.00    +0.000 C 
ATOM     21  C   UNL     1      -1.746  11.747  19.364  0.00  0.00    +0.000 A 
ATOM     22  C   UNL     1      -1.131  10.498  19.542  0.00  0.00    +0.000 A 
ATOM     23  C   UNL     1       0.157  10.388  20.089  0.00  0.00    +0.000 A 
ATOM     24  C   UNL     1       0.824  11.557  20.474  0.00  0.00    +0.000 A 
ATOM     25  C   UNL     1       0.218  12.810  20.314  0.00  0.00    +0.000 A 
ATOM     26  C   UNL     1      -1.057  12.894  19.755  0.00  0.00    +0.000 A 
BRANCH  26  27
ATOM     27  O   UNL     1      -1.652  14.109  19.578  0.00  0.00    +0.000 OA
ATOM     28  H   UNL     1      -1.262  14.541  18.800  0.00  0.00    +0.000 HD
ENDBRANCH  26  27
ENDBRANCH  19  23
ENDBRANCH  17  19
ENDBRANCH   1  17
TORSDOF 6
ENDMDL
MODEL 8
REMARK VINA RESULT:      -8.3      1.775      2.721
REMARK  Name = 
REMARK  10 active torsions:
REMARK  status: ('A' for Active; 'I' for Inactive)
REMARK    1  A    between atoms: C_1  and  C_2
REMARK    2  A    between atoms: C_4  and  C_5
REMARK    3  A    between atoms: C_5  and  C_6
REMARK    4  A    between atoms: C_6  and  C_7
REMARK    5  A    between atoms: C_6  and  C_8
REMARK    6  A    between atoms: C_11  and  C_12
REMARK    7  A    between atoms: C_13  and  C_14
REMARK    8  A    between atoms: C_17  and  O_18
REMARK    9  A    between atoms: C_19  and  C_20
REMARK   10  A    between atoms: C_25  and  O_26
REMARK                            x       y       z     vdW  Elec       q    Type
REMARK                         _______ _______ _______ _____ _____    ______ ____
ROOT
ATOM      1  C   UNL     1       2.409   6.307  19.655  0.00  0.00    +0.000 C 
ATOM      2  C   UNL     1       2.024   5.165  20.632  0.00  0.00    +0.000 C 
ATOM      3  C   UNL     1       2.269   3.720  20.193  0.00  0.00    +0.000 C 
ATOM      4  C   UNL     1       1.926   3.451  18.726  0.00  0.00    +0.000 C 
ATOM      5  C   UNL     1       2.329   2.028  18.326  0.00  0.00    +0.000 C 
ATOM      6  C   UNL     1       2.484   4.532  17.767  0.00  0.00    +0.000 C 
ATOM      7  C   UNL     1       1.985   5.935  18.219  0.00  0.00    +0.000 C 
ENDROOT
BRANCH   6   8
ATOM      8  C   UNL     1       3.997   4.485  17.545  0.00  0.00    +0.000 A 
ATOM      9  C   UNL     1       4.529   4.012  16.340  0.00  0.00    +0.000 A 
ATOM     10  C   UNL     1       5.920   4.000  16.134  0.00  0.00    +0.000 A 
ATOM     11  C   UNL     1       6.784   4.484  17.115  0.00  0.00    +0.000 A 
ATOM     12  C   UNL     1       6.288   4.954  18.320  0.00  0.00    +0.000 A 
ATOM     13  C   UNL     1       7.125   5.543  19.415  0.00  0.00    +0.000 C 
ATOM     14  C   UNL     1       4.906   4.915  18.519  0.00  0.00    +0.000 A 
BRANCH  11  15
ATOM     15  O   UNL     1       8.134   4.506  16.914  0.00  0.00    +0.000 OA
ATOM     16  H   UNL     1       8.403   5.427  16.752  0.00  0.00    +0.000 HD
ENDBRANCH  11  15
ENDBRANCH   6   8
BRANCH   1  17
ATOM     17  C   UNL     1       1.868   7.678  20.188  0.00  0.00    +0.000 C 
ATOM     18  C   UNL     1       1.827   8.702  19.032  0.00  0.00    +0.000 C 
BRANCH  17  19
ATOM     19  C   UNL     1       0.453   7.603  20.831  0.00  0.00    +0.000 C 
BRANCH  19  23
ATOM     20  C   UNL     1      -1.121  12.322  19.991  0.00  0.00    +0.000 C 
ATOM     21  C   UNL     1      -0.800  11.224  20.963  0.00  0.00    +0.000 A 
ATOM     22  C   UNL     1      -0.370   9.975  20.490  0.00  0.00    +0.000 A 
ATOM     23  C   UNL     1      -0.027   8.937  21.371  0.00  0.00    +0.000 A 
ATOM     24  C   UNL     1      -0.135   9.164  22.748  0.00  0.00    +0.000 A 
ATOM     25  C   UNL     1      -0.575  10.402  23.235  0.00  0.00    +0.000 A 
ATOM     26  C   UNL     1      -0.896  11.422  22.339  0.00  0.00    +0.000 A 
BRANCH  26  27
ATOM     27  O   UNL     1      -1.309  12.637  22.801  0.00  0.00    +0.000 OA
ATOM     28  H   UNL     1      -0.601  13.287  22.659  0.00  0.00    +0.000 HD
ENDBRANCH  26  27
ENDBRANCH  19  23
ENDBRANCH  17  19
ENDBRANCH   1  17
TORSDOF 6
ENDMDL
MODEL 9
REMARK VINA RESULT:      -8.3      0.883      2.141
REMARK  Name = 
REMARK  10 active torsions:
REMARK  status: ('A' for Active; 'I' for Inactive)
REMARK    1  A    between atoms: C_1  and  C_2
REMARK    2  A    between atoms: C_4  and  C_5
REMARK    3  A    between atoms: C_5  and  C_6
REMARK    4  A    between atoms: C_6  and  C_7
REMARK    5  A    between atoms: C_6  and  C_8
REMARK    6  A    between atoms: C_11  and  C_12
REMARK    7  A    between atoms: C_13  and  C_14
REMARK    8  A    between atoms: C_17  and  O_18
REMARK    9  A    between atoms: C_19  and  C_20
REMARK   10  A    between atoms: C_25  and  O_26
REMARK                            x       y       z     vdW  Elec       q    Type
REMARK                         _______ _______ _______ _____ _____    ______ ____
ROOT
ATOM      1  C   UNL     1       2.202   6.396  19.207  0.00  0.00    +0.000 C 
ATOM      2  C   UNL     1       1.960   5.502  20.452  0.00  0.00    +0.000 C 
ATOM      3  C   UNL     1       2.359   4.027  20.375  0.00  0.00    +0.000 C 
ATOM      4  C   UNL     1       2.029   3.364  19.037  0.00  0.00    +0.000 C 
ATOM      5  C   UNL     1       2.583   1.936  18.985  0.00  0.00    +0.000 C 
ATOM      6  C   UNL     1       2.449   4.222  17.817  0.00  0.00    +0.000 C 
ATOM      7  C   UNL     1       1.803   5.633  17.927  0.00  0.00    +0.000 C 
ENDROOT
BRANCH   6   8
ATOM      8  C   UNL     1       3.955   4.280  17.552  0.00  0.00    +0.000 A 
ATOM      9  C   UNL     1       4.485   3.838  16.334  0.00  0.00    +0.000 A 
ATOM     10  C   UNL     1       5.867   3.922  16.088  0.00  0.00    +0.000 A 
ATOM     11  C   UNL     1       6.722   4.472  17.042  0.00  0.00    +0.000 A 
ATOM     12  C   UNL     1       6.229   4.913  18.259  0.00  0.00    +0.000 A 
ATOM     13  C   UNL     1       7.053   5.566  19.327  0.00  0.00    +0.000 C 
ATOM     14  C   UNL     1       4.859   4.779  18.497  0.00  0.00    +0.000 A 
BRANCH  11  15
ATOM     15  O   UNL     1       8.061   4.588  16.802  0.00  0.00    +0.000 OA
ATOM     16  H   UNL     1       8.183   5.163  16.028  0.00  0.00    +0.000 HD
ENDBRANCH  11  15
ENDBRANCH   6   8
BRANCH   1  17
ATOM     17  C   UNL     1       1.519   7.793  19.405  0.00  0.00    +0.000 C 
ATOM     18  C   UNL     1       1.716   8.263  20.863  0.00  0.00    +0.000 C 
BRANCH  17  19
ATOM     19  C   UNL     1       2.046   8.905  18.452  0.00  0.00    +0.000 C 
BRANCH  19  23
ATOM     20  C   UNL     1       1.715  13.926  18.813  0.00  0.00    +0.000 C 
ATOM     21  C   UNL     1       1.036  12.598  18.641  0.00  0.00    +0.000 A 
ATOM     22  C   UNL     1       1.800  11.422  18.599  0.00  0.00    +0.000 A 
ATOM     23  C   UNL     1       1.196  10.161  18.475  0.00  0.00    +0.000 A 
ATOM     24  C   UNL     1      -0.199  10.093  18.378  0.00  0.00    +0.000 A 
ATOM     25  C   UNL     1      -0.974  11.260  18.406  0.00  0.00    +0.000 A 
ATOM     26  C   UNL     1      -0.351  12.500  18.544  0.00  0.00    +0.000 A 
BRANCH  26  27
ATOM     27  O   UNL     1      -1.095  13.642  18.589  0.00  0.00    +0.000 OA
ATOM     28  H   UNL     1      -1.278  13.936  17.681  0.00  0.00    +0.000 HD
ENDBRANCH  26  27
ENDBRANCH  19  23
ENDBRANCH  17  19
ENDBRANCH   1  17
TORSDOF 6
ENDMDL
