MODEL 1
REMARK VINA RESULT:      -7.3      0.000      0.000
REMARK  Name = 
REMARK  3 active torsions:
REMARK  status: ('A' for Active; 'I' for Inactive)
REMARK    1  A    between atoms: C_1  and  C_2
REMARK    2  A    between atoms: C_4  and  C_5
REMARK    3  A    between atoms: N_15  and  C_16
REMARK                            x       y       z     vdW  Elec       q    Type
REMARK                         _______ _______ _______ _____ _____    ______ ____
ROOT
ATOM      1  C   UNL     1      -2.719  13.641  22.713  0.00  0.00    +0.000 C 
ATOM      2  C   UNL     1      -1.881  12.447  22.445  0.00  0.00    +0.000 A 
ATOM      3  C   UNL     1      -1.634  11.359  23.298  0.00  0.00    +0.000 A 
ATOM      4  C   UNL     1      -0.795  10.521  22.595  0.00  0.00    +0.000 A 
ATOM      5  C   UNL     1      -0.193   9.234  23.020  0.00  0.00    +0.000 C 
ATOM      6  N   UNL     1      -0.589  11.120  21.358  0.00  0.00    +0.000 N 
ATOM      7  C   UNL     1       0.189  10.641  20.252  0.00  0.00    +0.000 A 
ATOM      8  C   UNL     1       0.295  11.432  19.128  0.00  0.00    +0.000 A 
ATOM      9  C   UNL     1       1.067  10.917  18.123  0.00  0.00    +0.000 A 
ATOM     10  N   UNL     1       1.678   9.721  18.193  0.00  0.00    +0.000 NA
ATOM     11  C   UNL     1       1.528   8.996  19.313  0.00  0.00    +0.000 A 
ATOM     12  N   UNL     1       2.157   7.785  19.406  0.00  0.00    +0.000 N 
ATOM     13  C   UNL     1       1.977   6.892  20.554  0.00  0.00    +0.000 C 
ATOM     14  C   UNL     1       1.383   5.538  20.103  0.00  0.00    +0.000 C 
ATOM     15  N   UNL     1       2.148   4.957  18.981  0.00  0.00    +0.000 N 
ATOM     16  C   UNL     1       2.339   5.868  17.834  0.00  0.00    +0.000 C 
ATOM     17  C   UNL     1       2.919   7.231  18.287  0.00  0.00    +0.000 C 
ATOM     18  N   UNL     1       0.794   9.431  20.346  0.00  0.00    +0.000 NA
ATOM     19  N   UNL     1      -1.249  12.315  21.277  0.00  0.00    +0.000 NA
ENDROOT
BRANCH  15  20
ATOM     20  C   UNL     1       2.833   3.759  19.077  0.00  0.00    +0.000 A 
ATOM     21  C   UNL     1       3.550   3.446  20.247  0.00  0.00    +0.000 A 
ATOM     22  C   UNL     1       4.278   2.257  20.385  0.00  0.00    +0.000 A 
ATOM     23  C   UNL     1       4.311   1.336  19.346  0.00  0.00    +0.000 A 
ATOM     24  C   UNL     1       3.619   1.610  18.172  0.00  0.00    +0.000 A 
ATOM     25  C   UNL     1       2.896   2.800  18.047  0.00  0.00    +0.000 A 
ATOM     26  F   UNL     1       2.212   2.980  16.904  0.00  0.00    +0.000 F 
ENDBRANCH  15  20
TORSDOF 1
ENDMDL
MODEL 2
REMARK VINA RESULT:      -7.1      4.007     10.396
REMARK  Name = 
REMARK  3 active torsions:
REMARK  status: ('A' for Active; 'I' for Inactive)
REMARK    1  A    between atoms: C_1  and  C_2
REMARK    2  A    between atoms: C_4  and  C_5
REMARK    3  A    between atoms: N_15  and  C_16
REMARK                            x       y       z     vdW  Elec       q    Type
REMARK                         _______ _______ _______ _____ _____    ______ ____
ROOT
ATOM      1  C   UNL     1       3.082   7.002  18.110  0.00  0.00    +0.000 C 
ATOM      2  C   UNL     1       2.184   8.105  18.530  0.00  0.00    +0.000 A 
ATOM      3  C   UNL     1       1.629   9.117  17.730  0.00  0.00    +0.000 A 
ATOM      4  C   UNL     1       0.878   9.895  18.584  0.00  0.00    +0.000 A 
ATOM      5  C   UNL     1       0.092  11.116  18.284  0.00  0.00    +0.000 C 
ATOM      6  N   UNL     1       0.992   9.317  19.843  0.00  0.00    +0.000 N 
ATOM      7  C   UNL     1       0.382   9.730  21.074  0.00  0.00    +0.000 A 
ATOM      8  C   UNL     1       0.679   9.030  22.224  0.00  0.00    +0.000 A 
ATOM      9  C   UNL     1       0.074   9.493  23.360  0.00  0.00    +0.000 A 
ATOM     10  N   UNL     1      -0.765  10.544  23.381  0.00  0.00    +0.000 NA
ATOM     11  C   UNL     1      -1.017  11.178  22.225  0.00  0.00    +0.000 A 
ATOM     12  N   UNL     1      -1.855  12.259  22.232  0.00  0.00    +0.000 N 
ATOM     13  C   UNL     1      -2.253  12.954  21.004  0.00  0.00    +0.000 C 
ATOM     14  C   UNL     1      -3.786  12.899  20.820  0.00  0.00    +0.000 C 
ATOM     15  N   UNL     1      -4.495  13.340  22.038  0.00  0.00    +0.000 N 
ATOM     16  C   UNL     1      -4.078  12.647  23.274  0.00  0.00    +0.000 C 
ATOM     17  C   UNL     1      -2.540  12.688  23.452  0.00  0.00    +0.000 C 
ATOM     18  N   UNL     1      -0.461  10.792  21.068  0.00  0.00    +0.000 NA
ATOM     19  N   UNL     1       1.811   8.222  19.806  0.00  0.00    +0.000 NA
ENDROOT
BRANCH  15  20
ATOM     20  C   UNL     1      -5.304  14.463  22.075  0.00  0.00    +0.000 A 
ATOM     21  C   UNL     1      -6.698  14.335  21.934  0.00  0.00    +0.000 A 
ATOM     22  C   UNL     1      -7.558  15.441  21.942  0.00  0.00    +0.000 A 
ATOM     23  C   UNL     1      -7.042  16.722  22.092  0.00  0.00    +0.000 A 
ATOM     24  C   UNL     1      -5.669  16.891  22.230  0.00  0.00    +0.000 A 
ATOM     25  C   UNL     1      -4.822  15.778  22.221  0.00  0.00    +0.000 A 
ATOM     26  F   UNL     1      -3.511  16.009  22.406  0.00  0.00    +0.000 F 
ENDBRANCH  15  20
TORSDOF 1
ENDMDL
MODEL 3
REMARK VINA RESULT:      -7.0      3.777      5.502
REMARK  Name = 
REMARK  3 active torsions:
REMARK  status: ('A' for Active; 'I' for Inactive)
REMARK    1  A    between atoms: C_1  and  C_2
REMARK    2  A    between atoms: C_4  and  C_5
REMARK    3  A    between atoms: N_15  and  C_16
REMARK                            x       y       z     vdW  Elec       q    Type
REMARK                         _______ _______ _______ _____ _____    ______ ____
ROOT
ATOM      1  C   UNL     1      -0.147   9.851  23.010  0.00  0.00    +0.000 C 
ATOM      2  C   UNL     1       0.494   9.271  21.805  0.00  0.00    +0.000 A 
ATOM      3  C   UNL     1       0.759   9.906  20.580  0.00  0.00    +0.000 A 
ATOM      4  C   UNL     1       1.355   8.949  19.788  0.00  0.00    +0.000 A 
ATOM      5  C   UNL     1       1.821   9.059  18.385  0.00  0.00    +0.000 C 
ATOM      6  N   UNL     1       1.442   7.798  20.563  0.00  0.00    +0.000 N 
ATOM      7  C   UNL     1       2.005   6.526  20.212  0.00  0.00    +0.000 A 
ATOM      8  C   UNL     1       1.938   5.500  21.130  0.00  0.00    +0.000 A 
ATOM      9  C   UNL     1       2.479   4.313  20.718  0.00  0.00    +0.000 A 
ATOM     10  N   UNL     1       3.053   4.134  19.515  0.00  0.00    +0.000 NA
ATOM     11  C   UNL     1       3.092   5.177  18.670  0.00  0.00    +0.000 A 
ATOM     12  N   UNL     1       3.658   5.008  17.436  0.00  0.00    +0.000 N 
ATOM     13  C   UNL     1       3.820   6.113  16.487  0.00  0.00    +0.000 C 
ATOM     14  C   UNL     1       5.313   6.326  16.150  0.00  0.00    +0.000 C 
ATOM     15  N   UNL     1       5.965   5.064  15.747  0.00  0.00    +0.000 N 
ATOM     16  C   UNL     1       5.783   3.949  16.701  0.00  0.00    +0.000 C 
ATOM     17  C   UNL     1       4.289   3.745  17.051  0.00  0.00    +0.000 C 
ATOM     18  N   UNL     1       2.580   6.372  18.993  0.00  0.00    +0.000 NA
ATOM     19  N   UNL     1       0.897   7.999  21.801  0.00  0.00    +0.000 NA
ENDROOT
BRANCH  15  20
ATOM     20  C   UNL     1       6.494   4.858  14.485  0.00  0.00    +0.000 A 
ATOM     21  C   UNL     1       7.673   5.522  14.097  0.00  0.00    +0.000 A 
ATOM     22  C   UNL     1       8.236   5.365  12.823  0.00  0.00    +0.000 A 
ATOM     23  C   UNL     1       7.632   4.531  11.892  0.00  0.00    +0.000 A 
ATOM     24  C   UNL     1       6.463   3.861  12.237  0.00  0.00    +0.000 A 
ATOM     25  C   UNL     1       5.911   4.026  13.511  0.00  0.00    +0.000 A 
ATOM     26  F   UNL     1       4.807   3.312  13.793  0.00  0.00    +0.000 F 
ENDBRANCH  15  20
TORSDOF 1
ENDMDL
MODEL 4
REMARK VINA RESULT:      -7.0      1.357      1.471
REMARK  Name = 
REMARK  3 active torsions:
REMARK  status: ('A' for Active; 'I' for Inactive)
REMARK    1  A    between atoms: C_1  and  C_2
REMARK    2  A    between atoms: C_4  and  C_5
REMARK    3  A    between atoms: N_15  and  C_16
REMARK                            x       y       z     vdW  Elec       q    Type
REMARK                         _______ _______ _______ _____ _____    ______ ____
ROOT
ATOM      1  C   UNL     1      -3.688  14.166  22.703  0.00  0.00    +0.000 C 
ATOM      2  C   UNL     1      -2.736  13.047  22.501  0.00  0.00    +0.000 A 
ATOM      3  C   UNL     1      -2.330  12.081  23.437  0.00  0.00    +0.000 A 
ATOM      4  C   UNL     1      -1.437  11.272  22.769  0.00  0.00    +0.000 A 
ATOM      5  C   UNL     1      -0.676  10.105  23.279  0.00  0.00    +0.000 C 
ATOM      6  N   UNL     1      -1.356  11.763  21.471  0.00  0.00    +0.000 N 
ATOM      7  C   UNL     1      -0.582  11.261  20.373  0.00  0.00    +0.000 A 
ATOM      8  C   UNL     1      -0.616  11.944  19.176  0.00  0.00    +0.000 A 
ATOM      9  C   UNL     1       0.161  11.415  18.182  0.00  0.00    +0.000 A 
ATOM     10  N   UNL     1       0.904  10.304  18.329  0.00  0.00    +0.000 NA
ATOM     11  C   UNL     1       0.887   9.682  19.518  0.00  0.00    +0.000 A 
ATOM     12  N   UNL     1       1.650   8.560  19.689  0.00  0.00    +0.000 N 
ATOM     13  C   UNL     1       1.624   7.771  20.925  0.00  0.00    +0.000 C 
ATOM     14  C   UNL     1       1.164   6.325  20.637  0.00  0.00    +0.000 C 
ATOM     15  N   UNL     1       1.936   5.719  19.533  0.00  0.00    +0.000 N 
ATOM     16  C   UNL     1       1.972   6.527  18.297  0.00  0.00    +0.000 C 
ATOM     17  C   UNL     1       2.417   7.981  18.586  0.00  0.00    +0.000 C 
ATOM     18  N   UNL     1       0.158  10.137  20.546  0.00  0.00    +0.000 NA
ATOM     19  N   UNL     1      -2.148  12.867  21.316  0.00  0.00    +0.000 NA
ENDROOT
BRANCH  15  20
ATOM     20  C   UNL     1       2.754   4.616  19.702  0.00  0.00    +0.000 A 
ATOM     21  C   UNL     1       4.075   4.635  19.218  0.00  0.00    +0.000 A 
ATOM     22  C   UNL     1       4.936   3.537  19.345  0.00  0.00    +0.000 A 
ATOM     23  C   UNL     1       4.496   2.374  19.965  0.00  0.00    +0.000 A 
ATOM     24  C   UNL     1       3.196   2.315  20.453  0.00  0.00    +0.000 A 
ATOM     25  C   UNL     1       2.347   3.418  20.321  0.00  0.00    +0.000 A 
ATOM     26  F   UNL     1       1.119   3.309  20.857  0.00  0.00    +0.000 F 
ENDBRANCH  15  20
TORSDOF 1
ENDMDL
MODEL 5
REMARK VINA RESULT:      -7.0      3.710     10.180
REMARK  Name = 
REMARK  3 active torsions:
REMARK  status: ('A' for Active; 'I' for Inactive)
REMARK    1  A    between atoms: C_1  and  C_2
REMARK    2  A    between atoms: C_4  and  C_5
REMARK    3  A    between atoms: N_15  and  C_16
REMARK                            x       y       z     vdW  Elec       q    Type
REMARK                         _______ _______ _______ _____ _____    ______ ____
ROOT
ATOM      1  C   UNL     1       3.316   6.397  18.504  0.00  0.00    +0.000 C 
ATOM      2  C   UNL     1       2.423   7.548  18.783  0.00  0.00    +0.000 A 
ATOM      3  C   UNL     1       1.899   8.474  17.866  0.00  0.00    +0.000 A 
ATOM      4  C   UNL     1       1.141   9.347  18.615  0.00  0.00    +0.000 A 
ATOM      5  C   UNL     1       0.378  10.538  18.168  0.00  0.00    +0.000 C 
ATOM      6  N   UNL     1       1.220   8.907  19.931  0.00  0.00    +0.000 N 
ATOM      7  C   UNL     1       0.589   9.456  21.096  0.00  0.00    +0.000 A 
ATOM      8  C   UNL     1       0.851   8.881  22.321  0.00  0.00    +0.000 A 
ATOM      9  C   UNL     1       0.228   9.470  23.387  0.00  0.00    +0.000 A 
ATOM     10  N   UNL     1      -0.597  10.526  23.276  0.00  0.00    +0.000 NA
ATOM     11  C   UNL     1      -0.816  11.035  22.053  0.00  0.00    +0.000 A 
ATOM     12  N   UNL     1      -1.639  12.119  21.925  0.00  0.00    +0.000 N 
ATOM     13  C   UNL     1      -2.001  12.682  20.621  0.00  0.00    +0.000 C 
ATOM     14  C   UNL     1      -3.530  12.625  20.409  0.00  0.00    +0.000 C 
ATOM     15  N   UNL     1      -4.260  13.202  21.556  0.00  0.00    +0.000 N 
ATOM     16  C   UNL     1      -3.878  12.641  22.869  0.00  0.00    +0.000 C 
ATOM     17  C   UNL     1      -2.344  12.684  23.076  0.00  0.00    +0.000 C 
ATOM     18  N   UNL     1      -0.240  10.521  20.957  0.00  0.00    +0.000 NA
ATOM     19  N   UNL     1       2.024   7.805  20.030  0.00  0.00    +0.000 NA
ENDROOT
BRANCH  15  20
ATOM     20  C   UNL     1      -5.054  14.331  21.454  0.00  0.00    +0.000 A 
ATOM     21  C   UNL     1      -4.467  15.590  21.233  0.00  0.00    +0.000 A 
ATOM     22  C   UNL     1      -5.225  16.766  21.143  0.00  0.00    +0.000 A 
ATOM     23  C   UNL     1      -6.607  16.715  21.274  0.00  0.00    +0.000 A 
ATOM     24  C   UNL     1      -7.224  15.489  21.496  0.00  0.00    +0.000 A 
ATOM     25  C   UNL     1      -6.456  14.324  21.583  0.00  0.00    +0.000 A 
ATOM     26  F   UNL     1      -7.121  13.168  21.753  0.00  0.00    +0.000 F 
ENDBRANCH  15  20
TORSDOF 1
ENDMDL
MODEL 6
REMARK VINA RESULT:      -7.0      3.827      5.568
REMARK  Name = 
REMARK  3 active torsions:
REMARK  status: ('A' for Active; 'I' for Inactive)
REMARK    1  A    between atoms: C_1  and  C_2
REMARK    2  A    between atoms: C_4  and  C_5
REMARK    3  A    between atoms: N_15  and  C_16
REMARK                            x       y       z     vdW  Elec       q    Type
REMARK                         _______ _______ _______ _____ _____    ______ ____
ROOT
ATOM      1  C   UNL     1      -0.052   9.996  22.992  0.00  0.00    +0.000 C 
ATOM      2  C   UNL     1       0.543   9.366  21.788  0.00  0.00    +0.000 A 
ATOM      3  C   UNL     1       0.793   9.960  20.540  0.00  0.00    +0.000 A 
ATOM      4  C   UNL     1       1.343   8.965  19.761  0.00  0.00    +0.000 A 
ATOM      5  C   UNL     1       1.777   9.024  18.344  0.00  0.00    +0.000 C 
ATOM      6  N   UNL     1       1.419   7.834  20.565  0.00  0.00    +0.000 N 
ATOM      7  C   UNL     1       1.939   6.538  20.236  0.00  0.00    +0.000 A 
ATOM      8  C   UNL     1       1.866   5.539  21.184  0.00  0.00    +0.000 A 
ATOM      9  C   UNL     1       2.365   4.327  20.792  0.00  0.00    +0.000 A 
ATOM     10  N   UNL     1       2.904   4.100  19.581  0.00  0.00    +0.000 NA
ATOM     11  C   UNL     1       2.950   5.118  18.706  0.00  0.00    +0.000 A 
ATOM     12  N   UNL     1       3.480   4.900  17.464  0.00  0.00    +0.000 N 
ATOM     13  C   UNL     1       3.648   5.974  16.481  0.00  0.00    +0.000 C 
ATOM     14  C   UNL     1       5.137   6.137  16.102  0.00  0.00    +0.000 C 
ATOM     15  N   UNL     1       5.744   4.846  15.719  0.00  0.00    +0.000 N 
ATOM     16  C   UNL     1       5.556   3.764  16.707  0.00  0.00    +0.000 C 
ATOM     17  C   UNL     1       4.066   3.610  17.099  0.00  0.00    +0.000 C 
ATOM     18  N   UNL     1       2.478   6.335  19.008  0.00  0.00    +0.000 NA
ATOM     19  N   UNL     1       0.911   8.084  21.810  0.00  0.00    +0.000 NA
ENDROOT
BRANCH  15  20
ATOM     20  C   UNL     1       6.236   4.592  14.450  0.00  0.00    +0.000 A 
ATOM     21  C   UNL     1       5.553   3.712  13.590  0.00  0.00    +0.000 A 
ATOM     22  C   UNL     1       6.021   3.405  12.306  0.00  0.00    +0.000 A 
ATOM     23  C   UNL     1       7.198   3.974  11.839  0.00  0.00    +0.000 A 
ATOM     24  C   UNL     1       7.904   4.846  12.660  0.00  0.00    +0.000 A 
ATOM     25  C   UNL     1       7.426   5.145  13.940  0.00  0.00    +0.000 A 
ATOM     26  F   UNL     1       8.133   6.031  14.662  0.00  0.00    +0.000 F 
ENDBRANCH  15  20
TORSDOF 1
ENDMDL
MODEL 7
REMARK VINA RESULT:      -7.0      2.827      3.820
REMARK  Name = 
REMARK  3 active torsions:
REMARK  status: ('A' for Active; 'I' for Inactive)
REMARK    1  A    between atoms: C_1  and  C_2
REMARK    2  A    between atoms: C_4  and  C_5
REMARK    3  A    between atoms: N_15  and  C_16
REMARK                            x       y       z     vdW  Elec       q    Type
REMARK                         _______ _______ _______ _____ _____    ______ ____
ROOT
ATOM      1  C   UNL     1      -0.348  14.557  22.112  0.00  0.00    +0.000 C 
ATOM      2  C   UNL     1       0.219  13.477  21.268  0.00  0.00    +0.000 A 
ATOM      3  C   UNL     1       0.842  13.600  20.015  0.00  0.00    +0.000 A 
ATOM      4  C   UNL     1       1.184  12.317  19.645  0.00  0.00    +0.000 A 
ATOM      5  C   UNL     1       1.845  11.851  18.402  0.00  0.00    +0.000 C 
ATOM      6  N   UNL     1       0.777  11.487  20.684  0.00  0.00    +0.000 N 
ATOM      7  C   UNL     1       0.924  10.065  20.801  0.00  0.00    +0.000 A 
ATOM      8  C   UNL     1       0.394   9.437  21.907  0.00  0.00    +0.000 A 
ATOM      9  C   UNL     1       0.557   8.079  21.940  0.00  0.00    +0.000 A 
ATOM     10  N   UNL     1       1.195   7.383  20.982  0.00  0.00    +0.000 NA
ATOM     11  C   UNL     1       1.694   8.056  19.934  0.00  0.00    +0.000 A 
ATOM     12  N   UNL     1       2.331   7.361  18.943  0.00  0.00    +0.000 N 
ATOM     13  C   UNL     1       2.980   8.025  17.809  0.00  0.00    +0.000 C 
ATOM     14  C   UNL     1       4.489   7.695  17.775  0.00  0.00    +0.000 C 
ATOM     15  N   UNL     1       4.729   6.240  17.861  0.00  0.00    +0.000 N 
ATOM     16  C   UNL     1       4.058   5.575  18.997  0.00  0.00    +0.000 C 
ATOM     17  C   UNL     1       2.549   5.918  19.041  0.00  0.00    +0.000 C 
ATOM     18  N   UNL     1       1.573   9.386  19.822  0.00  0.00    +0.000 NA
ATOM     19  N   UNL     1       0.169  12.207  21.675  0.00  0.00    +0.000 NA
ENDROOT
BRANCH  15  20
ATOM     20  C   UNL     1       5.324   5.513  16.844  0.00  0.00    +0.000 A 
ATOM     21  C   UNL     1       4.599   4.508  16.176  0.00  0.00    +0.000 A 
ATOM     22  C   UNL     1       5.163   3.731  15.156  0.00  0.00    +0.000 A 
ATOM     23  C   UNL     1       6.481   3.937  14.770  0.00  0.00    +0.000 A 
ATOM     24  C   UNL     1       7.231   4.918  15.409  0.00  0.00    +0.000 A 
ATOM     25  C   UNL     1       6.657   5.688  16.425  0.00  0.00    +0.000 A 
ATOM     26  F   UNL     1       7.424   6.650  16.967  0.00  0.00    +0.000 F 
ENDBRANCH  15  20
TORSDOF 1
ENDMDL
MODEL 8
REMARK VINA RESULT:      -6.9      2.998      8.868
REMARK  Name = 
REMARK  3 active torsions:
REMARK  status: ('A' for Active; 'I' for Inactive)
REMARK    1  A    between atoms: C_1  and  C_2
REMARK    2  A    between atoms: C_4  and  C_5
REMARK    3  A    between atoms: N_15  and  C_16
REMARK                            x       y       z     vdW  Elec       q    Type
REMARK                         _______ _______ _______ _____ _____    ______ ____
ROOT
ATOM      1  C   UNL     1       4.716   3.510  18.479  0.00  0.00    +0.000 C 
ATOM      2  C   UNL     1       3.752   4.500  19.017  0.00  0.00    +0.000 A 
ATOM      3  C   UNL     1       2.888   4.352  20.114  0.00  0.00    +0.000 A 
ATOM      4  C   UNL     1       2.196   5.541  20.202  0.00  0.00    +0.000 A 
ATOM      5  C   UNL     1       1.135   5.932  21.162  0.00  0.00    +0.000 C 
ATOM      6  N   UNL     1       2.677   6.352  19.182  0.00  0.00    +0.000 N 
ATOM      7  C   UNL     1       2.302   7.698  18.858  0.00  0.00    +0.000 A 
ATOM      8  C   UNL     1       2.880   8.298  17.760  0.00  0.00    +0.000 A 
ATOM      9  C   UNL     1       2.459   9.574  17.503  0.00  0.00    +0.000 A 
ATOM     10  N   UNL     1       1.557  10.226  18.258  0.00  0.00    +0.000 NA
ATOM     11  C   UNL     1       1.037   9.587  19.319  0.00  0.00    +0.000 A 
ATOM     12  N   UNL     1       0.106  10.230  20.088  0.00  0.00    +0.000 N 
ATOM     13  C   UNL     1      -0.447   9.641  21.310  0.00  0.00    +0.000 C 
ATOM     14  C   UNL     1      -0.136  10.532  22.533  0.00  0.00    +0.000 C 
ATOM     15  N   UNL     1      -0.523  11.937  22.293  0.00  0.00    +0.000 N 
ATOM     16  C   UNL     1       0.025  12.520  21.051  0.00  0.00    +0.000 C 
ATOM     17  C   UNL     1      -0.272  11.619  19.827  0.00  0.00    +0.000 C 
ATOM     18  N   UNL     1       1.391   8.334  19.636  0.00  0.00    +0.000 NA
ATOM     19  N   UNL     1       3.626   5.699  18.445  0.00  0.00    +0.000 NA
ENDROOT
BRANCH  15  20
ATOM     20  C   UNL     1      -1.500  12.586  23.028  0.00  0.00    +0.000 A 
ATOM     21  C   UNL     1      -2.719  11.939  23.308  0.00  0.00    +0.000 A 
ATOM     22  C   UNL     1      -3.748  12.560  24.028  0.00  0.00    +0.000 A 
ATOM     23  C   UNL     1      -3.588  13.859  24.494  0.00  0.00    +0.000 A 
ATOM     24  C   UNL     1      -2.399  14.532  24.234  0.00  0.00    +0.000 A 
ATOM     25  C   UNL     1      -1.380  13.901  23.515  0.00  0.00    +0.000 A 
ATOM     26  F   UNL     1      -0.240  14.593  23.340  0.00  0.00    +0.000 F 
ENDBRANCH  15  20
TORSDOF 1
ENDMDL
MODEL 9
REMARK VINA RESULT:      -6.9      1.239      1.405
REMARK  Name = 
REMARK  3 active torsions:
REMARK  status: ('A' for Active; 'I' for Inactive)
REMARK    1  A    between atoms: C_1  and  C_2
REMARK    2  A    between atoms: C_4  and  C_5
REMARK    3  A    between atoms: N_15  and  C_16
REMARK                            x       y       z     vdW  Elec       q    Type
REMARK                         _______ _______ _______ _____ _____    ______ ____
ROOT
ATOM      1  C   UNL     1      -3.421  14.027  22.798  0.00  0.00    +0.000 C 
ATOM      2  C   UNL     1      -2.504  12.890  22.547  0.00  0.00    +0.000 A 
ATOM      3  C   UNL     1      -2.172  11.841  23.420  0.00  0.00    +0.000 A 
ATOM      4  C   UNL     1      -1.282  11.049  22.726  0.00  0.00    +0.000 A 
ATOM      5  C   UNL     1      -0.586   9.818  23.173  0.00  0.00    +0.000 C 
ATOM      6  N   UNL     1      -1.132  11.633  21.474  0.00  0.00    +0.000 N 
ATOM      7  C   UNL     1      -0.333  11.184  20.370  0.00  0.00    +0.000 A 
ATOM      8  C   UNL     1      -0.294  11.956  19.228  0.00  0.00    +0.000 A 
ATOM      9  C   UNL     1       0.501  11.474  18.226  0.00  0.00    +0.000 A 
ATOM     10  N   UNL     1       1.197  10.326  18.314  0.00  0.00    +0.000 NA
ATOM     11  C   UNL     1       1.110   9.617  19.452  0.00  0.00    +0.000 A 
ATOM     12  N   UNL     1       1.823   8.456  19.564  0.00  0.00    +0.000 N 
ATOM     13  C   UNL     1       1.719   7.579  20.734  0.00  0.00    +0.000 C 
ATOM     14  C   UNL     1       1.219   6.177  20.320  0.00  0.00    +0.000 C 
ATOM     15  N   UNL     1       2.011   5.626  19.202  0.00  0.00    +0.000 N 
ATOM     16  C   UNL     1       2.126   6.522  18.033  0.00  0.00    +0.000 C 
ATOM     17  C   UNL     1       2.612   7.932  18.449  0.00  0.00    +0.000 C 
ATOM     18  N   UNL     1       0.357  10.022  20.484  0.00  0.00    +0.000 NA
ATOM     19  N   UNL     1      -1.876  12.776  21.374  0.00  0.00    +0.000 NA
ENDROOT
BRANCH  15  20
ATOM     20  C   UNL     1       2.781   4.482  19.316  0.00  0.00    +0.000 A 
ATOM     21  C   UNL     1       2.168   3.215  19.318  0.00  0.00    +0.000 A 
ATOM     22  C   UNL     1       2.901   2.028  19.453  0.00  0.00    +0.000 A 
ATOM     23  C   UNL     1       4.282   2.074  19.592  0.00  0.00    +0.000 A 
ATOM     24  C   UNL     1       4.924   3.307  19.598  0.00  0.00    +0.000 A 
ATOM     25  C   UNL     1       4.181   4.484  19.462  0.00  0.00    +0.000 A 
ATOM     26  F   UNL     1       4.870   5.638  19.430  0.00  0.00    +0.000 F 
ENDBRANCH  15  20
TORSDOF 1
ENDMDL
