MODEL 1
REMARK VINA RESULT:      -8.2      0.000      0.000
REMARK  Name = 
REMARK  9 active torsions:
REMARK  status: ('A' for Active; 'I' for Inactive)
REMARK    1  A    between atoms: C_1  and  O_2
REMARK    2  A    between atoms: O_2  and  C_3
REMARK    3  A    between atoms: C_6  and  N_7
REMARK    4  A    between atoms: C_8  and  C_10
REMARK    5  A    between atoms: C_18  and  N_19
REMARK    6  A    between atoms: N_21  and  C_22
REMARK    7  A    between atoms: C_22  and  C_23
REMARK    8  A    between atoms: C_31  and  O_32
REMARK    9  A    between atoms: O_32  and  C_33
REMARK                            x       y       z     vdW  Elec       q    Type
REMARK                         _______ _______ _______ _____ _____    ______ ____
ROOT
ATOM      1  C   UNL     1       2.096   8.033  18.845  0.00  0.00    +0.000 A 
ATOM      2  S   UNL     1       1.919   9.501  17.974  0.00  0.00    +0.000 S 
ATOM      3  C   UNL     1       1.161  10.262  19.277  0.00  0.00    +0.000 A 
ATOM      4  N   UNL     1       0.770  11.540  19.147  0.00  0.00    +0.000 NA
ATOM      5  C   UNL     1       0.147  12.050  20.228  0.00  0.00    +0.000 A 
ATOM      6  C   UNL     1      -0.116  11.339  21.402  0.00  0.00    +0.000 A 
ATOM      7  C   UNL     1       0.355  10.020  21.498  0.00  0.00    +0.000 A 
ATOM      8  C   UNL     1       1.010   9.443  20.386  0.00  0.00    +0.000 A 
ATOM      9  C   UNL     1       1.576   8.147  20.124  0.00  0.00    +0.000 A 
ATOM     10  C   UNL     1      -0.846  11.988  22.558  0.00  0.00    +0.000 C 
ATOM     11  N   UNL     1      -1.629  13.187  22.194  0.00  0.00    +0.000 NA
ATOM     12  C   UNL     1      -0.775  14.078  21.388  0.00  0.00    +0.000 C 
ATOM     13  C   UNL     1      -0.339  13.464  20.061  0.00  0.00    +0.000 C 
ENDROOT
BRANCH   1  15
ATOM     14  N   UNL     1       4.037   7.082  17.840  0.00  0.00    +0.000 N 
ATOM     15  C   UNL     1       2.712   6.878  18.200  0.00  0.00    +0.000 C 
ATOM     16  O   UNL     1       2.093   5.836  17.976  0.00  0.00    +0.000 OA
ATOM     17  H   UNL     1       4.324   8.049  17.788  0.00  0.00    +0.000 HD
BRANCH  14  21
ATOM     18  C   UNL     1       6.111   4.445  15.357  0.00  0.00    +0.000 A 
ATOM     19  C   UNL     1       5.514   5.591  14.827  0.00  0.00    +0.000 A 
ATOM     20  C   UNL     1       4.833   6.475  15.654  0.00  0.00    +0.000 A 
ATOM     21  C   UNL     1       4.713   6.177  17.012  0.00  0.00    +0.000 A 
ATOM     22  C   UNL     1       5.308   5.035  17.565  0.00  0.00    +0.000 A 
ATOM     23  C   UNL     1       6.009   4.166  16.727  0.00  0.00    +0.000 A 
BRANCH  18  25
ATOM     24  C   UNL     1       6.286   3.755  13.099  0.00  0.00    +0.000 C 
ATOM     25  O   UNL     1       6.759   3.670  14.436  0.00  0.00    +0.000 OA
ENDBRANCH  18  25
BRANCH  22  26
ATOM     26  O   UNL     1       5.236   4.921  18.930  0.00  0.00    +0.000 OA
ATOM     27  C   UNL     1       4.637   3.743  19.445  0.00  0.00    +0.000 C 
ENDBRANCH  22  26
ENDBRANCH  14  21
ENDBRANCH   1  15
BRANCH   9  28
ATOM     28  N   UNL     1       1.603   7.143  21.029  0.00  0.00    +0.000 N 
ATOM     29  H   UNL     1       1.050   6.298  20.950  0.00  0.00    +0.000 HD
ATOM     30  H   UNL     1       2.363   7.082  21.712  0.00  0.00    +0.000 HD
ENDBRANCH   9  28
BRANCH  11  31
ATOM     31  C   UNL     1      -2.896  12.804  21.536  0.00  0.00    +0.000 C 
BRANCH  31  32
ATOM     32  C   UNL     1      -4.106  12.743  22.447  0.00  0.00    +0.000 A 
ATOM     33  C   UNL     1      -5.401  12.808  21.908  0.00  0.00    +0.000 A 
ATOM     34  C   UNL     1      -6.521  12.745  22.738  0.00  0.00    +0.000 A 
ATOM     35  C   UNL     1      -6.360  12.611  24.115  0.00  0.00    +0.000 A 
ATOM     36  C   UNL     1      -5.080  12.539  24.662  0.00  0.00    +0.000 A 
ATOM     37  C   UNL     1      -3.958  12.606  23.833  0.00  0.00    +0.000 A 
ENDBRANCH  31  32
ENDBRANCH  11  31
TORSDOF 7
ENDMDL
MODEL 2
REMARK VINA RESULT:      -8.0      0.544      1.013
REMARK  Name = 
REMARK  9 active torsions:
REMARK  status: ('A' for Active; 'I' for Inactive)
REMARK    1  A    between atoms: C_1  and  O_2
REMARK    2  A    between atoms: O_2  and  C_3
REMARK    3  A    between atoms: C_6  and  N_7
REMARK    4  A    between atoms: C_8  and  C_10
REMARK    5  A    between atoms: C_18  and  N_19
REMARK    6  A    between atoms: N_21  and  C_22
REMARK    7  A    between atoms: C_22  and  C_23
REMARK    8  A    between atoms: C_31  and  O_32
REMARK    9  A    between atoms: O_32  and  C_33
REMARK                            x       y       z     vdW  Elec       q    Type
REMARK                         _______ _______ _______ _____ _____    ______ ____
ROOT
ATOM      1  C   UNL     1       2.126   8.083  18.822  0.00  0.00    +0.000 A 
ATOM      2  S   UNL     1       1.902   9.531  17.928  0.00  0.00    +0.000 S 
ATOM      3  C   UNL     1       1.086  10.274  19.205  0.00  0.00    +0.000 A 
ATOM      4  N   UNL     1       0.642  11.532  19.051  0.00  0.00    +0.000 NA
ATOM      5  C   UNL     1      -0.024  12.028  20.112  0.00  0.00    +0.000 A 
ATOM      6  C   UNL     1      -0.280  11.320  21.290  0.00  0.00    +0.000 A 
ATOM      7  C   UNL     1       0.247  10.025  21.413  0.00  0.00    +0.000 A 
ATOM      8  C   UNL     1       0.948   9.463  20.322  0.00  0.00    +0.000 A 
ATOM      9  C   UNL     1       1.575   8.190  20.089  0.00  0.00    +0.000 A 
ATOM     10  C   UNL     1      -1.060  11.952  22.423  0.00  0.00    +0.000 C 
ATOM     11  N   UNL     1      -1.887  13.110  22.028  0.00  0.00    +0.000 NA
ATOM     12  C   UNL     1      -1.057  14.027  21.226  0.00  0.00    +0.000 C 
ATOM     13  C   UNL     1      -0.568  13.416  19.917  0.00  0.00    +0.000 C 
ENDROOT
BRANCH   1  15
ATOM     14  N   UNL     1       4.109   7.222  17.819  0.00  0.00    +0.000 N 
ATOM     15  C   UNL     1       2.805   6.948  18.204  0.00  0.00    +0.000 C 
ATOM     16  O   UNL     1       2.249   5.863  18.023  0.00  0.00    +0.000 OA
ATOM     17  H   UNL     1       4.335   8.203  17.732  0.00  0.00    +0.000 HD
BRANCH  14  21
ATOM     18  C   UNL     1       6.305   4.642  15.381  0.00  0.00    +0.000 A 
ATOM     19  C   UNL     1       5.492   5.626  14.815  0.00  0.00    +0.000 A 
ATOM     20  C   UNL     1       4.769   6.492  15.625  0.00  0.00    +0.000 A 
ATOM     21  C   UNL     1       4.830   6.335  17.011  0.00  0.00    +0.000 A 
ATOM     22  C   UNL     1       5.643   5.356  17.599  0.00  0.00    +0.000 A 
ATOM     23  C   UNL     1       6.382   4.506  16.774  0.00  0.00    +0.000 A 
BRANCH  18  25
ATOM     24  C   UNL     1       6.355   3.727  13.198  0.00  0.00    +0.000 C 
ATOM     25  O   UNL     1       6.969   3.868  14.471  0.00  0.00    +0.000 OA
ENDBRANCH  18  25
BRANCH  22  26
ATOM     26  O   UNL     1       5.723   5.386  18.968  0.00  0.00    +0.000 OA
ATOM     27  C   UNL     1       7.015   5.542  19.533  0.00  0.00    +0.000 C 
ENDBRANCH  22  26
ENDBRANCH  14  21
ENDBRANCH   1  15
BRANCH   9  28
ATOM     28  N   UNL     1       1.629   7.200  21.007  0.00  0.00    +0.000 N 
ATOM     29  H   UNL     1       0.980   7.113  21.782  0.00  0.00    +0.000 HD
ATOM     30  H   UNL     1       2.179   6.356  20.828  0.00  0.00    +0.000 HD
ENDBRANCH   9  28
BRANCH  11  31
ATOM     31  C   UNL     1      -3.123  12.663  21.350  0.00  0.00    +0.000 C 
BRANCH  31  32
ATOM     32  C   UNL     1      -4.375  12.686  22.205  0.00  0.00    +0.000 A 
ATOM     33  C   UNL     1      -4.276  12.802  23.600  0.00  0.00    +0.000 A 
ATOM     34  C   UNL     1      -5.423  12.832  24.395  0.00  0.00    +0.000 A 
ATOM     35  C   UNL     1      -6.681  12.750  23.805  0.00  0.00    +0.000 A 
ATOM     36  C   UNL     1      -6.793  12.640  22.419  0.00  0.00    +0.000 A 
ATOM     37  C   UNL     1      -5.647  12.607  21.623  0.00  0.00    +0.000 A 
ENDBRANCH  31  32
ENDBRANCH  11  31
TORSDOF 7
ENDMDL
MODEL 3
REMARK VINA RESULT:      -7.5      4.108     11.422
REMARK  Name = 
REMARK  9 active torsions:
REMARK  status: ('A' for Active; 'I' for Inactive)
REMARK    1  A    between atoms: C_1  and  O_2
REMARK    2  A    between atoms: O_2  and  C_3
REMARK    3  A    between atoms: C_6  and  N_7
REMARK    4  A    between atoms: C_8  and  C_10
REMARK    5  A    between atoms: C_18  and  N_19
REMARK    6  A    between atoms: N_21  and  C_22
REMARK    7  A    between atoms: C_22  and  C_23
REMARK    8  A    between atoms: C_31  and  O_32
REMARK    9  A    between atoms: O_32  and  C_33
REMARK                            x       y       z     vdW  Elec       q    Type
REMARK                         _______ _______ _______ _____ _____    ______ ____
ROOT
ATOM      1  C   UNL     1      -0.791  11.548  20.559  0.00  0.00    +0.000 A 
ATOM      2  S   UNL     1      -0.405  10.284  21.654  0.00  0.00    +0.000 S 
ATOM      3  C   UNL     1       0.604   9.527  20.531  0.00  0.00    +0.000 A 
ATOM      4  N   UNL     1       1.231   8.392  20.879  0.00  0.00    +0.000 NA
ATOM      5  C   UNL     1       1.987   7.846  19.908  0.00  0.00    +0.000 A 
ATOM      6  C   UNL     1       2.121   8.367  18.617  0.00  0.00    +0.000 A 
ATOM      7  C   UNL     1       1.478   9.580  18.323  0.00  0.00    +0.000 A 
ATOM      8  C   UNL     1       0.669  10.186  19.311  0.00  0.00    +0.000 A 
ATOM      9  C   UNL     1      -0.139  11.374  19.348  0.00  0.00    +0.000 A 
ATOM     10  C   UNL     1       2.975   7.670  17.580  0.00  0.00    +0.000 C 
ATOM     11  N   UNL     1       3.246   6.246  17.865  0.00  0.00    +0.000 NA
ATOM     12  C   UNL     1       3.699   6.125  19.262  0.00  0.00    +0.000 C 
ATOM     13  C   UNL     1       2.645   6.546  20.281  0.00  0.00    +0.000 C 
ENDROOT
BRANCH   1  15
ATOM     14  N   UNL     1      -2.258  12.409  22.229  0.00  0.00    +0.000 N 
ATOM     15  C   UNL     1      -1.720  12.598  20.963  0.00  0.00    +0.000 C 
ATOM     16  O   UNL     1      -2.011  13.543  20.228  0.00  0.00    +0.000 OA
ATOM     17  H   UNL     1      -2.191  11.466  22.587  0.00  0.00    +0.000 HD
BRANCH  14  21
ATOM     18  C   UNL     1      -5.486  14.649  23.634  0.00  0.00    +0.000 A 
ATOM     19  C   UNL     1      -5.697  13.581  22.760  0.00  0.00    +0.000 A 
ATOM     20  C   UNL     1      -4.624  12.828  22.300  0.00  0.00    +0.000 A 
ATOM     21  C   UNL     1      -3.331  13.183  22.686  0.00  0.00    +0.000 A 
ATOM     22  C   UNL     1      -3.098  14.249  23.566  0.00  0.00    +0.000 A 
ATOM     23  C   UNL     1      -4.187  14.984  24.039  0.00  0.00    +0.000 A 
BRANCH  18  25
ATOM     24  C   UNL     1      -7.835  14.852  23.417  0.00  0.00    +0.000 C 
ATOM     25  O   UNL     1      -6.627  15.296  24.018  0.00  0.00    +0.000 OA
ENDBRANCH  18  25
BRANCH  22  26
ATOM     26  O   UNL     1      -1.800  14.416  23.977  0.00  0.00    +0.000 OA
ATOM     27  C   UNL     1      -1.586  15.245  25.108  0.00  0.00    +0.000 C 
ENDBRANCH  22  26
ENDBRANCH  14  21
ENDBRANCH   1  15
BRANCH   9  28
ATOM     28  N   UNL     1      -0.251  12.238  18.314  0.00  0.00    +0.000 N 
ATOM     29  H   UNL     1      -1.127  12.654  18.019  0.00  0.00    +0.000 HD
ATOM     30  H   UNL     1       0.578  12.699  17.931  0.00  0.00    +0.000 HD
ENDBRANCH   9  28
BRANCH  11  31
ATOM     31  C   UNL     1       2.068   5.414  17.536  0.00  0.00    +0.000 C 
BRANCH  31  32
ATOM     32  C   UNL     1       2.147   3.971  17.994  0.00  0.00    +0.000 A 
ATOM     33  C   UNL     1       3.200   3.149  17.563  0.00  0.00    +0.000 A 
ATOM     34  C   UNL     1       3.285   1.822  17.986  0.00  0.00    +0.000 A 
ATOM     35  C   UNL     1       2.321   1.302  18.845  0.00  0.00    +0.000 A 
ATOM     36  C   UNL     1       1.273   2.110  19.285  0.00  0.00    +0.000 A 
ATOM     37  C   UNL     1       1.184   3.437  18.861  0.00  0.00    +0.000 A 
ENDBRANCH  31  32
ENDBRANCH  11  31
TORSDOF 7
ENDMDL
MODEL 4
REMARK VINA RESULT:      -7.4      4.255     11.484
REMARK  Name = 
REMARK  9 active torsions:
REMARK  status: ('A' for Active; 'I' for Inactive)
REMARK    1  A    between atoms: C_1  and  O_2
REMARK    2  A    between atoms: O_2  and  C_3
REMARK    3  A    between atoms: C_6  and  N_7
REMARK    4  A    between atoms: C_8  and  C_10
REMARK    5  A    between atoms: C_18  and  N_19
REMARK    6  A    between atoms: N_21  and  C_22
REMARK    7  A    between atoms: C_22  and  C_23
REMARK    8  A    between atoms: C_31  and  O_32
REMARK    9  A    between atoms: O_32  and  C_33
REMARK                            x       y       z     vdW  Elec       q    Type
REMARK                         _______ _______ _______ _____ _____    ______ ____
ROOT
ATOM      1  C   UNL     1      -1.074  11.777  20.608  0.00  0.00    +0.000 A 
ATOM      2  S   UNL     1      -0.614  10.561  21.729  0.00  0.00    +0.000 S 
ATOM      3  C   UNL     1       0.365   9.787  20.591  0.00  0.00    +0.000 A 
ATOM      4  N   UNL     1       1.032   8.679  20.952  0.00  0.00    +0.000 NA
ATOM      5  C   UNL     1       1.760   8.115  19.968  0.00  0.00    +0.000 A 
ATOM      6  C   UNL     1       1.828   8.594  18.657  0.00  0.00    +0.000 A 
ATOM      7  C   UNL     1       1.146   9.781  18.348  0.00  0.00    +0.000 A 
ATOM      8  C   UNL     1       0.365  10.404  19.348  0.00  0.00    +0.000 A 
ATOM      9  C   UNL     1      -0.468  11.575  19.378  0.00  0.00    +0.000 A 
ATOM     10  C   UNL     1       2.655   7.879  17.609  0.00  0.00    +0.000 C 
ATOM     11  N   UNL     1       2.970   6.472  17.931  0.00  0.00    +0.000 NA
ATOM     12  C   UNL     1       3.483   6.410  19.311  0.00  0.00    +0.000 C 
ATOM     13  C   UNL     1       2.462   6.844  20.359  0.00  0.00    +0.000 C 
ENDROOT
BRANCH   1  15
ATOM     14  N   UNL     1      -2.729  12.507  22.159  0.00  0.00    +0.000 N 
ATOM     15  C   UNL     1      -2.009  12.821  21.015  0.00  0.00    +0.000 C 
ATOM     16  O   UNL     1      -2.155  13.864  20.377  0.00  0.00    +0.000 OA
ATOM     17  H   UNL     1      -2.751  11.526  22.398  0.00  0.00    +0.000 HD
BRANCH  14  21
ATOM     18  C   UNL     1      -5.966  14.874  23.319  0.00  0.00    +0.000 A 
ATOM     19  C   UNL     1      -4.681  15.160  23.785  0.00  0.00    +0.000 A 
ATOM     20  C   UNL     1      -3.601  14.379  23.391  0.00  0.00    +0.000 A 
ATOM     21  C   UNL     1      -3.826  13.279  22.562  0.00  0.00    +0.000 A 
ATOM     22  C   UNL     1      -5.107  12.978  22.081  0.00  0.00    +0.000 A 
ATOM     23  C   UNL     1      -6.180  13.782  22.467  0.00  0.00    +0.000 A 
BRANCH  18  25
ATOM     24  C   UNL     1      -6.777  17.096  23.425  0.00  0.00    +0.000 C 
ATOM     25  O   UNL     1      -6.932  15.727  23.774  0.00  0.00    +0.000 OA
ENDBRANCH  18  25
BRANCH  22  26
ATOM     26  O   UNL     1      -5.181  11.955  21.170  0.00  0.00    +0.000 OA
ATOM     27  C   UNL     1      -6.375  11.856  20.410  0.00  0.00    +0.000 C 
ENDBRANCH  22  26
ENDBRANCH  14  21
ENDBRANCH   1  15
BRANCH   9  28
ATOM     28  N   UNL     1      -0.643  12.399  18.321  0.00  0.00    +0.000 N 
ATOM     29  H   UNL     1      -0.180  13.295  18.221  0.00  0.00    +0.000 HD
ATOM     30  H   UNL     1      -1.066  12.051  17.456  0.00  0.00    +0.000 HD
ENDBRANCH   9  28
BRANCH  11  31
ATOM     31  C   UNL     1       1.799   5.604  17.680  0.00  0.00    +0.000 C 
BRANCH  31  32
ATOM     32  C   UNL     1       1.974   4.151  18.075  0.00  0.00    +0.000 A 
ATOM     33  C   UNL     1       1.147   3.580  19.055  0.00  0.00    +0.000 A 
ATOM     34  C   UNL     1       1.295   2.241  19.419  0.00  0.00    +0.000 A 
ATOM     35  C   UNL     1       2.269   1.457  18.807  0.00  0.00    +0.000 A 
ATOM     36  C   UNL     1       3.094   2.011  17.828  0.00  0.00    +0.000 A 
ATOM     37  C   UNL     1       2.949   3.351  17.464  0.00  0.00    +0.000 A 
ENDBRANCH  31  32
ENDBRANCH  11  31
TORSDOF 7
ENDMDL
MODEL 5
REMARK VINA RESULT:      -7.3      1.172      1.673
REMARK  Name = 
REMARK  9 active torsions:
REMARK  status: ('A' for Active; 'I' for Inactive)
REMARK    1  A    between atoms: C_1  and  O_2
REMARK    2  A    between atoms: O_2  and  C_3
REMARK    3  A    between atoms: C_6  and  N_7
REMARK    4  A    between atoms: C_8  and  C_10
REMARK    5  A    between atoms: C_18  and  N_19
REMARK    6  A    between atoms: N_21  and  C_22
REMARK    7  A    between atoms: C_22  and  C_23
REMARK    8  A    between atoms: C_31  and  O_32
REMARK    9  A    between atoms: O_32  and  C_33
REMARK                            x       y       z     vdW  Elec       q    Type
REMARK                         _______ _______ _______ _____ _____    ______ ____
ROOT
ATOM      1  C   UNL     1       2.040   8.195  19.194  0.00  0.00    +0.000 A 
ATOM      2  S   UNL     1       1.763   9.511  18.127  0.00  0.00    +0.000 S 
ATOM      3  C   UNL     1       0.867  10.350  19.287  0.00  0.00    +0.000 A 
ATOM      4  N   UNL     1       0.358  11.552  18.972  0.00  0.00    +0.000 NA
ATOM      5  C   UNL     1      -0.368  12.130  19.950  0.00  0.00    +0.000 A 
ATOM      6  C   UNL     1      -0.619  11.553  21.198  0.00  0.00    +0.000 A 
ATOM      7  C   UNL     1      -0.024  10.315  21.488  0.00  0.00    +0.000 A 
ATOM      8  C   UNL     1       0.741   9.670  20.490  0.00  0.00    +0.000 A 
ATOM      9  C   UNL     1       1.446   8.419  20.426  0.00  0.00    +0.000 A 
ATOM     10  C   UNL     1      -1.468  12.267  22.229  0.00  0.00    +0.000 C 
ATOM     11  N   UNL     1      -2.347  13.319  21.678  0.00  0.00    +0.000 NA
ATOM     12  C   UNL     1      -1.545  14.182  20.791  0.00  0.00    +0.000 C 
ATOM     13  C   UNL     1      -0.983  13.451  19.577  0.00  0.00    +0.000 C 
ENDROOT
BRANCH   1  15
ATOM     14  N   UNL     1       3.880   7.366  17.925  0.00  0.00    +0.000 N 
ATOM     15  C   UNL     1       2.800   7.038  18.733  0.00  0.00    +0.000 C 
ATOM     16  O   UNL     1       2.484   5.882  19.020  0.00  0.00    +0.000 OA
ATOM     17  H   UNL     1       3.845   8.290  17.516  0.00  0.00    +0.000 HD
BRANCH  14  21
ATOM     18  C   UNL     1       5.907   4.453  15.729  0.00  0.00    +0.000 A 
ATOM     19  C   UNL     1       4.590   4.237  16.140  0.00  0.00    +0.000 A 
ATOM     20  C   UNL     1       3.911   5.210  16.862  0.00  0.00    +0.000 A 
ATOM     21  C   UNL     1       4.578   6.385  17.210  0.00  0.00    +0.000 A 
ATOM     22  C   UNL     1       5.897   6.623  16.804  0.00  0.00    +0.000 A 
ATOM     23  C   UNL     1       6.562   5.647  16.060  0.00  0.00    +0.000 A 
BRANCH  18  25
ATOM     24  C   UNL     1       6.429   3.553  13.602  0.00  0.00    +0.000 C 
ATOM     25  O   UNL     1       6.451   3.421  15.017  0.00  0.00    +0.000 OA
ENDBRANCH  18  25
BRANCH  22  26
ATOM     26  O   UNL     1       6.400   7.868  17.092  0.00  0.00    +0.000 OA
ATOM     27  C   UNL     1       7.719   7.924  17.609  0.00  0.00    +0.000 C 
ENDBRANCH  22  26
ENDBRANCH  14  21
ENDBRANCH   1  15
BRANCH   9  28
ATOM     28  N   UNL     1       1.527   7.550  21.457  0.00  0.00    +0.000 N 
ATOM     29  H   UNL     1       0.769   7.373  22.107  0.00  0.00    +0.000 HD
ATOM     30  H   UNL     1       2.274   6.851  21.489  0.00  0.00    +0.000 HD
ENDBRANCH   9  28
BRANCH  11  31
ATOM     31  C   UNL     1      -3.534  12.722  21.029  0.00  0.00    +0.000 C 
BRANCH  31  32
ATOM     32  C   UNL     1      -4.792  12.704  21.874  0.00  0.00    +0.000 A 
ATOM     33  C   UNL     1      -4.724  12.973  23.250  0.00  0.00    +0.000 A 
ATOM     34  C   UNL     1      -5.879  12.967  24.034  0.00  0.00    +0.000 A 
ATOM     35  C   UNL     1      -7.114  12.695  23.452  0.00  0.00    +0.000 A 
ATOM     36  C   UNL     1      -7.196  12.432  22.085  0.00  0.00    +0.000 A 
ATOM     37  C   UNL     1      -6.042  12.435  21.300  0.00  0.00    +0.000 A 
ENDBRANCH  31  32
ENDBRANCH  11  31
TORSDOF 7
ENDMDL
MODEL 6
REMARK VINA RESULT:      -7.3      4.317     11.430
REMARK  Name = 
REMARK  9 active torsions:
REMARK  status: ('A' for Active; 'I' for Inactive)
REMARK    1  A    between atoms: C_1  and  O_2
REMARK    2  A    between atoms: O_2  and  C_3
REMARK    3  A    between atoms: C_6  and  N_7
REMARK    4  A    between atoms: C_8  and  C_10
REMARK    5  A    between atoms: C_18  and  N_19
REMARK    6  A    between atoms: N_21  and  C_22
REMARK    7  A    between atoms: C_22  and  C_23
REMARK    8  A    between atoms: C_31  and  O_32
REMARK    9  A    between atoms: O_32  and  C_33
REMARK                            x       y       z     vdW  Elec       q    Type
REMARK                         _______ _______ _______ _____ _____    ______ ____
ROOT
ATOM      1  C   UNL     1      -1.162  11.986  20.298  0.00  0.00    +0.000 A 
ATOM      2  S   UNL     1      -0.781  10.801  21.479  0.00  0.00    +0.000 S 
ATOM      3  C   UNL     1       0.244   9.978  20.419  0.00  0.00    +0.000 A 
ATOM      4  N   UNL     1       0.874   8.872  20.850  0.00  0.00    +0.000 NA
ATOM      5  C   UNL     1       1.645   8.268  19.925  0.00  0.00    +0.000 A 
ATOM      6  C   UNL     1       1.790   8.703  18.604  0.00  0.00    +0.000 A 
ATOM      7  C   UNL     1       1.144   9.890  18.223  0.00  0.00    +0.000 A 
ATOM      8  C   UNL     1       0.320  10.554  19.160  0.00  0.00    +0.000 A 
ATOM      9  C   UNL     1      -0.495  11.737  19.108  0.00  0.00    +0.000 A 
ATOM     10  C   UNL     1       2.660   7.944  17.625  0.00  0.00    +0.000 C 
ATOM     11  N   UNL     1       2.936   6.544  18.007  0.00  0.00    +0.000 NA
ATOM     12  C   UNL     1       3.374   6.519  19.414  0.00  0.00    +0.000 C 
ATOM     13  C   UNL     1       2.306   7.000  20.391  0.00  0.00    +0.000 C 
ENDROOT
BRANCH   1  15
ATOM     14  N   UNL     1      -3.279  12.605  21.201  0.00  0.00    +0.000 N 
ATOM     15  C   UNL     1      -2.102  13.055  20.621  0.00  0.00    +0.000 C 
ATOM     16  O   UNL     1      -1.869  14.239  20.371  0.00  0.00    +0.000 OA
ATOM     17  H   UNL     1      -3.478  11.623  21.064  0.00  0.00    +0.000 HD
BRANCH  14  21
ATOM     18  C   UNL     1      -6.613  15.072  21.671  0.00  0.00    +0.000 A 
ATOM     19  C   UNL     1      -6.301  14.540  20.418  0.00  0.00    +0.000 A 
ATOM     20  C   UNL     1      -5.197  13.710  20.263  0.00  0.00    +0.000 A 
ATOM     21  C   UNL     1      -4.380  13.454  21.365  0.00  0.00    +0.000 A 
ATOM     22  C   UNL     1      -4.679  13.974  22.631  0.00  0.00    +0.000 A 
ATOM     23  C   UNL     1      -5.803  14.789  22.780  0.00  0.00    +0.000 A 
BRANCH  18  25
ATOM     24  C   UNL     1      -7.588  17.161  21.133  0.00  0.00    +0.000 C 
ATOM     25  O   UNL     1      -7.729  15.860  21.686  0.00  0.00    +0.000 OA
ENDBRANCH  18  25
BRANCH  22  26
ATOM     26  O   UNL     1      -3.880  13.545  23.661  0.00  0.00    +0.000 OA
ATOM     27  C   UNL     1      -4.434  12.587  24.548  0.00  0.00    +0.000 C 
ENDBRANCH  22  26
ENDBRANCH  14  21
ENDBRANCH   1  15
BRANCH   9  28
ATOM     28  N   UNL     1      -0.601  12.529  18.019  0.00  0.00    +0.000 N 
ATOM     29  H   UNL     1      -1.201  13.344  17.969  0.00  0.00    +0.000 HD
ATOM     30  H   UNL     1       0.100  12.483  17.274  0.00  0.00    +0.000 HD
ENDBRANCH   9  28
BRANCH  11  31
ATOM     31  C   UNL     1       1.767   5.684  17.721  0.00  0.00    +0.000 C 
BRANCH  31  32
ATOM     32  C   UNL     1       1.932   4.224  18.091  0.00  0.00    +0.000 A 
ATOM     33  C   UNL     1       2.845   3.417  17.394  0.00  0.00    +0.000 A 
ATOM     34  C   UNL     1       3.010   2.073  17.732  0.00  0.00    +0.000 A 
ATOM     35  C   UNL     1       2.267   1.521  18.772  0.00  0.00    +0.000 A 
ATOM     36  C   UNL     1       1.360   2.313  19.476  0.00  0.00    +0.000 A 
ATOM     37  C   UNL     1       1.192   3.657  19.137  0.00  0.00    +0.000 A 
ENDBRANCH  31  32
ENDBRANCH  11  31
TORSDOF 7
ENDMDL
MODEL 7
REMARK VINA RESULT:      -7.3      4.102     11.348
REMARK  Name = 
REMARK  9 active torsions:
REMARK  status: ('A' for Active; 'I' for Inactive)
REMARK    1  A    between atoms: C_1  and  O_2
REMARK    2  A    between atoms: O_2  and  C_3
REMARK    3  A    between atoms: C_6  and  N_7
REMARK    4  A    between atoms: C_8  and  C_10
REMARK    5  A    between atoms: C_18  and  N_19
REMARK    6  A    between atoms: N_21  and  C_22
REMARK    7  A    between atoms: C_22  and  C_23
REMARK    8  A    between atoms: C_31  and  O_32
REMARK    9  A    between atoms: O_32  and  C_33
REMARK                            x       y       z     vdW  Elec       q    Type
REMARK                         _______ _______ _______ _____ _____    ______ ____
ROOT
ATOM      1  C   UNL     1      -0.788  11.529  20.373  0.00  0.00    +0.000 A 
ATOM      2  S   UNL     1      -0.471  10.247  21.469  0.00  0.00    +0.000 S 
ATOM      3  C   UNL     1       0.590   9.497  20.391  0.00  0.00    +0.000 A 
ATOM      4  N   UNL     1       1.189   8.352  20.757  0.00  0.00    +0.000 NA
ATOM      5  C   UNL     1       1.992   7.812  19.820  0.00  0.00    +0.000 A 
ATOM      6  C   UNL     1       2.199   8.350  18.546  0.00  0.00    +0.000 A 
ATOM      7  C   UNL     1       1.582   9.572  18.235  0.00  0.00    +0.000 A 
ATOM      8  C   UNL     1       0.727  10.171  19.187  0.00  0.00    +0.000 A 
ATOM      9  C   UNL     1      -0.073  11.366  19.197  0.00  0.00    +0.000 A 
ATOM     10  C   UNL     1       3.103   7.660  17.547  0.00  0.00    +0.000 C 
ATOM     11  N   UNL     1       3.346   6.230  17.825  0.00  0.00    +0.000 NA
ATOM     12  C   UNL     1       3.722   6.086  19.243  0.00  0.00    +0.000 C 
ATOM     13  C   UNL     1       2.618   6.501  20.210  0.00  0.00    +0.000 C 
ENDROOT
BRANCH   1  15
ATOM     14  N   UNL     1      -2.600  12.218  21.759  0.00  0.00    +0.000 N 
ATOM     15  C   UNL     1      -1.729  12.582  20.742  0.00  0.00    +0.000 C 
ATOM     16  O   UNL     1      -1.754  13.675  20.175  0.00  0.00    +0.000 OA
ATOM     17  H   UNL     1      -2.688  11.223  21.915  0.00  0.00    +0.000 HD
BRANCH  14  21
ATOM     18  C   UNL     1      -5.955  14.502  22.735  0.00  0.00    +0.000 A 
ATOM     19  C   UNL     1      -5.950  13.713  21.584  0.00  0.00    +0.000 A 
ATOM     20  C   UNL     1      -4.838  12.944  21.263  0.00  0.00    +0.000 A 
ATOM     21  C   UNL     1      -3.710  13.008  22.082  0.00  0.00    +0.000 A 
ATOM     22  C   UNL     1      -3.696  13.791  23.245  0.00  0.00    +0.000 A 
ATOM     23  C   UNL     1      -4.827  14.542  23.568  0.00  0.00    +0.000 A 
BRANCH  18  25
ATOM     24  C   UNL     1      -7.912  14.781  24.038  0.00  0.00    +0.000 C 
ATOM     25  O   UNL     1      -7.114  15.196  22.938  0.00  0.00    +0.000 OA
ENDBRANCH  18  25
BRANCH  22  26
ATOM     26  O   UNL     1      -2.583  13.668  24.038  0.00  0.00    +0.000 OA
ATOM     27  C   UNL     1      -1.617  14.703  23.952  0.00  0.00    +0.000 C 
ENDBRANCH  22  26
ENDBRANCH  14  21
ENDBRANCH   1  15
BRANCH   9  28
ATOM     28  N   UNL     1      -0.123  12.245  18.171  0.00  0.00    +0.000 N 
ATOM     29  H   UNL     1      -0.463  12.012  17.245  0.00  0.00    +0.000 HD
ATOM     30  H   UNL     1      -0.044  13.250  18.345  0.00  0.00    +0.000 HD
ENDBRANCH   9  28
BRANCH  11  31
ATOM     31  C   UNL     1       2.181   5.413  17.422  0.00  0.00    +0.000 C 
BRANCH  31  32
ATOM     32  C   UNL     1       2.182   3.986  17.935  0.00  0.00    +0.000 A 
ATOM     33  C   UNL     1       1.123   3.518  18.727  0.00  0.00    +0.000 A 
ATOM     34  C   UNL     1       1.111   2.204  19.197  0.00  0.00    +0.000 A 
ATOM     35  C   UNL     1       2.156   1.342  18.878  0.00  0.00    +0.000 A 
ATOM     36  C   UNL     1       3.212   1.792  18.086  0.00  0.00    +0.000 A 
ATOM     37  C   UNL     1       3.227   3.107  17.618  0.00  0.00    +0.000 A 
ENDBRANCH  31  32
ENDBRANCH  11  31
TORSDOF 7
ENDMDL
MODEL 8
REMARK VINA RESULT:      -7.2      6.518     11.796
REMARK  Name = 
REMARK  9 active torsions:
REMARK  status: ('A' for Active; 'I' for Inactive)
REMARK    1  A    between atoms: C_1  and  O_2
REMARK    2  A    between atoms: O_2  and  C_3
REMARK    3  A    between atoms: C_6  and  N_7
REMARK    4  A    between atoms: C_8  and  C_10
REMARK    5  A    between atoms: C_18  and  N_19
REMARK    6  A    between atoms: N_21  and  C_22
REMARK    7  A    between atoms: C_22  and  C_23
REMARK    8  A    between atoms: C_31  and  O_32
REMARK    9  A    between atoms: O_32  and  C_33
REMARK                            x       y       z     vdW  Elec       q    Type
REMARK                         _______ _______ _______ _____ _____    ______ ____
ROOT
ATOM      1  C   UNL     1       1.689  14.821  20.236  0.00  0.00    +0.000 A 
ATOM      2  S   UNL     1       2.517  16.139  20.959  0.00  0.00    +0.000 S 
ATOM      3  C   UNL     1       3.871  15.916  19.975  0.00  0.00    +0.000 A 
ATOM      4  N   UNL     1       4.922  16.740  20.116  0.00  0.00    +0.000 NA
ATOM      5  C   UNL     1       5.966  16.465  19.310  0.00  0.00    +0.000 A 
ATOM      6  C   UNL     1       6.008  15.403  18.402  0.00  0.00    +0.000 A 
ATOM      7  C   UNL     1       4.864  14.601  18.265  0.00  0.00    +0.000 A 
ATOM      8  C   UNL     1       3.748  14.851  19.094  0.00  0.00    +0.000 A 
ATOM      9  C   UNL     1       2.460  14.230  19.248  0.00  0.00    +0.000 A 
ATOM     10  C   UNL     1       7.237  15.154  17.553  0.00  0.00    +0.000 C 
ATOM     11  N   UNL     1       8.474  15.776  18.067  0.00  0.00    +0.000 NA
ATOM     12  C   UNL     1       8.190  17.184  18.394  0.00  0.00    +0.000 C 
ATOM     13  C   UNL     1       7.162  17.354  19.508  0.00  0.00    +0.000 C 
ENDROOT
BRANCH   1  15
ATOM     14  N   UNL     1       0.309  14.164  22.065  0.00  0.00    +0.000 N 
ATOM     15  C   UNL     1       0.357  14.455  20.709  0.00  0.00    +0.000 C 
ATOM     16  O   UNL     1      -0.616  14.388  19.957  0.00  0.00    +0.000 OA
ATOM     17  H   UNL     1       1.200  13.951  22.491  0.00  0.00    +0.000 HD
BRANCH  14  21
ATOM     18  C   UNL     1      -3.113  12.443  23.723  0.00  0.00    +0.000 A 
ATOM     19  C   UNL     1      -2.976  13.832  23.672  0.00  0.00    +0.000 A 
ATOM     20  C   UNL     1      -1.843  14.406  23.111  0.00  0.00    +0.000 A 
ATOM     21  C   UNL     1      -0.823  13.576  22.642  0.00  0.00    +0.000 A 
ATOM     22  C   UNL     1      -0.943  12.181  22.681  0.00  0.00    +0.000 A 
ATOM     23  C   UNL     1      -2.096  11.616  23.227  0.00  0.00    +0.000 A 
BRANCH  18  25
ATOM     24  C   UNL     1      -5.440  12.782  24.002  0.00  0.00    +0.000 C 
ATOM     25  O   UNL     1      -4.280  12.013  24.289  0.00  0.00    +0.000 OA
ENDBRANCH  18  25
BRANCH  22  26
ATOM     26  O   UNL     1       0.063  11.475  22.070  0.00  0.00    +0.000 OA
ATOM     27  C   UNL     1      -0.297  10.679  20.953  0.00  0.00    +0.000 C 
ENDBRANCH  22  26
ENDBRANCH  14  21
ENDBRANCH   1  15
BRANCH   9  28
ATOM     28  N   UNL     1       2.039  13.183  18.505  0.00  0.00    +0.000 N 
ATOM     29  H   UNL     1       2.101  12.217  18.806  0.00  0.00    +0.000 HD
ATOM     30  H   UNL     1       1.418  13.330  17.705  0.00  0.00    +0.000 HD
ENDBRANCH   9  28
BRANCH  11  31
ATOM     31  C   UNL     1       9.025  14.992  19.193  0.00  0.00    +0.000 C 
BRANCH  31  32
ATOM     32  C   UNL     1       9.896  13.816  18.799  0.00  0.00    +0.000 A 
ATOM     33  C   UNL     1      10.655  13.862  17.619  0.00  0.00    +0.000 A 
ATOM     34  C   UNL     1      11.466  12.788  17.252  0.00  0.00    +0.000 A 
ATOM     35  C   UNL     1      11.531  11.656  18.061  0.00  0.00    +0.000 A 
ATOM     36  C   UNL     1      10.786  11.600  19.239  0.00  0.00    +0.000 A 
ATOM     37  C   UNL     1       9.972  12.672  19.606  0.00  0.00    +0.000 A 
ENDBRANCH  31  32
ENDBRANCH  11  31
TORSDOF 7
ENDMDL
MODEL 9
REMARK VINA RESULT:      -7.2      2.408      4.270
REMARK  Name = 
REMARK  9 active torsions:
REMARK  status: ('A' for Active; 'I' for Inactive)
REMARK    1  A    between atoms: C_1  and  O_2
REMARK    2  A    between atoms: O_2  and  C_3
REMARK    3  A    between atoms: C_6  and  N_7
REMARK    4  A    between atoms: C_8  and  C_10
REMARK    5  A    between atoms: C_18  and  N_19
REMARK    6  A    between atoms: N_21  and  C_22
REMARK    7  A    between atoms: C_22  and  C_23
REMARK    8  A    between atoms: C_31  and  O_32
REMARK    9  A    between atoms: O_32  and  C_33
REMARK                            x       y       z     vdW  Elec       q    Type
REMARK                         _______ _______ _______ _____ _____    ______ ____
ROOT
ATOM      1  C   UNL     1       0.837   9.720  19.311  0.00  0.00    +0.000 A 
ATOM      2  S   UNL     1       1.116   9.989  20.983  0.00  0.00    +0.000 S 
ATOM      3  C   UNL     1      -0.058  11.201  21.053  0.00  0.00    +0.000 A 
ATOM      4  N   UNL     1      -0.288  11.818  22.224  0.00  0.00    +0.000 NA
ATOM      5  C   UNL     1      -1.218  12.791  22.174  0.00  0.00    +0.000 A 
ATOM      6  C   UNL     1      -1.898  13.181  21.017  0.00  0.00    +0.000 A 
ATOM      7  C   UNL     1      -1.649  12.471  19.831  0.00  0.00    +0.000 A 
ATOM      8  C   UNL     1      -0.677  11.446  19.836  0.00  0.00    +0.000 A 
ATOM      9  C   UNL     1      -0.155  10.561  18.830  0.00  0.00    +0.000 A 
ATOM     10  C   UNL     1      -2.912  14.305  21.050  0.00  0.00    +0.000 C 
ATOM     11  N   UNL     1      -2.782  15.213  22.208  0.00  0.00    +0.000 NA
ATOM     12  C   UNL     1      -2.679  14.400  23.433  0.00  0.00    +0.000 C 
ATOM     13  C   UNL     1      -1.435  13.518  23.473  0.00  0.00    +0.000 C 
ENDROOT
BRANCH   1  15
ATOM     14  N   UNL     1       2.019   7.653  19.387  0.00  0.00    +0.000 N 
ATOM     15  C   UNL     1       1.626   8.723  18.596  0.00  0.00    +0.000 C 
ATOM     16  O   UNL     1       1.930   8.847  17.408  0.00  0.00    +0.000 OA
ATOM     17  H   UNL     1       1.982   7.818  20.384  0.00  0.00    +0.000 HD
BRANCH  14  21
ATOM     18  C   UNL     1       4.904   4.940  18.067  0.00  0.00    +0.000 A 
ATOM     19  C   UNL     1       4.733   6.162  17.413  0.00  0.00    +0.000 A 
ATOM     20  C   UNL     1       3.780   7.070  17.858  0.00  0.00    +0.000 A 
ATOM     21  C   UNL     1       2.966   6.725  18.937  0.00  0.00    +0.000 A 
ATOM     22  C   UNL     1       3.124   5.506  19.610  0.00  0.00    +0.000 A 
ATOM     23  C   UNL     1       4.100   4.611  19.167  0.00  0.00    +0.000 A 
BRANCH  18  25
ATOM     24  C   UNL     1       7.157   4.752  17.364  0.00  0.00    +0.000 C 
ATOM     25  O   UNL     1       5.882   4.148  17.535  0.00  0.00    +0.000 OA
ENDBRANCH  18  25
BRANCH  22  26
ATOM     26  O   UNL     1       2.358   5.337  20.736  0.00  0.00    +0.000 OA
ATOM     27  C   UNL     1       1.706   4.087  20.888  0.00  0.00    +0.000 C 
ENDBRANCH  22  26
ENDBRANCH  14  21
ENDBRANCH   1  15
BRANCH   9  28
ATOM     28  N   UNL     1      -0.586  10.544  17.549  0.00  0.00    +0.000 N 
ATOM     29  H   UNL     1      -1.504  10.861  17.258  0.00  0.00    +0.000 HD
ATOM     30  H   UNL     1       0.080  10.435  16.780  0.00  0.00    +0.000 HD
ENDBRANCH   9  28
BRANCH  11  31
ATOM     31  C   UNL     1      -1.660  16.156  22.010  0.00  0.00    +0.000 C 
BRANCH  31  32
ATOM     32  C   UNL     1      -1.592  16.803  20.642  0.00  0.00    +0.000 A 
ATOM     33  C   UNL     1      -0.557  16.472  19.753  0.00  0.00    +0.000 A 
ATOM     34  C   UNL     1      -0.491  17.057  18.488  0.00  0.00    +0.000 A 
ATOM     35  C   UNL     1      -1.459  17.977  18.095  0.00  0.00    +0.000 A 
ATOM     36  C   UNL     1      -2.496  18.310  18.966  0.00  0.00    +0.000 A 
ATOM     37  C   UNL     1      -2.562  17.728  20.233  0.00  0.00    +0.000 A 
ENDBRANCH  31  32
ENDBRANCH  11  31
TORSDOF 7
ENDMDL
