MODEL 1
REMARK VINA RESULT:      -7.7      0.000      0.000
REMARK  Name = 
REMARK  6 active torsions:
REMARK  status: ('A' for Active; 'I' for Inactive)
REMARK    1  A    between atoms: C_2  and  O_3
REMARK    2  A    between atoms: C_2  and  C_4
REMARK    3  A    between atoms: C_6  and  N_7
REMARK    4  A    between atoms: N_7  and  S_8
REMARK    5  A    between atoms: S_8  and  C_11
REMARK    6  A    between atoms: C_20  and  N_21
REMARK                            x       y       z     vdW  Elec       q    Type
REMARK                         _______ _______ _______ _____ _____    ______ ____
ROOT
ATOM      1  C   UNL     1       1.465   8.481  20.092  0.00  0.00    +0.000 A 
ATOM      2  C   UNL     1       2.148   7.288  19.763  0.00  0.00    +0.000 A 
ATOM      3  C   UNL     1       2.715   7.116  18.506  0.00  0.00    +0.000 A 
ATOM      4  C   UNL     1       2.545   8.087  17.536  0.00  0.00    +0.000 A 
ATOM      5  C   UNL     1       1.838   9.252  17.848  0.00  0.00    +0.000 A 
ATOM      6  C   UNL     1       1.291   9.507  19.129  0.00  0.00    +0.000 A 
ENDROOT
BRANCH   6   7
ATOM      7  N   UNL     1       0.695  10.744  19.329  0.00  0.00    +0.000 N 
ATOM      8  C   UNL     1       1.383  11.903  19.922  0.00  0.00    +0.000 C 
ATOM      9  C   UNL     1       1.246  13.132  19.014  0.00  0.00    +0.000 C 
ATOM     10  S   UNL     1      -0.486  13.623  18.700  0.00  0.00    +0.000 S 
ATOM     11  C   UNL     1      -1.124  11.987  18.200  0.00  0.00    +0.000 C 
ATOM     12  C   UNL     1      -0.769  10.895  19.216  0.00  0.00    +0.000 C 
ENDBRANCH   6   7
BRANCH   1  14
ATOM     13  O   UNL     1      -0.305   8.323  21.708  0.00  0.00    +0.000 OA
ATOM     14  C   UNL     1       0.869   8.533  21.458  0.00  0.00    +0.000 C 
BRANCH  14  15
ATOM     15  O   UNL     1       1.762   8.875  22.418  0.00  0.00    +0.000 OA
ATOM     16  H   UNL     1       2.366   8.169  22.711  0.00  0.00    +0.000 HD
ENDBRANCH  14  15
ENDBRANCH   1  14
BRANCH   3  17
ATOM     17  N   UNL     1       3.448   5.936  18.222  0.00  0.00    +0.000 N 
ATOM     18  H   UNL     1       4.326   6.026  17.707  0.00  0.00    +0.000 HD
BRANCH  17  19
ATOM     19  S   UNL     1       2.611   4.533  17.784  0.00  0.00    +0.000 S 
ATOM     20  O   UNL     1       1.302   4.950  17.331  0.00  0.00    +0.000 OA
ATOM     21  O   UNL     1       3.474   3.741  16.932  0.00  0.00    +0.000 OA
BRANCH  19  22
ATOM     22  C   UNL     1       2.388   3.659  19.301  0.00  0.00    +0.000 A 
ATOM     23  C   UNL     1       1.125   3.564  19.895  0.00  0.00    +0.000 A 
ATOM     24  C   UNL     1       0.998   2.960  21.147  0.00  0.00    +0.000 A 
ATOM     25  C   UNL     1       2.124   2.454  21.802  0.00  0.00    +0.000 A 
ATOM     26  C   UNL     1       3.379   2.533  21.195  0.00  0.00    +0.000 A 
ATOM     27  C   UNL     1       3.505   3.134  19.945  0.00  0.00    +0.000 A 
ATOM     28  F   UNL     1       4.712   3.163  19.366  0.00  0.00    +0.000 F 
ENDBRANCH  19  22
ENDBRANCH  17  19
ENDBRANCH   3  17
TORSDOF 6
ENDMDL
MODEL 2
REMARK VINA RESULT:      -7.6      0.575      1.228
REMARK  Name = 
REMARK  6 active torsions:
REMARK  status: ('A' for Active; 'I' for Inactive)
REMARK    1  A    between atoms: C_2  and  O_3
REMARK    2  A    between atoms: C_2  and  C_4
REMARK    3  A    between atoms: C_6  and  N_7
REMARK    4  A    between atoms: N_7  and  S_8
REMARK    5  A    between atoms: S_8  and  C_11
REMARK    6  A    between atoms: C_20  and  N_21
REMARK                            x       y       z     vdW  Elec       q    Type
REMARK                         _______ _______ _______ _____ _____    ______ ____
ROOT
ATOM      1  C   UNL     1       1.458   8.545  20.112  0.00  0.00    +0.000 A 
ATOM      2  C   UNL     1       2.152   7.352  19.808  0.00  0.00    +0.000 A 
ATOM      3  C   UNL     1       2.709   7.154  18.550  0.00  0.00    +0.000 A 
ATOM      4  C   UNL     1       2.520   8.098  17.557  0.00  0.00    +0.000 A 
ATOM      5  C   UNL     1       1.802   9.262  17.845  0.00  0.00    +0.000 A 
ATOM      6  C   UNL     1       1.263   9.544  19.124  0.00  0.00    +0.000 A 
ENDROOT
BRANCH   6   7
ATOM      7  N   UNL     1       0.656  10.779  19.298  0.00  0.00    +0.000 N 
ATOM      8  C   UNL     1      -0.796  11.003  19.205  0.00  0.00    +0.000 C 
ATOM      9  C   UNL     1      -1.311  11.723  20.458  0.00  0.00    +0.000 C 
ATOM     10  S   UNL     1      -0.523  13.346  20.747  0.00  0.00    +0.000 S 
ATOM     11  C   UNL     1       1.217  12.811  20.596  0.00  0.00    +0.000 C 
ATOM     12  C   UNL     1       1.465  12.014  19.310  0.00  0.00    +0.000 C 
ENDBRANCH   6   7
BRANCH   1  14
ATOM     13  O   UNL     1      -0.306   8.458  21.739  0.00  0.00    +0.000 OA
ATOM     14  C   UNL     1       0.873   8.626  21.480  0.00  0.00    +0.000 C 
BRANCH  14  15
ATOM     15  O   UNL     1       1.783   8.943  22.433  0.00  0.00    +0.000 OA
ATOM     16  H   UNL     1       1.648   9.795  22.888  0.00  0.00    +0.000 HD
ENDBRANCH  14  15
ENDBRANCH   1  14
BRANCH   3  17
ATOM     17  N   UNL     1       3.453   5.975  18.289  0.00  0.00    +0.000 N 
ATOM     18  H   UNL     1       4.348   6.067  17.806  0.00  0.00    +0.000 HD
BRANCH  17  19
ATOM     19  S   UNL     1       2.634   4.572  17.821  0.00  0.00    +0.000 S 
ATOM     20  O   UNL     1       1.324   4.983  17.367  0.00  0.00    +0.000 OA
ATOM     21  O   UNL     1       3.510   3.804  16.962  0.00  0.00    +0.000 OA
BRANCH  19  22
ATOM     22  C   UNL     1       2.410   3.669  19.322  0.00  0.00    +0.000 A 
ATOM     23  C   UNL     1       1.148   3.569  19.917  0.00  0.00    +0.000 A 
ATOM     24  C   UNL     1       1.022   2.940  21.157  0.00  0.00    +0.000 A 
ATOM     25  C   UNL     1       2.146   2.415  21.798  0.00  0.00    +0.000 A 
ATOM     26  C   UNL     1       3.400   2.499  21.189  0.00  0.00    +0.000 A 
ATOM     27  C   UNL     1       3.525   3.125  19.952  0.00  0.00    +0.000 A 
ATOM     28  F   UNL     1       4.731   3.158  19.369  0.00  0.00    +0.000 F 
ENDBRANCH  19  22
ENDBRANCH  17  19
ENDBRANCH   3  17
TORSDOF 6
ENDMDL
MODEL 3
REMARK VINA RESULT:      -7.6      2.331      3.184
REMARK  Name = 
REMARK  6 active torsions:
REMARK  status: ('A' for Active; 'I' for Inactive)
REMARK    1  A    between atoms: C_2  and  O_3
REMARK    2  A    between atoms: C_2  and  C_4
REMARK    3  A    between atoms: C_6  and  N_7
REMARK    4  A    between atoms: N_7  and  S_8
REMARK    5  A    between atoms: S_8  and  C_11
REMARK    6  A    between atoms: C_20  and  N_21
REMARK                            x       y       z     vdW  Elec       q    Type
REMARK                         _______ _______ _______ _____ _____    ______ ____
ROOT
ATOM      1  C   UNL     1       1.172   8.486  20.422  0.00  0.00    +0.000 A 
ATOM      2  C   UNL     1       1.918   7.299  20.601  0.00  0.00    +0.000 A 
ATOM      3  C   UNL     1       2.749   6.822  19.594  0.00  0.00    +0.000 A 
ATOM      4  C   UNL     1       2.791   7.468  18.372  0.00  0.00    +0.000 A 
ATOM      5  C   UNL     1       2.025   8.622  18.181  0.00  0.00    +0.000 A 
ATOM      6  C   UNL     1       1.208   9.187  19.190  0.00  0.00    +0.000 A 
ENDROOT
BRANCH   6   7
ATOM      7  N   UNL     1       0.576  10.386  18.896  0.00  0.00    +0.000 N 
ATOM      8  C   UNL     1      -0.797  10.488  18.374  0.00  0.00    +0.000 C 
ATOM      9  C   UNL     1      -1.632  11.442  19.237  0.00  0.00    +0.000 C 
ATOM     10  S   UNL     1      -0.952  13.136  19.325  0.00  0.00    +0.000 S 
ATOM     11  C   UNL     1       0.763  12.695  19.770  0.00  0.00    +0.000 C 
ATOM     12  C   UNL     1       1.351  11.641  18.825  0.00  0.00    +0.000 C 
ENDBRANCH   6   7
BRANCH   1  14
ATOM     13  O   UNL     1      -0.750   8.314  21.850  0.00  0.00    +0.000 OA
ATOM     14  C   UNL     1       0.290   8.877  21.558  0.00  0.00    +0.000 C 
BRANCH  14  15
ATOM     15  O   UNL     1       0.740   9.960  22.236  0.00  0.00    +0.000 OA
ATOM     16  H   UNL     1       1.426   9.790  22.908  0.00  0.00    +0.000 HD
ENDBRANCH  14  15
ENDBRANCH   1  14
BRANCH   3  17
ATOM     17  N   UNL     1       3.533   5.662  19.822  0.00  0.00    +0.000 N 
ATOM     18  H   UNL     1       4.499   5.787  20.131  0.00  0.00    +0.000 HD
BRANCH  17  19
ATOM     19  S   UNL     1       3.382   4.347  18.770  0.00  0.00    +0.000 S 
ATOM     20  O   UNL     1       3.564   3.152  19.564  0.00  0.00    +0.000 OA
ATOM     21  O   UNL     1       2.184   4.538  17.979  0.00  0.00    +0.000 OA
BRANCH  19  22
ATOM     22  C   UNL     1       4.776   4.479  17.694  0.00  0.00    +0.000 A 
ATOM     23  C   UNL     1       4.638   4.286  16.315  0.00  0.00    +0.000 A 
ATOM     24  C   UNL     1       5.773   4.291  15.504  0.00  0.00    +0.000 A 
ATOM     25  C   UNL     1       7.038   4.486  16.065  0.00  0.00    +0.000 A 
ATOM     26  C   UNL     1       7.168   4.698  17.439  0.00  0.00    +0.000 A 
ATOM     27  C   UNL     1       6.034   4.695  18.247  0.00  0.00    +0.000 A 
ATOM     28  F   UNL     1       6.179   4.939  19.556  0.00  0.00    +0.000 F 
ENDBRANCH  19  22
ENDBRANCH  17  19
ENDBRANCH   3  17
TORSDOF 6
ENDMDL
MODEL 4
REMARK VINA RESULT:      -7.3      2.279      3.233
REMARK  Name = 
REMARK  6 active torsions:
REMARK  status: ('A' for Active; 'I' for Inactive)
REMARK    1  A    between atoms: C_2  and  O_3
REMARK    2  A    between atoms: C_2  and  C_4
REMARK    3  A    between atoms: C_6  and  N_7
REMARK    4  A    between atoms: N_7  and  S_8
REMARK    5  A    between atoms: S_8  and  C_11
REMARK    6  A    between atoms: C_20  and  N_21
REMARK                            x       y       z     vdW  Elec       q    Type
REMARK                         _______ _______ _______ _____ _____    ______ ____
ROOT
ATOM      1  C   UNL     1       1.128   8.592  20.571  0.00  0.00    +0.000 A 
ATOM      2  C   UNL     1       1.794   7.364  20.786  0.00  0.00    +0.000 A 
ATOM      3  C   UNL     1       2.572   6.792  19.787  0.00  0.00    +0.000 A 
ATOM      4  C   UNL     1       2.636   7.387  18.539  0.00  0.00    +0.000 A 
ATOM      5  C   UNL     1       1.948   8.582  18.314  0.00  0.00    +0.000 A 
ATOM      6  C   UNL     1       1.189   9.241  19.312  0.00  0.00    +0.000 A 
ENDROOT
BRANCH   6   7
ATOM      7  N   UNL     1       0.635  10.468  18.980  0.00  0.00    +0.000 N 
ATOM      8  C   UNL     1      -0.712  10.638  18.412  0.00  0.00    +0.000 C 
ATOM      9  C   UNL     1      -1.520  11.651  19.233  0.00  0.00    +0.000 C 
ATOM     10  S   UNL     1      -0.749  13.305  19.319  0.00  0.00    +0.000 S 
ATOM     11  C   UNL     1       0.923  12.777  19.827  0.00  0.00    +0.000 C 
ATOM     12  C   UNL     1       1.481  11.677  18.917  0.00  0.00    +0.000 C 
ENDBRANCH   6   7
BRANCH   1  14
ATOM     13  O   UNL     1       0.566  10.056  22.390  0.00  0.00    +0.000 OA
ATOM     14  C   UNL     1       0.294   9.086  21.704  0.00  0.00    +0.000 C 
BRANCH  14  15
ATOM     15  O   UNL     1      -0.804   8.326  21.931  0.00  0.00    +0.000 OA
ATOM     16  H   UNL     1      -1.645   8.673  21.582  0.00  0.00    +0.000 HD
ENDBRANCH  14  15
ENDBRANCH   1  14
BRANCH   3  17
ATOM     17  N   UNL     1       3.280   5.591  20.048  0.00  0.00    +0.000 N 
ATOM     18  H   UNL     1       4.206   5.661  20.474  0.00  0.00    +0.000 HD
BRANCH  17  19
ATOM     19  S   UNL     1       3.205   4.331  18.924  0.00  0.00    +0.000 S 
ATOM     20  O   UNL     1       3.154   3.098  19.678  0.00  0.00    +0.000 OA
ATOM     21  O   UNL     1       2.179   4.652  17.954  0.00  0.00    +0.000 OA
BRANCH  19  22
ATOM     22  C   UNL     1       4.768   4.378  18.102  0.00  0.00    +0.000 A 
ATOM     23  C   UNL     1       5.909   4.849  18.759  0.00  0.00    +0.000 A 
ATOM     24  C   UNL     1       7.106   4.975  18.052  0.00  0.00    +0.000 A 
ATOM     25  C   UNL     1       7.162   4.634  16.698  0.00  0.00    +0.000 A 
ATOM     26  C   UNL     1       6.025   4.145  16.052  0.00  0.00    +0.000 A 
ATOM     27  C   UNL     1       4.832   4.018  16.759  0.00  0.00    +0.000 A 
ATOM     28  F   UNL     1       3.765   3.510  16.130  0.00  0.00    +0.000 F 
ENDBRANCH  19  22
ENDBRANCH  17  19
ENDBRANCH   3  17
TORSDOF 6
ENDMDL
MODEL 5
REMARK VINA RESULT:      -7.2      2.850      3.641
REMARK  Name = 
REMARK  6 active torsions:
REMARK  status: ('A' for Active; 'I' for Inactive)
REMARK    1  A    between atoms: C_2  and  O_3
REMARK    2  A    between atoms: C_2  and  C_4
REMARK    3  A    between atoms: C_6  and  N_7
REMARK    4  A    between atoms: N_7  and  S_8
REMARK    5  A    between atoms: S_8  and  C_11
REMARK    6  A    between atoms: C_20  and  N_21
REMARK                            x       y       z     vdW  Elec       q    Type
REMARK                         _______ _______ _______ _____ _____    ______ ____
ROOT
ATOM      1  C   UNL     1       1.618   7.946  20.043  0.00  0.00    +0.000 A 
ATOM      2  C   UNL     1       2.165   6.643  20.030  0.00  0.00    +0.000 A 
ATOM      3  C   UNL     1       2.730   6.120  18.873  0.00  0.00    +0.000 A 
ATOM      4  C   UNL     1       2.689   6.848  17.697  0.00  0.00    +0.000 A 
ATOM      5  C   UNL     1       2.115   8.122  17.700  0.00  0.00    +0.000 A 
ATOM      6  C   UNL     1       1.579   8.729  18.861  0.00  0.00    +0.000 A 
ENDROOT
BRANCH   6   7
ATOM      7  N   UNL     1       1.127  10.035  18.743  0.00  0.00    +0.000 N 
ATOM      8  C   UNL     1      -0.289  10.406  18.585  0.00  0.00    +0.000 C 
ATOM      9  C   UNL     1      -0.694  11.447  19.635  0.00  0.00    +0.000 C 
ATOM     10  S   UNL     1       0.287  12.987  19.557  0.00  0.00    +0.000 S 
ATOM     11  C   UNL     1       1.948  12.226  19.552  0.00  0.00    +0.000 C 
ATOM     12  C   UNL     1       2.078  11.135  18.484  0.00  0.00    +0.000 C 
ENDBRANCH   6   7
BRANCH   1  14
ATOM     13  O   UNL     1      -0.188   8.392  21.561  0.00  0.00    +0.000 OA
ATOM     14  C   UNL     1       1.008   8.383  21.331  0.00  0.00    +0.000 C 
BRANCH  14  15
ATOM     15  O   UNL     1       1.921   8.809  22.237  0.00  0.00    +0.000 OA
ATOM     16  H   UNL     1       1.723   9.656  22.678  0.00  0.00    +0.000 HD
ENDBRANCH  14  15
ENDBRANCH   1  14
BRANCH   3  17
ATOM     17  N   UNL     1       3.327   4.834  18.903  0.00  0.00    +0.000 N 
ATOM     18  H   UNL     1       2.848   4.092  19.418  0.00  0.00    +0.000 HD
BRANCH  17  19
ATOM     19  S   UNL     1       5.006   4.710  19.050  0.00  0.00    +0.000 S 
ATOM     20  O   UNL     1       5.469   5.948  19.635  0.00  0.00    +0.000 OA
ATOM     21  O   UNL     1       5.312   3.436  19.668  0.00  0.00    +0.000 OA
BRANCH  19  22
ATOM     22  C   UNL     1       5.594   4.664  17.385  0.00  0.00    +0.000 A 
ATOM     23  C   UNL     1       4.725   4.384  16.326  0.00  0.00    +0.000 A 
ATOM     24  C   UNL     1       5.238   4.249  15.034  0.00  0.00    +0.000 A 
ATOM     25  C   UNL     1       6.608   4.393  14.803  0.00  0.00    +0.000 A 
ATOM     26  C   UNL     1       7.468   4.693  15.861  0.00  0.00    +0.000 A 
ATOM     27  C   UNL     1       6.956   4.829  17.148  0.00  0.00    +0.000 A 
ATOM     28  F   UNL     1       7.793   5.156  18.141  0.00  0.00    +0.000 F 
ENDBRANCH  19  22
ENDBRANCH  17  19
ENDBRANCH   3  17
TORSDOF 6
ENDMDL
MODEL 6
REMARK VINA RESULT:      -7.2      2.197      2.982
REMARK  Name = 
REMARK  6 active torsions:
REMARK  status: ('A' for Active; 'I' for Inactive)
REMARK    1  A    between atoms: C_2  and  O_3
REMARK    2  A    between atoms: C_2  and  C_4
REMARK    3  A    between atoms: C_6  and  N_7
REMARK    4  A    between atoms: N_7  and  S_8
REMARK    5  A    between atoms: S_8  and  C_11
REMARK    6  A    between atoms: C_20  and  N_21
REMARK                            x       y       z     vdW  Elec       q    Type
REMARK                         _______ _______ _______ _____ _____    ______ ____
ROOT
ATOM      1  C   UNL     1       0.926   8.765  21.156  0.00  0.00    +0.000 A 
ATOM      2  C   UNL     1       1.560   7.503  21.179  0.00  0.00    +0.000 A 
ATOM      3  C   UNL     1       2.258   7.036  20.072  0.00  0.00    +0.000 A 
ATOM      4  C   UNL     1       2.271   7.778  18.904  0.00  0.00    +0.000 A 
ATOM      5  C   UNL     1       1.613   9.011  18.868  0.00  0.00    +0.000 A 
ATOM      6  C   UNL     1       0.938   9.563  19.984  0.00  0.00    +0.000 A 
ENDROOT
BRANCH   6   7
ATOM      7  N   UNL     1       0.409  10.837  19.838  0.00  0.00    +0.000 N 
ATOM      8  C   UNL     1       1.091  12.066  20.274  0.00  0.00    +0.000 C 
ATOM      9  C   UNL     1       1.163  13.079  19.124  0.00  0.00    +0.000 C 
ATOM     10  S   UNL     1      -0.473  13.562  18.469  0.00  0.00    +0.000 S 
ATOM     11  C   UNL     1      -1.152  11.884  18.228  0.00  0.00    +0.000 C 
ATOM     12  C   UNL     1      -1.013  11.019  19.485  0.00  0.00    +0.000 C 
ENDBRANCH   6   7
BRANCH   1  14
ATOM     13  O   UNL     1       0.553   9.969  23.201  0.00  0.00    +0.000 OA
ATOM     14  C   UNL     1       0.178   9.140  22.390  0.00  0.00    +0.000 C 
BRANCH  14  15
ATOM     15  O   UNL     1      -0.970   8.439  22.553  0.00  0.00    +0.000 OA
ATOM     16  H   UNL     1      -0.878   7.555  22.955  0.00  0.00    +0.000 HD
ENDBRANCH  14  15
ENDBRANCH   1  14
BRANCH   3  17
ATOM     17  N   UNL     1       2.936   5.793  20.142  0.00  0.00    +0.000 N 
ATOM     18  H   UNL     1       3.836   5.761  20.625  0.00  0.00    +0.000 HD
BRANCH  17  19
ATOM     19  S   UNL     1       2.916   4.768  18.797  0.00  0.00    +0.000 S 
ATOM     20  O   UNL     1       2.595   3.445  19.283  0.00  0.00    +0.000 OA
ATOM     21  O   UNL     1       2.117   5.394  17.765  0.00  0.00    +0.000 OA
BRANCH  19  22
ATOM     22  C   UNL     1       4.592   4.731  18.244  0.00  0.00    +0.000 A 
ATOM     23  C   UNL     1       5.618   5.267  19.029  0.00  0.00    +0.000 A 
ATOM     24  C   UNL     1       6.917   5.320  18.519  0.00  0.00    +0.000 A 
ATOM     25  C   UNL     1       7.189   4.842  17.235  0.00  0.00    +0.000 A 
ATOM     26  C   UNL     1       6.165   4.289  16.464  0.00  0.00    +0.000 A 
ATOM     27  C   UNL     1       4.871   4.235  16.973  0.00  0.00    +0.000 A 
ATOM     28  F   UNL     1       3.913   3.664  16.231  0.00  0.00    +0.000 F 
ENDBRANCH  19  22
ENDBRANCH  17  19
ENDBRANCH   3  17
TORSDOF 6
ENDMDL
MODEL 7
REMARK VINA RESULT:      -7.2      2.240      2.956
REMARK  Name = 
REMARK  6 active torsions:
REMARK  status: ('A' for Active; 'I' for Inactive)
REMARK    1  A    between atoms: C_2  and  O_3
REMARK    2  A    between atoms: C_2  and  C_4
REMARK    3  A    between atoms: C_6  and  N_7
REMARK    4  A    between atoms: N_7  and  S_8
REMARK    5  A    between atoms: S_8  and  C_11
REMARK    6  A    between atoms: C_20  and  N_21
REMARK                            x       y       z     vdW  Elec       q    Type
REMARK                         _______ _______ _______ _____ _____    ______ ____
ROOT
ATOM      1  C   UNL     1       1.103   8.474  20.827  0.00  0.00    +0.000 A 
ATOM      2  C   UNL     1       1.828   7.260  20.828  0.00  0.00    +0.000 A 
ATOM      3  C   UNL     1       2.578   6.880  19.722  0.00  0.00    +0.000 A 
ATOM      4  C   UNL     1       2.558   7.654  18.576  0.00  0.00    +0.000 A 
ATOM      5  C   UNL     1       1.812   8.836  18.561  0.00  0.00    +0.000 A 
ATOM      6  C   UNL     1       1.077   9.303  19.677  0.00  0.00    +0.000 A 
ENDROOT
BRANCH   6   7
ATOM      7  N   UNL     1       0.458  10.539  19.557  0.00  0.00    +0.000 N 
ATOM      8  C   UNL     1       1.079  11.814  19.953  0.00  0.00    +0.000 C 
ATOM      9  C   UNL     1       1.024  12.822  18.798  0.00  0.00    +0.000 C 
ATOM     10  S   UNL     1      -0.673  13.192  18.229  0.00  0.00    +0.000 S 
ATOM     11  C   UNL     1      -1.251  11.472  18.028  0.00  0.00    +0.000 C 
ATOM     12  C   UNL     1      -0.989  10.625  19.279  0.00  0.00    +0.000 C 
ENDBRANCH   6   7
BRANCH   1  14
ATOM     13  O   UNL     1      -0.814   8.326  22.265  0.00  0.00    +0.000 OA
ATOM     14  C   UNL     1       0.306   8.756  22.055  0.00  0.00    +0.000 C 
BRANCH  14  15
ATOM     15  O   UNL     1       0.939   9.579  22.925  0.00  0.00    +0.000 OA
ATOM     16  H   UNL     1       1.199   9.182  23.777  0.00  0.00    +0.000 HD
ENDBRANCH  14  15
ENDBRANCH   1  14
BRANCH   3  17
ATOM     17  N   UNL     1       3.346   5.687  19.771  0.00  0.00    +0.000 N 
ATOM     18  H   UNL     1       4.320   5.754  20.070  0.00  0.00    +0.000 HD
BRANCH  17  19
ATOM     19  S   UNL     1       3.145   4.529  18.556  0.00  0.00    +0.000 S 
ATOM     20  O   UNL     1       3.152   3.236  19.204  0.00  0.00    +0.000 OA
ATOM     21  O   UNL     1       2.032   4.937  17.724  0.00  0.00    +0.000 OA
BRANCH  19  22
ATOM     22  C   UNL     1       4.619   4.640  17.591  0.00  0.00    +0.000 A 
ATOM     23  C   UNL     1       4.566   4.602  16.194  0.00  0.00    +0.000 A 
ATOM     24  C   UNL     1       5.754   4.584  15.461  0.00  0.00    +0.000 A 
ATOM     25  C   UNL     1       6.986   4.603  16.119  0.00  0.00    +0.000 A 
ATOM     26  C   UNL     1       7.034   4.662  17.513  0.00  0.00    +0.000 A 
ATOM     27  C   UNL     1       5.848   4.682  18.243  0.00  0.00    +0.000 A 
ATOM     28  F   UNL     1       5.918   4.778  19.577  0.00  0.00    +0.000 F 
ENDBRANCH  19  22
ENDBRANCH  17  19
ENDBRANCH   3  17
TORSDOF 6
ENDMDL
MODEL 8
REMARK VINA RESULT:      -7.1      1.268      1.762
REMARK  Name = 
REMARK  6 active torsions:
REMARK  status: ('A' for Active; 'I' for Inactive)
REMARK    1  A    between atoms: C_2  and  O_3
REMARK    2  A    between atoms: C_2  and  C_4
REMARK    3  A    between atoms: C_6  and  N_7
REMARK    4  A    between atoms: N_7  and  S_8
REMARK    5  A    between atoms: S_8  and  C_11
REMARK    6  A    between atoms: C_20  and  N_21
REMARK                            x       y       z     vdW  Elec       q    Type
REMARK                         _______ _______ _______ _____ _____    ______ ____
ROOT
ATOM      1  C   UNL     1       1.098   9.045  20.234  0.00  0.00    +0.000 A 
ATOM      2  C   UNL     1       1.846   7.867  20.014  0.00  0.00    +0.000 A 
ATOM      3  C   UNL     1       2.482   7.644  18.799  0.00  0.00    +0.000 A 
ATOM      4  C   UNL     1       2.321   8.546  17.762  0.00  0.00    +0.000 A 
ATOM      5  C   UNL     1       1.550   9.694  17.966  0.00  0.00    +0.000 A 
ATOM      6  C   UNL     1       0.929  10.002  19.200  0.00  0.00    +0.000 A 
ENDROOT
BRANCH   6   7
ATOM      7  N   UNL     1       0.272  11.220  19.293  0.00  0.00    +0.000 N 
ATOM      8  C   UNL     1      -1.139  11.426  18.930  0.00  0.00    +0.000 C 
ATOM      9  C   UNL     1      -1.901  12.092  20.082  0.00  0.00    +0.000 C 
ATOM     10  S   UNL     1      -1.218  13.716  20.570  0.00  0.00    +0.000 S 
ATOM     11  C   UNL     1       0.529  13.213  20.740  0.00  0.00    +0.000 C 
ATOM     12  C   UNL     1       1.037  12.466  19.502  0.00  0.00    +0.000 C 
ENDBRANCH   6   7
BRANCH   1  14
ATOM     13  O   UNL     1      -0.609   8.596  21.862  0.00  0.00    +0.000 OA
ATOM     14  C   UNL     1       0.431   9.154  21.563  0.00  0.00    +0.000 C 
BRANCH  14  15
ATOM     15  O   UNL     1       1.084   9.974  22.422  0.00  0.00    +0.000 OA
ATOM     16  H   UNL     1       1.226  10.889  22.117  0.00  0.00    +0.000 HD
ENDBRANCH  14  15
ENDBRANCH   1  14
BRANCH   3  17
ATOM     17  N   UNL     1       3.278   6.483  18.625  0.00  0.00    +0.000 N 
ATOM     18  H   UNL     1       4.230   6.600  18.274  0.00  0.00    +0.000 HD
BRANCH  17  19
ATOM     19  S   UNL     1       2.560   5.076  18.021  0.00  0.00    +0.000 S 
ATOM     20  O   UNL     1       1.322   5.476  17.390  0.00  0.00    +0.000 OA
ATOM     21  O   UNL     1       3.565   4.337  17.286  0.00  0.00    +0.000 OA
BRANCH  19  22
ATOM     22  C   UNL     1       2.138   4.143  19.460  0.00  0.00    +0.000 A 
ATOM     23  C   UNL     1       2.581   4.538  20.726  0.00  0.00    +0.000 A 
ATOM     24  C   UNL     1       2.322   3.723  21.829  0.00  0.00    +0.000 A 
ATOM     25  C   UNL     1       1.627   2.522  21.669  0.00  0.00    +0.000 A 
ATOM     26  C   UNL     1       1.169   2.142  20.406  0.00  0.00    +0.000 A 
ATOM     27  C   UNL     1       1.426   2.957  19.306  0.00  0.00    +0.000 A 
ATOM     28  F   UNL     1       0.943   2.592  18.111  0.00  0.00    +0.000 F 
ENDBRANCH  19  22
ENDBRANCH  17  19
ENDBRANCH   3  17
TORSDOF 6
ENDMDL
MODEL 9
REMARK VINA RESULT:      -7.1      1.986      2.785
REMARK  Name = 
REMARK  6 active torsions:
REMARK  status: ('A' for Active; 'I' for Inactive)
REMARK    1  A    between atoms: C_2  and  O_3
REMARK    2  A    between atoms: C_2  and  C_4
REMARK    3  A    between atoms: C_6  and  N_7
REMARK    4  A    between atoms: N_7  and  S_8
REMARK    5  A    between atoms: S_8  and  C_11
REMARK    6  A    between atoms: C_20  and  N_21
REMARK                            x       y       z     vdW  Elec       q    Type
REMARK                         _______ _______ _______ _____ _____    ______ ____
ROOT
ATOM      1  C   UNL     1       0.869   9.059  20.909  0.00  0.00    +0.000 A 
ATOM      2  C   UNL     1       1.477   7.808  21.158  0.00  0.00    +0.000 A 
ATOM      3  C   UNL     1       2.185   7.150  20.160  0.00  0.00    +0.000 A 
ATOM      4  C   UNL     1       2.236   7.683  18.885  0.00  0.00    +0.000 A 
ATOM      5  C   UNL     1       1.603   8.903  18.627  0.00  0.00    +0.000 A 
ATOM      6  C   UNL     1       0.918   9.646  19.619  0.00  0.00    +0.000 A 
ENDROOT
BRANCH   6   7
ATOM      7  N   UNL     1       0.418  10.886  19.249  0.00  0.00    +0.000 N 
ATOM      8  C   UNL     1      -0.963  11.116  18.796  0.00  0.00    +0.000 C 
ATOM      9  C   UNL     1      -1.618  12.239  19.610  0.00  0.00    +0.000 C 
ATOM     10  S   UNL     1      -0.733  13.834  19.502  0.00  0.00    +0.000 S 
ATOM     11  C   UNL     1       0.942  13.219  19.891  0.00  0.00    +0.000 C 
ATOM     12  C   UNL     1       1.334  12.022  19.018  0.00  0.00    +0.000 C 
ENDBRANCH   6   7
BRANCH   1  14
ATOM     13  O   UNL     1       0.255  10.783  22.464  0.00  0.00    +0.000 OA
ATOM     14  C   UNL     1       0.105   9.649  22.045  0.00  0.00    +0.000 C 
BRANCH  14  15
ATOM     15  O   UNL     1      -0.772   8.782  22.607  0.00  0.00    +0.000 OA
ATOM     16  H   UNL     1      -0.428   7.890  22.801  0.00  0.00    +0.000 HD
ENDBRANCH  14  15
ENDBRANCH   1  14
BRANCH   3  17
ATOM     17  N   UNL     1       2.838   5.925  20.454  0.00  0.00    +0.000 N 
ATOM     18  H   UNL     1       3.719   5.723  19.979  0.00  0.00    +0.000 HD
BRANCH  17  19
ATOM     19  S   UNL     1       1.909   4.527  20.662  0.00  0.00    +0.000 S 
ATOM     20  O   UNL     1       2.313   3.939  21.920  0.00  0.00    +0.000 OA
ATOM     21  O   UNL     1       0.523   4.866  20.412  0.00  0.00    +0.000 OA
BRANCH  19  22
ATOM     22  C   UNL     1       2.447   3.442  19.378  0.00  0.00    +0.000 A 
ATOM     23  C   UNL     1       3.210   2.307  19.672  0.00  0.00    +0.000 A 
ATOM     24  C   UNL     1       3.711   1.527  18.628  0.00  0.00    +0.000 A 
ATOM     25  C   UNL     1       3.454   1.879  17.301  0.00  0.00    +0.000 A 
ATOM     26  C   UNL     1       2.675   3.002  17.014  0.00  0.00    +0.000 A 
ATOM     27  C   UNL     1       2.173   3.777  18.055  0.00  0.00    +0.000 A 
ATOM     28  F   UNL     1       1.396   4.827  17.757  0.00  0.00    +0.000 F 
ENDBRANCH  19  22
ENDBRANCH  17  19
ENDBRANCH   3  17
TORSDOF 6
ENDMDL
