MODEL 1
REMARK VINA RESULT:      -6.9      0.000      0.000
REMARK  Name = 
REMARK  11 active torsions:
REMARK  status: ('A' for Active; 'I' for Inactive)
REMARK    1  A    between atoms: C_1  and  O_2
REMARK    2  A    between atoms: O_2  and  C_3
REMARK    3  A    between atoms: C_6  and  N_7
REMARK    4  A    between atoms: C_8  and  C_10
REMARK    5  A    between atoms: C_10  and  N_11
REMARK    6  A    between atoms: N_11  and  C_12
REMARK    7  A    between atoms: N_11  and  C_13
REMARK    8  A    between atoms: C_13  and  C_14
REMARK    9  A    between atoms: N_16  and  C_17
REMARK   10  A    between atoms: C_17  and  C_18
REMARK   11  A    between atoms: C_18  and  C_19
REMARK                            x       y       z     vdW  Elec       q    Type
REMARK                         _______ _______ _______ _____ _____    ______ ____
ROOT
ATOM      1  N   UNL     1       3.552   3.236  20.240  0.00  0.00    +0.000 NA
ATOM      2  C   UNL     1       4.334   2.113  20.767  0.00  0.00    +0.000 C 
ENDROOT
BRANCH   1   3
ATOM      3  C   UNL     1       2.426   3.581  21.141  0.00  0.00    +0.000 C 
BRANCH   3   5
ATOM      4  N   UNL     1       2.438   5.959  20.540  0.00  0.00    +0.000 N 
ATOM      5  C   UNL     1       1.666   4.815  20.643  0.00  0.00    +0.000 C 
ATOM      6  O   UNL     1       0.467   4.716  20.381  0.00  0.00    +0.000 OA
ATOM      7  H   UNL     1       3.408   5.868  20.826  0.00  0.00    +0.000 HD
BRANCH   4  11
ATOM      8  C   UNL     1       1.100   9.819  19.409  0.00  0.00    +0.000 A 
ATOM      9  C   UNL     1       1.782   9.023  18.498  0.00  0.00    +0.000 A 
ATOM     10  C   UNL     1       2.213   7.746  18.855  0.00  0.00    +0.000 A 
ATOM     11  C   UNL     1       1.992   7.240  20.136  0.00  0.00    +0.000 A 
ATOM     12  C   UNL     1       1.300   8.044  21.052  0.00  0.00    +0.000 A 
ATOM     13  C   UNL     1       0.860   9.330  20.693  0.00  0.00    +0.000 A 
BRANCH   8  15
ATOM     14  C   UNL     1       1.276  12.161  19.685  0.00  0.00    +0.000 C 
ATOM     15  O   UNL     1       0.768  11.061  18.944  0.00  0.00    +0.000 OA
ENDBRANCH   8  15
ENDBRANCH   4  11
ENDBRANCH   3   5
ENDBRANCH   1   3
BRANCH   1  16
ATOM     16  C   UNL     1       3.066   2.965  18.864  0.00  0.00    +0.000 C 
BRANCH  16  17
ATOM     17  C   UNL     1       3.683   3.859  17.776  0.00  0.00    +0.000 C 
ATOM     18  O   UNL     1       3.470   5.067  17.724  0.00  0.00    +0.000 OA
ATOM     19  N   UNL     1       4.498   3.196  16.873  0.00  0.00    +0.000 N 
ATOM     20  H   UNL     1       4.433   2.187  16.833  0.00  0.00    +0.000 HD
BRANCH  19  21
ATOM     21  C   UNL     1       5.054   3.897  15.728  0.00  0.00    +0.000 C 
BRANCH  21  22
ATOM     22  C   UNL     1       6.582   3.911  15.747  0.00  0.00    +0.000 C 
BRANCH  22  23
ATOM     23  C   UNL     1       7.107   4.999  16.654  0.00  0.00    +0.000 A 
ATOM     24  C   UNL     1       7.617   4.675  17.921  0.00  0.00    +0.000 A 
ATOM     25  C   UNL     1       8.054   5.680  18.784  0.00  0.00    +0.000 A 
ATOM     26  C   UNL     1       7.981   7.008  18.380  0.00  0.00    +0.000 A 
ATOM     27  F   UNL     1       8.395   7.974  19.211  0.00  0.00    +0.000 F 
ATOM     28  C   UNL     1       7.479   7.350  17.129  0.00  0.00    +0.000 A 
ATOM     29  C   UNL     1       7.040   6.345  16.265  0.00  0.00    +0.000 A 
ENDBRANCH  22  23
ENDBRANCH  21  22
ENDBRANCH  19  21
ENDBRANCH  16  17
ENDBRANCH   1  16
TORSDOF 9
ENDMDL
MODEL 2
REMARK VINA RESULT:      -6.8      3.202      7.733
REMARK  Name = 
REMARK  11 active torsions:
REMARK  status: ('A' for Active; 'I' for Inactive)
REMARK    1  A    between atoms: C_1  and  O_2
REMARK    2  A    between atoms: O_2  and  C_3
REMARK    3  A    between atoms: C_6  and  N_7
REMARK    4  A    between atoms: C_8  and  C_10
REMARK    5  A    between atoms: C_10  and  N_11
REMARK    6  A    between atoms: N_11  and  C_12
REMARK    7  A    between atoms: N_11  and  C_13
REMARK    8  A    between atoms: C_13  and  C_14
REMARK    9  A    between atoms: N_16  and  C_17
REMARK   10  A    between atoms: C_17  and  C_18
REMARK   11  A    between atoms: C_18  and  C_19
REMARK                            x       y       z     vdW  Elec       q    Type
REMARK                         _______ _______ _______ _____ _____    ______ ____
ROOT
ATOM      1  N   UNL     1       2.055   3.697  20.397  0.00  0.00    +0.000 NA
ATOM      2  C   UNL     1       0.787   2.975  20.533  0.00  0.00    +0.000 C 
ENDROOT
BRANCH   1   3
ATOM      3  C   UNL     1       3.205   2.854  20.801  0.00  0.00    +0.000 C 
BRANCH   3   5
ATOM      4  N   UNL     1       4.268   3.991  18.905  0.00  0.00    +0.000 N 
ATOM      5  C   UNL     1       4.335   2.910  19.767  0.00  0.00    +0.000 C 
ATOM      6  O   UNL     1       5.191   2.026  19.765  0.00  0.00    +0.000 OA
ATOM      7  H   UNL     1       3.473   4.611  19.031  0.00  0.00    +0.000 HD
BRANCH   4  11
ATOM      8  C   UNL     1       6.873   4.842  15.671  0.00  0.00    +0.000 A 
ATOM      9  C   UNL     1       7.239   5.179  16.967  0.00  0.00    +0.000 A 
ATOM     10  C   UNL     1       6.396   4.890  18.040  0.00  0.00    +0.000 A 
ATOM     11  C   UNL     1       5.159   4.276  17.844  0.00  0.00    +0.000 A 
ATOM     12  C   UNL     1       4.794   3.932  16.534  0.00  0.00    +0.000 A 
ATOM     13  C   UNL     1       5.645   4.218  15.452  0.00  0.00    +0.000 A 
BRANCH   8  15
ATOM     14  C   UNL     1       7.416   4.903  13.371  0.00  0.00    +0.000 C 
ATOM     15  O   UNL     1       7.771   5.213  14.710  0.00  0.00    +0.000 OA
ENDBRANCH   8  15
ENDBRANCH   4  11
ENDBRANCH   3   5
ENDBRANCH   1   3
BRANCH   1  16
ATOM     16  C   UNL     1       2.041   4.973  21.156  0.00  0.00    +0.000 C 
BRANCH  16  17
ATOM     17  C   UNL     1       1.998   6.239  20.286  0.00  0.00    +0.000 C 
ATOM     18  O   UNL     1       2.327   6.231  19.103  0.00  0.00    +0.000 OA
ATOM     19  N   UNL     1       1.553   7.378  20.938  0.00  0.00    +0.000 N 
ATOM     20  H   UNL     1       1.533   7.362  21.950  0.00  0.00    +0.000 HD
BRANCH  19  21
ATOM     21  C   UNL     1       1.570   8.667  20.268  0.00  0.00    +0.000 C 
BRANCH  21  22
ATOM     22  C   UNL     1       0.658   9.684  20.953  0.00  0.00    +0.000 C 
BRANCH  22  23
ATOM     23  C   UNL     1      -0.305  10.305  19.969  0.00  0.00    +0.000 A 
ATOM     24  C   UNL     1      -1.148  11.352  20.373  0.00  0.00    +0.000 A 
ATOM     25  C   UNL     1      -2.077  11.893  19.483  0.00  0.00    +0.000 A 
ATOM     26  C   UNL     1      -2.163  11.387  18.192  0.00  0.00    +0.000 A 
ATOM     27  F   UNL     1      -3.060  11.902  17.340  0.00  0.00    +0.000 F 
ATOM     28  C   UNL     1      -1.338  10.350  17.773  0.00  0.00    +0.000 A 
ATOM     29  C   UNL     1      -0.408   9.807  18.662  0.00  0.00    +0.000 A 
ENDBRANCH  22  23
ENDBRANCH  21  22
ENDBRANCH  19  21
ENDBRANCH  16  17
ENDBRANCH   1  16
TORSDOF 9
ENDMDL
MODEL 3
REMARK VINA RESULT:      -6.5      0.832      1.270
REMARK  Name = 
REMARK  11 active torsions:
REMARK  status: ('A' for Active; 'I' for Inactive)
REMARK    1  A    between atoms: C_1  and  O_2
REMARK    2  A    between atoms: O_2  and  C_3
REMARK    3  A    between atoms: C_6  and  N_7
REMARK    4  A    between atoms: C_8  and  C_10
REMARK    5  A    between atoms: C_10  and  N_11
REMARK    6  A    between atoms: N_11  and  C_12
REMARK    7  A    between atoms: N_11  and  C_13
REMARK    8  A    between atoms: C_13  and  C_14
REMARK    9  A    between atoms: N_16  and  C_17
REMARK   10  A    between atoms: C_17  and  C_18
REMARK   11  A    between atoms: C_18  and  C_19
REMARK                            x       y       z     vdW  Elec       q    Type
REMARK                         _______ _______ _______ _____ _____    ______ ____
ROOT
ATOM      1  N   UNL     1       3.058   3.422  19.386  0.00  0.00    +0.000 NA
ATOM      2  C   UNL     1       2.510   2.063  19.428  0.00  0.00    +0.000 C 
ENDROOT
BRANCH   1   3
ATOM      3  C   UNL     1       2.842   4.133  20.669  0.00  0.00    +0.000 C 
BRANCH   3   5
ATOM      4  N   UNL     1       2.507   6.533  20.288  0.00  0.00    +0.000 N 
ATOM      5  C   UNL     1       1.882   5.316  20.502  0.00  0.00    +0.000 C 
ATOM      6  O   UNL     1       0.669   5.119  20.570  0.00  0.00    +0.000 OA
ATOM      7  H   UNL     1       3.522   6.517  20.290  0.00  0.00    +0.000 HD
BRANCH   4  11
ATOM      8  C   UNL     1       0.614  10.305  19.891  0.00  0.00    +0.000 A 
ATOM      9  C   UNL     1       1.172   9.685  18.781  0.00  0.00    +0.000 A 
ATOM     10  C   UNL     1       1.785   8.438  18.898  0.00  0.00    +0.000 A 
ATOM     11  C   UNL     1       1.871   7.786  20.128  0.00  0.00    +0.000 A 
ATOM     12  C   UNL     1       1.302   8.412  21.246  0.00  0.00    +0.000 A 
ATOM     13  C   UNL     1       0.680   9.668  21.130  0.00  0.00    +0.000 A 
BRANCH   8  15
ATOM     14  C   UNL     1       0.471  12.575  20.536  0.00  0.00    +0.000 C 
ATOM     15  O   UNL     1       0.080  11.539  19.646  0.00  0.00    +0.000 OA
ENDBRANCH   8  15
ENDBRANCH   4  11
ENDBRANCH   3   5
ENDBRANCH   1   3
BRANCH   1  16
ATOM     16  C   UNL     1       2.503   4.200  18.250  0.00  0.00    +0.000 C 
BRANCH  16  17
ATOM     17  C   UNL     1       3.558   4.825  17.323  0.00  0.00    +0.000 C 
ATOM     18  O   UNL     1       3.771   6.034  17.295  0.00  0.00    +0.000 OA
ATOM     19  N   UNL     1       4.248   3.919  16.534  0.00  0.00    +0.000 N 
ATOM     20  H   UNL     1       3.859   2.990  16.435  0.00  0.00    +0.000 HD
BRANCH  19  21
ATOM     21  C   UNL     1       5.192   4.382  15.531  0.00  0.00    +0.000 C 
BRANCH  21  22
ATOM     22  C   UNL     1       6.643   4.159  15.958  0.00  0.00    +0.000 C 
BRANCH  22  23
ATOM     23  C   UNL     1       7.126   5.272  16.857  0.00  0.00    +0.000 A 
ATOM     24  C   UNL     1       7.130   6.598  16.397  0.00  0.00    +0.000 A 
ATOM     25  C   UNL     1       7.625   7.623  17.204  0.00  0.00    +0.000 A 
ATOM     26  C   UNL     1       8.115   7.322  18.469  0.00  0.00    +0.000 A 
ATOM     27  F   UNL     1       8.597   8.305  19.242  0.00  0.00    +0.000 F 
ATOM     28  C   UNL     1       8.120   6.015  18.943  0.00  0.00    +0.000 A 
ATOM     29  C   UNL     1       7.626   4.988  18.136  0.00  0.00    +0.000 A 
ENDBRANCH  22  23
ENDBRANCH  21  22
ENDBRANCH  19  21
ENDBRANCH  16  17
ENDBRANCH   1  16
TORSDOF 9
ENDMDL
MODEL 4
REMARK VINA RESULT:      -6.5      3.285      8.015
REMARK  Name = 
REMARK  11 active torsions:
REMARK  status: ('A' for Active; 'I' for Inactive)
REMARK    1  A    between atoms: C_1  and  O_2
REMARK    2  A    between atoms: O_2  and  C_3
REMARK    3  A    between atoms: C_6  and  N_7
REMARK    4  A    between atoms: C_8  and  C_10
REMARK    5  A    between atoms: C_10  and  N_11
REMARK    6  A    between atoms: N_11  and  C_12
REMARK    7  A    between atoms: N_11  and  C_13
REMARK    8  A    between atoms: C_13  and  C_14
REMARK    9  A    between atoms: N_16  and  C_17
REMARK   10  A    between atoms: C_17  and  C_18
REMARK   11  A    between atoms: C_18  and  C_19
REMARK                            x       y       z     vdW  Elec       q    Type
REMARK                         _______ _______ _______ _____ _____    ______ ____
ROOT
ATOM      1  N   UNL     1       1.996   3.582  19.809  0.00  0.00    +0.000 NA
ATOM      2  C   UNL     1       0.694   2.930  19.978  0.00  0.00    +0.000 C 
ENDROOT
BRANCH   1   3
ATOM      3  C   UNL     1       3.098   2.590  19.784  0.00  0.00    +0.000 C 
BRANCH   3   5
ATOM      4  N   UNL     1       4.107   3.498  17.740  0.00  0.00    +0.000 N 
ATOM      5  C   UNL     1       4.331   3.139  19.058  0.00  0.00    +0.000 C 
ATOM      6  O   UNL     1       5.399   3.219  19.666  0.00  0.00    +0.000 OA
ATOM      7  H   UNL     1       3.167   3.339  17.391  0.00  0.00    +0.000 HD
BRANCH   4  11
ATOM      8  C   UNL     1       6.922   5.029  14.965  0.00  0.00    +0.000 A 
ATOM      9  C   UNL     1       7.208   5.038  16.324  0.00  0.00    +0.000 A 
ATOM     10  C   UNL     1       6.295   4.523  17.244  0.00  0.00    +0.000 A 
ATOM     11  C   UNL     1       5.067   4.005  16.833  0.00  0.00    +0.000 A 
ATOM     12  C   UNL     1       4.783   3.994  15.460  0.00  0.00    +0.000 A 
ATOM     13  C   UNL     1       5.704   4.508  14.530  0.00  0.00    +0.000 A 
BRANCH   8  15
ATOM     14  C   UNL     1       7.888   5.197  12.814  0.00  0.00    +0.000 C 
ATOM     15  O   UNL     1       7.883   5.597  14.177  0.00  0.00    +0.000 OA
ENDBRANCH   8  15
ENDBRANCH   4  11
ENDBRANCH   3   5
ENDBRANCH   1   3
BRANCH   1  16
ATOM     16  C   UNL     1       2.232   4.610  20.853  0.00  0.00    +0.000 C 
BRANCH  16  17
ATOM     17  C   UNL     1       2.132   6.062  20.360  0.00  0.00    +0.000 C 
ATOM     18  O   UNL     1       2.644   6.432  19.307  0.00  0.00    +0.000 OA
ATOM     19  N   UNL     1       1.415   6.909  21.189  0.00  0.00    +0.000 N 
ATOM     20  H   UNL     1       1.235   6.599  22.136  0.00  0.00    +0.000 HD
BRANCH  19  21
ATOM     21  C   UNL     1       1.339   8.332  20.903  0.00  0.00    +0.000 C 
BRANCH  21  22
ATOM     22  C   UNL     1       1.424   9.180  22.172  0.00  0.00    +0.000 C 
BRANCH  22  23
ATOM     23  C   UNL     1       0.387  10.278  22.168  0.00  0.00    +0.000 A 
ATOM     24  C   UNL     1      -0.671  10.253  23.090  0.00  0.00    +0.000 A 
ATOM     25  C   UNL     1      -1.661  11.235  23.056  0.00  0.00    +0.000 A 
ATOM     26  C   UNL     1      -1.593  12.241  22.099  0.00  0.00    +0.000 A 
ATOM     27  F   UNL     1      -2.548  13.181  22.062  0.00  0.00    +0.000 F 
ATOM     28  C   UNL     1      -0.555  12.284  21.177  0.00  0.00    +0.000 A 
ATOM     29  C   UNL     1       0.437  11.301  21.209  0.00  0.00    +0.000 A 
ENDBRANCH  22  23
ENDBRANCH  21  22
ENDBRANCH  19  21
ENDBRANCH  16  17
ENDBRANCH   1  16
TORSDOF 9
ENDMDL
MODEL 5
REMARK VINA RESULT:      -6.5      3.169      4.281
REMARK  Name = 
REMARK  11 active torsions:
REMARK  status: ('A' for Active; 'I' for Inactive)
REMARK    1  A    between atoms: C_1  and  O_2
REMARK    2  A    between atoms: O_2  and  C_3
REMARK    3  A    between atoms: C_6  and  N_7
REMARK    4  A    between atoms: C_8  and  C_10
REMARK    5  A    between atoms: C_10  and  N_11
REMARK    6  A    between atoms: N_11  and  C_12
REMARK    7  A    between atoms: N_11  and  C_13
REMARK    8  A    between atoms: C_13  and  C_14
REMARK    9  A    between atoms: N_16  and  C_17
REMARK   10  A    between atoms: C_17  and  C_18
REMARK   11  A    between atoms: C_18  and  C_19
REMARK                            x       y       z     vdW  Elec       q    Type
REMARK                         _______ _______ _______ _____ _____    ______ ____
ROOT
ATOM      1  N   UNL     1       5.197   4.930  18.509  0.00  0.00    +0.000 NA
ATOM      2  C   UNL     1       4.858   3.773  19.342  0.00  0.00    +0.000 C 
ENDROOT
BRANCH   1   3
ATOM      3  C   UNL     1       4.211   5.118  17.418  0.00  0.00    +0.000 C 
BRANCH   3   5
ATOM      4  N   UNL     1       3.163   7.166  18.269  0.00  0.00    +0.000 N 
ATOM      5  C   UNL     1       2.956   5.845  17.912  0.00  0.00    +0.000 C 
ATOM      6  O   UNL     1       1.889   5.233  17.962  0.00  0.00    +0.000 OA
ATOM      7  H   UNL     1       4.118   7.503  18.191  0.00  0.00    +0.000 HD
BRANCH   4  11
ATOM      8  C   UNL     1       0.228   9.855  19.725  0.00  0.00    +0.000 A 
ATOM      9  C   UNL     1       0.794   8.915  20.576  0.00  0.00    +0.000 A 
ATOM     10  C   UNL     1       1.771   8.035  20.110  0.00  0.00    +0.000 A 
ATOM     11  C   UNL     1       2.193   8.060  18.781  0.00  0.00    +0.000 A 
ATOM     12  C   UNL     1       1.623   9.013  17.926  0.00  0.00    +0.000 A 
ATOM     13  C   UNL     1       0.641   9.904  18.395  0.00  0.00    +0.000 A 
BRANCH   8  15
ATOM     14  C   UNL     1      -1.216  11.716  19.514  0.00  0.00    +0.000 C 
ATOM     15  O   UNL     1      -0.743  10.629  20.297  0.00  0.00    +0.000 OA
ENDBRANCH   8  15
ENDBRANCH   4  11
ENDBRANCH   3   5
ENDBRANCH   1   3
BRANCH   1  16
ATOM     16  C   UNL     1       6.575   4.829  17.967  0.00  0.00    +0.000 C 
BRANCH  16  17
ATOM     17  C   UNL     1       7.084   6.098  17.263  0.00  0.00    +0.000 C 
ATOM     18  O   UNL     1       6.866   6.318  16.075  0.00  0.00    +0.000 OA
ATOM     19  N   UNL     1       7.795   6.967  18.075  0.00  0.00    +0.000 N 
ATOM     20  H   UNL     1       8.136   6.612  18.959  0.00  0.00    +0.000 HD
BRANCH  19  21
ATOM     21  C   UNL     1       8.431   8.146  17.514  0.00  0.00    +0.000 C 
BRANCH  21  22
ATOM     22  C   UNL     1       7.897   9.438  18.133  0.00  0.00    +0.000 C 
BRANCH  22  23
ATOM     23  C   UNL     1       9.020  10.295  18.666  0.00  0.00    +0.000 A 
ATOM     24  C   UNL     1       9.192  10.450  20.050  0.00  0.00    +0.000 A 
ATOM     25  C   UNL     1      10.195  11.282  20.549  0.00  0.00    +0.000 A 
ATOM     26  C   UNL     1      11.024  11.960  19.663  0.00  0.00    +0.000 A 
ATOM     27  F   UNL     1      11.982  12.765  20.141  0.00  0.00    +0.000 F 
ATOM     28  C   UNL     1      10.869  11.821  18.288  0.00  0.00    +0.000 A 
ATOM     29  C   UNL     1       9.866  10.989  17.788  0.00  0.00    +0.000 A 
ENDBRANCH  22  23
ENDBRANCH  21  22
ENDBRANCH  19  21
ENDBRANCH  16  17
ENDBRANCH   1  16
TORSDOF 9
ENDMDL
MODEL 6
REMARK VINA RESULT:      -6.4      3.138      7.913
REMARK  Name = 
REMARK  11 active torsions:
REMARK  status: ('A' for Active; 'I' for Inactive)
REMARK    1  A    between atoms: C_1  and  O_2
REMARK    2  A    between atoms: O_2  and  C_3
REMARK    3  A    between atoms: C_6  and  N_7
REMARK    4  A    between atoms: C_8  and  C_10
REMARK    5  A    between atoms: C_10  and  N_11
REMARK    6  A    between atoms: N_11  and  C_12
REMARK    7  A    between atoms: N_11  and  C_13
REMARK    8  A    between atoms: C_13  and  C_14
REMARK    9  A    between atoms: N_16  and  C_17
REMARK   10  A    between atoms: C_17  and  C_18
REMARK   11  A    between atoms: C_18  and  C_19
REMARK                            x       y       z     vdW  Elec       q    Type
REMARK                         _______ _______ _______ _____ _____    ______ ____
ROOT
ATOM      1  N   UNL     1       1.998   3.441  20.118  0.00  0.00    +0.000 NA
ATOM      2  C   UNL     1       1.280   2.834  21.242  0.00  0.00    +0.000 C 
ENDROOT
BRANCH   1   3
ATOM      3  C   UNL     1       2.844   2.447  19.415  0.00  0.00    +0.000 C 
BRANCH   3   5
ATOM      4  N   UNL     1       4.745   3.316  18.131  0.00  0.00    +0.000 N 
ATOM      5  C   UNL     1       3.396   3.007  18.100  0.00  0.00    +0.000 C 
ATOM      6  O   UNL     1       2.637   3.145  17.140  0.00  0.00    +0.000 OA
ATOM      7  H   UNL     1       5.214   3.164  19.019  0.00  0.00    +0.000 HD
BRANCH   4  11
ATOM      8  C   UNL     1       6.950   4.992  14.923  0.00  0.00    +0.000 A 
ATOM      9  C   UNL     1       7.507   4.930  16.193  0.00  0.00    +0.000 A 
ATOM     10  C   UNL     1       6.796   4.367  17.253  0.00  0.00    +0.000 A 
ATOM     11  C   UNL     1       5.505   3.870  17.074  0.00  0.00    +0.000 A 
ATOM     12  C   UNL     1       4.947   3.930  15.790  0.00  0.00    +0.000 A 
ATOM     13  C   UNL     1       5.664   4.493  14.719  0.00  0.00    +0.000 A 
BRANCH   8  15
ATOM     14  C   UNL     1       7.712   5.030  12.685  0.00  0.00    +0.000 C 
ATOM     15  O   UNL     1       7.737   5.601  13.985  0.00  0.00    +0.000 OA
ENDBRANCH   8  15
ENDBRANCH   4  11
ENDBRANCH   3   5
ENDBRANCH   1   3
BRANCH   1  16
ATOM     16  C   UNL     1       2.805   4.610  20.551  0.00  0.00    +0.000 C 
BRANCH  16  17
ATOM     17  C   UNL     1       2.280   5.970  20.062  0.00  0.00    +0.000 C 
ATOM     18  O   UNL     1       2.265   6.276  18.874  0.00  0.00    +0.000 OA
ATOM     19  N   UNL     1       1.821   6.809  21.065  0.00  0.00    +0.000 N 
ATOM     20  H   UNL     1       2.084   6.592  22.017  0.00  0.00    +0.000 HD
BRANCH  19  21
ATOM     21  C   UNL     1       1.405   8.167  20.757  0.00  0.00    +0.000 C 
BRANCH  21  22
ATOM     22  C   UNL     1       0.873   8.899  21.989  0.00  0.00    +0.000 C 
BRANCH  22  23
ATOM     23  C   UNL     1      -0.009  10.061  21.596  0.00  0.00    +0.000 A 
ATOM     24  C   UNL     1      -0.658  10.819  22.583  0.00  0.00    +0.000 A 
ATOM     25  C   UNL     1      -1.516  11.859  22.224  0.00  0.00    +0.000 A 
ATOM     26  C   UNL     1      -1.724  12.141  20.879  0.00  0.00    +0.000 A 
ATOM     27  F   UNL     1      -2.552  13.136  20.535  0.00  0.00    +0.000 F 
ATOM     28  C   UNL     1      -1.091  11.403  19.887  0.00  0.00    +0.000 A 
ATOM     29  C   UNL     1      -0.233  10.360  20.244  0.00  0.00    +0.000 A 
ENDBRANCH  22  23
ENDBRANCH  21  22
ENDBRANCH  19  21
ENDBRANCH  16  17
ENDBRANCH   1  16
TORSDOF 9
ENDMDL
MODEL 7
REMARK VINA RESULT:      -6.4      3.225      7.870
REMARK  Name = 
REMARK  11 active torsions:
REMARK  status: ('A' for Active; 'I' for Inactive)
REMARK    1  A    between atoms: C_1  and  O_2
REMARK    2  A    between atoms: O_2  and  C_3
REMARK    3  A    between atoms: C_6  and  N_7
REMARK    4  A    between atoms: C_8  and  C_10
REMARK    5  A    between atoms: C_10  and  N_11
REMARK    6  A    between atoms: N_11  and  C_12
REMARK    7  A    between atoms: N_11  and  C_13
REMARK    8  A    between atoms: C_13  and  C_14
REMARK    9  A    between atoms: N_16  and  C_17
REMARK   10  A    between atoms: C_17  and  C_18
REMARK   11  A    between atoms: C_18  and  C_19
REMARK                            x       y       z     vdW  Elec       q    Type
REMARK                         _______ _______ _______ _____ _____    ______ ____
ROOT
ATOM      1  N   UNL     1       2.024   3.448  20.213  0.00  0.00    +0.000 NA
ATOM      2  C   UNL     1       1.343   2.944  21.409  0.00  0.00    +0.000 C 
ENDROOT
BRANCH   1   3
ATOM      3  C   UNL     1       2.800   2.379  19.541  0.00  0.00    +0.000 C 
BRANCH   3   5
ATOM      4  N   UNL     1       3.935   3.472  17.660  0.00  0.00    +0.000 N 
ATOM      5  C   UNL     1       4.092   2.926  18.922  0.00  0.00    +0.000 C 
ATOM      6  O   UNL     1       5.143   2.845  19.558  0.00  0.00    +0.000 OA
ATOM      7  H   UNL     1       2.997   3.430  17.272  0.00  0.00    +0.000 HD
BRANCH   4  11
ATOM      8  C   UNL     1       7.051   5.098  15.290  0.00  0.00    +0.000 A 
ATOM      9  C   UNL     1       5.868   4.680  14.695  0.00  0.00    +0.000 A 
ATOM     10  C   UNL     1       4.831   4.157  15.467  0.00  0.00    +0.000 A 
ATOM     11  C   UNL     1       4.956   4.021  16.850  0.00  0.00    +0.000 A 
ATOM     12  C   UNL     1       6.149   4.447  17.449  0.00  0.00    +0.000 A 
ATOM     13  C   UNL     1       7.194   4.979  16.673  0.00  0.00    +0.000 A 
BRANCH   8  15
ATOM     14  C   UNL     1       7.851   5.141  13.067  0.00  0.00    +0.000 C 
ATOM     15  O   UNL     1       7.998   5.554  14.417  0.00  0.00    +0.000 OA
ENDBRANCH   8  15
ENDBRANCH   4  11
ENDBRANCH   3   5
ENDBRANCH   1   3
BRANCH   1  16
ATOM     16  C   UNL     1       2.889   4.613  20.527  0.00  0.00    +0.000 C 
BRANCH  16  17
ATOM     17  C   UNL     1       2.332   5.970  20.069  0.00  0.00    +0.000 C 
ATOM     18  O   UNL     1       2.385   6.337  18.898  0.00  0.00    +0.000 OA
ATOM     19  N   UNL     1       1.762   6.734  21.075  0.00  0.00    +0.000 N 
ATOM     20  H   UNL     1       1.969   6.480  22.032  0.00  0.00    +0.000 HD
BRANCH  19  21
ATOM     21  C   UNL     1       1.300   8.085  20.804  0.00  0.00    +0.000 C 
BRANCH  21  22
ATOM     22  C   UNL     1       1.392   8.983  22.038  0.00  0.00    +0.000 C 
BRANCH  22  23
ATOM     23  C   UNL     1       0.330  10.057  22.012  0.00  0.00    +0.000 A 
ATOM     24  C   UNL     1      -0.545  10.209  23.099  0.00  0.00    +0.000 A 
ATOM     25  C   UNL     1      -1.561  11.164  23.058  0.00  0.00    +0.000 A 
ATOM     26  C   UNL     1      -1.702  11.966  21.932  0.00  0.00    +0.000 A 
ATOM     27  F   UNL     1      -2.682  12.879  21.890  0.00  0.00    +0.000 F 
ATOM     28  C   UNL     1      -0.845  11.831  20.846  0.00  0.00    +0.000 A 
ATOM     29  C   UNL     1       0.171  10.875  20.884  0.00  0.00    +0.000 A 
ENDBRANCH  22  23
ENDBRANCH  21  22
ENDBRANCH  19  21
ENDBRANCH  16  17
ENDBRANCH   1  16
TORSDOF 9
ENDMDL
MODEL 8
REMARK VINA RESULT:      -6.4      2.435      3.467
REMARK  Name = 
REMARK  11 active torsions:
REMARK  status: ('A' for Active; 'I' for Inactive)
REMARK    1  A    between atoms: C_1  and  O_2
REMARK    2  A    between atoms: O_2  and  C_3
REMARK    3  A    between atoms: C_6  and  N_7
REMARK    4  A    between atoms: C_8  and  C_10
REMARK    5  A    between atoms: C_10  and  N_11
REMARK    6  A    between atoms: N_11  and  C_12
REMARK    7  A    between atoms: N_11  and  C_13
REMARK    8  A    between atoms: C_13  and  C_14
REMARK    9  A    between atoms: N_16  and  C_17
REMARK   10  A    between atoms: C_17  and  C_18
REMARK   11  A    between atoms: C_18  and  C_19
REMARK                            x       y       z     vdW  Elec       q    Type
REMARK                         _______ _______ _______ _____ _____    ______ ____
ROOT
ATOM      1  N   UNL     1       3.239   3.288  19.277  0.00  0.00    +0.000 NA
ATOM      2  C   UNL     1       2.744   4.032  18.115  0.00  0.00    +0.000 C 
ENDROOT
BRANCH   1   3
ATOM      3  C   UNL     1       2.889   3.969  20.546  0.00  0.00    +0.000 C 
BRANCH   3   5
ATOM      4  N   UNL     1       2.599   6.355  20.053  0.00  0.00    +0.000 N 
ATOM      5  C   UNL     1       1.952   5.158  20.306  0.00  0.00    +0.000 C 
ATOM      6  O   UNL     1       0.735   4.982  20.355  0.00  0.00    +0.000 OA
ATOM      7  H   UNL     1       3.614   6.325  20.078  0.00  0.00    +0.000 HD
BRANCH   4  11
ATOM      8  C   UNL     1       0.754  10.094  19.288  0.00  0.00    +0.000 A 
ATOM      9  C   UNL     1       0.747   9.563  20.571  0.00  0.00    +0.000 A 
ATOM     10  C   UNL     1       1.363   8.340  20.836  0.00  0.00    +0.000 A 
ATOM     11  C   UNL     1       1.987   7.610  19.824  0.00  0.00    +0.000 A 
ATOM     12  C   UNL     1       1.997   8.150  18.531  0.00  0.00    +0.000 A 
ATOM     13  C   UNL     1       1.380   9.385  18.263  0.00  0.00    +0.000 A 
BRANCH   8  15
ATOM     14  C   UNL     1      -0.831  11.593  20.197  0.00  0.00    +0.000 C 
ATOM     15  O   UNL     1       0.083  11.277  19.157  0.00  0.00    +0.000 OA
ENDBRANCH   8  15
ENDBRANCH   4  11
ENDBRANCH   3   5
ENDBRANCH   1   3
BRANCH   1  16
ATOM     16  C   UNL     1       4.702   3.048  19.190  0.00  0.00    +0.000 C 
BRANCH  16  17
ATOM     17  C   UNL     1       5.536   4.286  18.824  0.00  0.00    +0.000 C 
ATOM     18  O   UNL     1       5.480   5.327  19.473  0.00  0.00    +0.000 OA
ATOM     19  N   UNL     1       6.353   4.130  17.716  0.00  0.00    +0.000 N 
ATOM     20  H   UNL     1       6.168   3.347  17.102  0.00  0.00    +0.000 HD
BRANCH  19  21
ATOM     21  C   UNL     1       7.108   5.255  17.191  0.00  0.00    +0.000 C 
BRANCH  21  22
ATOM     22  C   UNL     1       6.383   5.946  16.037  0.00  0.00    +0.000 C 
BRANCH  22  23
ATOM     23  C   UNL     1       6.338   5.064  14.812  0.00  0.00    +0.000 A 
ATOM     24  C   UNL     1       7.430   5.023  13.932  0.00  0.00    +0.000 A 
ATOM     25  C   UNL     1       7.372   4.251  12.771  0.00  0.00    +0.000 A 
ATOM     26  C   UNL     1       6.223   3.521  12.491  0.00  0.00    +0.000 A 
ATOM     27  F   UNL     1       6.165   2.785  11.373  0.00  0.00    +0.000 F 
ATOM     28  C   UNL     1       5.131   3.548  13.350  0.00  0.00    +0.000 A 
ATOM     29  C   UNL     1       5.186   4.321  14.512  0.00  0.00    +0.000 A 
ENDBRANCH  22  23
ENDBRANCH  21  22
ENDBRANCH  19  21
ENDBRANCH  16  17
ENDBRANCH   1  16
TORSDOF 9
ENDMDL
MODEL 9
REMARK VINA RESULT:      -6.3      1.396      1.772
REMARK  Name = 
REMARK  11 active torsions:
REMARK  status: ('A' for Active; 'I' for Inactive)
REMARK    1  A    between atoms: C_1  and  O_2
REMARK    2  A    between atoms: O_2  and  C_3
REMARK    3  A    between atoms: C_6  and  N_7
REMARK    4  A    between atoms: C_8  and  C_10
REMARK    5  A    between atoms: C_10  and  N_11
REMARK    6  A    between atoms: N_11  and  C_12
REMARK    7  A    between atoms: N_11  and  C_13
REMARK    8  A    between atoms: C_13  and  C_14
REMARK    9  A    between atoms: N_16  and  C_17
REMARK   10  A    between atoms: C_17  and  C_18
REMARK   11  A    between atoms: C_18  and  C_19
REMARK                            x       y       z     vdW  Elec       q    Type
REMARK                         _______ _______ _______ _____ _____    ______ ____
ROOT
ATOM      1  N   UNL     1       1.772   3.543  20.783  0.00  0.00    +0.000 NA
ATOM      2  C   UNL     1       0.653   3.876  19.898  0.00  0.00    +0.000 C 
ENDROOT
BRANCH   1   3
ATOM      3  C   UNL     1       2.748   4.656  20.865  0.00  0.00    +0.000 C 
BRANCH   3   5
ATOM      4  N   UNL     1       1.920   6.965  20.846  0.00  0.00    +0.000 N 
ATOM      5  C   UNL     1       2.276   5.877  20.068  0.00  0.00    +0.000 C 
ATOM      6  O   UNL     1       2.241   5.814  18.839  0.00  0.00    +0.000 OA
ATOM      7  H   UNL     1       1.984   6.832  21.851  0.00  0.00    +0.000 HD
BRANCH   4  11
ATOM      8  C   UNL     1       0.430  10.707  19.525  0.00  0.00    +0.000 A 
ATOM      9  C   UNL     1       1.258   9.957  18.701  0.00  0.00    +0.000 A 
ATOM     10  C   UNL     1       1.742   8.718  19.120  0.00  0.00    +0.000 A 
ATOM     11  C   UNL     1       1.426   8.206  20.378  0.00  0.00    +0.000 A 
ATOM     12  C   UNL     1       0.587   8.963  21.207  0.00  0.00    +0.000 A 
ATOM     13  C   UNL     1       0.094  10.211  20.784  0.00  0.00    +0.000 A 
BRANCH   8  15
ATOM     14  C   UNL     1       1.110  12.738  18.523  0.00  0.00    +0.000 C 
ATOM     15  O   UNL     1       0.058  11.917  19.010  0.00  0.00    +0.000 OA
ENDBRANCH   8  15
ENDBRANCH   4  11
ENDBRANCH   3   5
ENDBRANCH   1   3
BRANCH   1  16
ATOM     16  C   UNL     1       2.439   2.282  20.371  0.00  0.00    +0.000 C 
BRANCH  16  17
ATOM     17  C   UNL     1       3.698   2.473  19.509  0.00  0.00    +0.000 C 
ATOM     18  O   UNL     1       4.828   2.305  19.956  0.00  0.00    +0.000 OA
ATOM     19  N   UNL     1       3.452   2.839  18.195  0.00  0.00    +0.000 N 
ATOM     20  H   UNL     1       2.529   3.189  17.969  0.00  0.00    +0.000 HD
BRANCH  19  21
ATOM     21  C   UNL     1       4.551   3.165  17.302  0.00  0.00    +0.000 C 
BRANCH  21  22
ATOM     22  C   UNL     1       4.478   4.607  16.802  0.00  0.00    +0.000 C 
BRANCH  22  23
ATOM     23  C   UNL     1       5.654   5.417  17.295  0.00  0.00    +0.000 A 
ATOM     24  C   UNL     1       6.550   4.866  18.223  0.00  0.00    +0.000 A 
ATOM     25  C   UNL     1       7.607   5.627  18.722  0.00  0.00    +0.000 A 
ATOM     26  C   UNL     1       7.767   6.940  18.294  0.00  0.00    +0.000 A 
ATOM     27  F   UNL     1       8.778   7.674  18.778  0.00  0.00    +0.000 F 
ATOM     28  C   UNL     1       6.889   7.505  17.375  0.00  0.00    +0.000 A 
ATOM     29  C   UNL     1       5.831   6.744  16.876  0.00  0.00    +0.000 A 
ENDBRANCH  22  23
ENDBRANCH  21  22
ENDBRANCH  19  21
ENDBRANCH  16  17
ENDBRANCH   1  16
TORSDOF 9
ENDMDL
