MODEL 1
REMARK VINA RESULT:      -7.8      0.000      0.000
REMARK  Name = 
REMARK  10 active torsions:
REMARK  status: ('A' for Active; 'I' for Inactive)
REMARK    1  A    between atoms: C_1  and  C_2
REMARK    2  A    between atoms: C_2  and  O_3
REMARK    3  A    between atoms: O_3  and  C_4
REMARK    4  A    between atoms: C_10  and  C_12
REMARK    5  A    between atoms: C_12  and  N_13
REMARK    6  A    between atoms: N_13  and  C_14
REMARK    7  A    between atoms: N_13  and  S_23
REMARK    8  A    between atoms: C_20  and  O_21
REMARK    9  A    between atoms: O_21  and  C_22
REMARK   10  A    between atoms: S_23  and  C_26
REMARK                            x       y       z     vdW  Elec       q    Type
REMARK                         _______ _______ _______ _____ _____    ______ ____
ROOT
ATOM      1  N   UNL     1       3.410   5.609  17.961  0.00  0.00    +0.000 N 
ENDROOT
BRANCH   1   2
ATOM      2  C   UNL     1       4.847   5.627  17.842  0.00  0.00    +0.000 A 
ATOM      3  C   UNL     1       5.606   5.553  19.026  0.00  0.00    +0.000 A 
ATOM      4  C   UNL     1       6.998   5.571  18.983  0.00  0.00    +0.000 A 
ATOM      5 CL   UNL     1       7.894   5.524  20.451  0.00  0.00    +0.000 Cl
ATOM      6  C   UNL     1       7.663   5.634  17.767  0.00  0.00    +0.000 A 
ATOM      7  C   UNL     1       6.923   5.665  16.586  0.00  0.00    +0.000 A 
ATOM      8  C   UNL     1       5.519   5.669  16.605  0.00  0.00    +0.000 A 
BRANCH   8   9
ATOM      9  O   UNL     1       4.986   5.696  15.346  0.00  0.00    +0.000 OA
ATOM     10  C   UNL     1       5.491   4.770  14.394  0.00  0.00    +0.000 C 
ENDBRANCH   8   9
ENDBRANCH   1   2
BRANCH   1  11
ATOM     11  S   UNL     1       2.599   4.144  17.652  0.00  0.00    +0.000 S 
ATOM     12  O   UNL     1       1.266   4.454  17.169  0.00  0.00    +0.000 OA
ATOM     13  O   UNL     1       3.468   3.251  16.913  0.00  0.00    +0.000 OA
BRANCH  11  14
ATOM     14  C   UNL     1       2.378   3.393  19.263  0.00  0.00    +0.000 A 
ATOM     15  C   UNL     1       3.471   2.833  19.932  0.00  0.00    +0.000 A 
ATOM     16  C   UNL     1       3.311   2.357  21.235  0.00  0.00    +0.000 A 
ATOM     17  C   UNL     1       2.071   2.452  21.870  0.00  0.00    +0.000 A 
ATOM     18  C   UNL     1       0.988   3.030  21.208  0.00  0.00    +0.000 A 
ATOM     19  C   UNL     1       1.139   3.511  19.908  0.00  0.00    +0.000 A 
ENDBRANCH  11  14
ENDBRANCH   1  11
BRANCH   1  20
ATOM     20  C   UNL     1       2.790   6.541  18.939  0.00  0.00    +0.000 C 
BRANCH  20  27
ATOM     21  C   UNL     1      -0.889  11.316  20.788  0.00  0.00    +0.000 C 
ATOM     22  O   UNL     1      -1.079  12.421  20.295  0.00  0.00    +0.000 OA
ATOM     23  N   UNL     1      -0.415  10.226  20.085  0.00  0.00    +0.000 N 
ATOM     24  C   UNL     1       0.004  10.395  18.691  0.00  0.00    +0.000 C 
ATOM     25  C   UNL     1       1.520  10.177  18.559  0.00  0.00    +0.000 C 
ATOM     26  N   UNL     1       1.907   8.879  19.140  0.00  0.00    +0.000 N 
ATOM     27  C   UNL     1       2.367   7.867  18.295  0.00  0.00    +0.000 C 
ATOM     28  O   UNL     1       2.452   8.054  17.080  0.00  0.00    +0.000 OA
ATOM     29  C   UNL     1       1.504   8.719  20.546  0.00  0.00    +0.000 C 
ATOM     30  C   UNL     1      -0.009   8.964  20.713  0.00  0.00    +0.000 C 
BRANCH  21  31
ATOM     31  O   UNL     1      -1.055  11.039  22.109  0.00  0.00    +0.000 OA
BRANCH  31  33
ATOM     32  C   UNL     1      -2.819  12.101  23.313  0.00  0.00    +0.000 C 
ATOM     33  C   UNL     1      -1.347  12.167  22.945  0.00  0.00    +0.000 C 
ENDBRANCH  31  33
ENDBRANCH  21  31
ENDBRANCH  20  27
ENDBRANCH   1  20
TORSDOF 8
ENDMDL
MODEL 2
REMARK VINA RESULT:      -7.6      1.613      2.276
REMARK  Name = 
REMARK  10 active torsions:
REMARK  status: ('A' for Active; 'I' for Inactive)
REMARK    1  A    between atoms: C_1  and  C_2
REMARK    2  A    between atoms: C_2  and  O_3
REMARK    3  A    between atoms: O_3  and  C_4
REMARK    4  A    between atoms: C_10  and  C_12
REMARK    5  A    between atoms: C_12  and  N_13
REMARK    6  A    between atoms: N_13  and  C_14
REMARK    7  A    between atoms: N_13  and  S_23
REMARK    8  A    between atoms: C_20  and  O_21
REMARK    9  A    between atoms: O_21  and  C_22
REMARK   10  A    between atoms: S_23  and  C_26
REMARK                            x       y       z     vdW  Elec       q    Type
REMARK                         _______ _______ _______ _____ _____    ______ ____
ROOT
ATOM      1  N   UNL     1       3.460   5.252  17.537  0.00  0.00    +0.000 N 
ENDROOT
BRANCH   1   2
ATOM      2  C   UNL     1       4.785   4.979  17.039  0.00  0.00    +0.000 A 
ATOM      3  C   UNL     1       4.929   4.714  15.663  0.00  0.00    +0.000 A 
ATOM      4  C   UNL     1       6.180   4.437  15.117  0.00  0.00    +0.000 A 
ATOM      5 CL   UNL     1       6.314   4.074  13.441  0.00  0.00    +0.000 Cl
ATOM      6  C   UNL     1       7.313   4.445  15.917  0.00  0.00    +0.000 A 
ATOM      7  C   UNL     1       7.189   4.748  17.272  0.00  0.00    +0.000 A 
ATOM      8  C   UNL     1       5.937   5.010  17.850  0.00  0.00    +0.000 A 
BRANCH   8   9
ATOM      9  O   UNL     1       6.031   5.290  19.185  0.00  0.00    +0.000 OA
ATOM     10  C   UNL     1       7.310   5.635  19.700  0.00  0.00    +0.000 C 
ENDBRANCH   8   9
ENDBRANCH   1   2
BRANCH   1  11
ATOM     11  S   UNL     1       2.345   3.966  17.596  0.00  0.00    +0.000 S 
ATOM     12  O   UNL     1       1.026   4.493  17.303  0.00  0.00    +0.000 OA
ATOM     13  O   UNL     1       2.872   2.830  16.867  0.00  0.00    +0.000 OA
BRANCH  11  14
ATOM     14  C   UNL     1       2.308   3.471  19.317  0.00  0.00    +0.000 A 
ATOM     15  C   UNL     1       1.115   3.550  20.044  0.00  0.00    +0.000 A 
ATOM     16  C   UNL     1       1.069   3.051  21.348  0.00  0.00    +0.000 A 
ATOM     17  C   UNL     1       2.202   2.466  21.916  0.00  0.00    +0.000 A 
ATOM     18  C   UNL     1       3.383   2.370  21.182  0.00  0.00    +0.000 A 
ATOM     19  C   UNL     1       3.438   2.861  19.878  0.00  0.00    +0.000 A 
ENDBRANCH  11  14
ENDBRANCH   1  11
BRANCH   1  20
ATOM     20  C   UNL     1       3.316   6.330  18.552  0.00  0.00    +0.000 C 
BRANCH  20  27
ATOM     21  C   UNL     1      -0.649  10.832  20.493  0.00  0.00    +0.000 C 
ATOM     22  O   UNL     1      -0.898  11.937  20.028  0.00  0.00    +0.000 OA
ATOM     23  N   UNL     1      -0.106   9.791  19.766  0.00  0.00    +0.000 N 
ATOM     24  C   UNL     1       0.313  10.021  18.380  0.00  0.00    +0.000 C 
ATOM     25  C   UNL     1       1.841   9.895  18.258  0.00  0.00    +0.000 C 
ATOM     26  N   UNL     1       2.297   8.606  18.807  0.00  0.00    +0.000 N 
ATOM     27  C   UNL     1       2.822   7.646  17.940  0.00  0.00    +0.000 C 
ATOM     28  O   UNL     1       2.905   7.871  16.731  0.00  0.00    +0.000 OA
ATOM     29  C   UNL     1       1.893   8.385  20.204  0.00  0.00    +0.000 C 
ATOM     30  C   UNL     1       0.367   8.537  20.364  0.00  0.00    +0.000 C 
BRANCH  21  31
ATOM     31  O   UNL     1      -0.808  10.510  21.805  0.00  0.00    +0.000 OA
BRANCH  31  33
ATOM     32  C   UNL     1      -2.281  11.873  23.093  0.00  0.00    +0.000 C 
ATOM     33  C   UNL     1      -0.833  11.618  22.714  0.00  0.00    +0.000 C 
ENDBRANCH  31  33
ENDBRANCH  21  31
ENDBRANCH  20  27
ENDBRANCH   1  20
TORSDOF 8
ENDMDL
MODEL 3
REMARK VINA RESULT:      -6.6      1.817      2.511
REMARK  Name = 
REMARK  10 active torsions:
REMARK  status: ('A' for Active; 'I' for Inactive)
REMARK    1  A    between atoms: C_1  and  C_2
REMARK    2  A    between atoms: C_2  and  O_3
REMARK    3  A    between atoms: O_3  and  C_4
REMARK    4  A    between atoms: C_10  and  C_12
REMARK    5  A    between atoms: C_12  and  N_13
REMARK    6  A    between atoms: N_13  and  C_14
REMARK    7  A    between atoms: N_13  and  S_23
REMARK    8  A    between atoms: C_20  and  O_21
REMARK    9  A    between atoms: O_21  and  C_22
REMARK   10  A    between atoms: S_23  and  C_26
REMARK                            x       y       z     vdW  Elec       q    Type
REMARK                         _______ _______ _______ _____ _____    ______ ____
ROOT
ATOM      1  N   UNL     1       3.177   5.605  18.070  0.00  0.00    +0.000 N 
ENDROOT
BRANCH   1   2
ATOM      2  C   UNL     1       4.399   5.172  17.440  0.00  0.00    +0.000 A 
ATOM      3  C   UNL     1       4.352   4.835  16.073  0.00  0.00    +0.000 A 
ATOM      4  C   UNL     1       5.494   4.404  15.404  0.00  0.00    +0.000 A 
ATOM      5 CL   UNL     1       5.391   3.959  13.746  0.00  0.00    +0.000 Cl
ATOM      6  C   UNL     1       6.710   4.325  16.068  0.00  0.00    +0.000 A 
ATOM      7  C   UNL     1       6.779   4.696  17.410  0.00  0.00    +0.000 A 
ATOM      8  C   UNL     1       5.636   5.114  18.111  0.00  0.00    +0.000 A 
BRANCH   8   9
ATOM      9  O   UNL     1       5.917   5.438  19.410  0.00  0.00    +0.000 OA
ATOM     10  C   UNL     1       7.280   5.614  19.768  0.00  0.00    +0.000 C 
ENDBRANCH   8   9
ENDBRANCH   1   2
BRANCH   1  11
ATOM     11  S   UNL     1       2.037   4.419  18.507  0.00  0.00    +0.000 S 
ATOM     12  O   UNL     1       1.368   4.854  19.718  0.00  0.00    +0.000 OA
ATOM     13  O   UNL     1       1.277   4.018  17.340  0.00  0.00    +0.000 OA
BRANCH  11  14
ATOM     14  C   UNL     1       3.014   2.991  18.969  0.00  0.00    +0.000 A 
ATOM     15  C   UNL     1       3.228   1.959  18.049  0.00  0.00    +0.000 A 
ATOM     16  C   UNL     1       4.087   0.908  18.380  0.00  0.00    +0.000 A 
ATOM     17  C   UNL     1       4.739   0.897  19.615  0.00  0.00    +0.000 A 
ATOM     18  C   UNL     1       4.540   1.937  20.521  0.00  0.00    +0.000 A 
ATOM     19  C   UNL     1       3.687   2.992  20.199  0.00  0.00    +0.000 A 
ENDBRANCH  11  14
ENDBRANCH   1  11
BRANCH   1  20
ATOM     20  C   UNL     1       3.231   6.840  18.897  0.00  0.00    +0.000 C 
BRANCH  20  27
ATOM     21  C   UNL     1      -1.064  11.146  20.563  0.00  0.00    +0.000 C 
ATOM     22  O   UNL     1      -1.423  12.177  20.009  0.00  0.00    +0.000 OA
ATOM     23  N   UNL     1      -0.451  10.092  19.914  0.00  0.00    +0.000 N 
ATOM     24  C   UNL     1      -0.092  10.227  18.499  0.00  0.00    +0.000 C 
ATOM     25  C   UNL     1       1.437  10.223  18.334  0.00  0.00    +0.000 C 
ATOM     26  N   UNL     1       2.021   9.034  18.981  0.00  0.00    +0.000 N 
ATOM     27  C   UNL     1       2.605   8.047  18.186  0.00  0.00    +0.000 C 
ATOM     28  O   UNL     1       2.635   8.164  16.960  0.00  0.00    +0.000 OA
ATOM     29  C   UNL     1       1.676   8.910  20.406  0.00  0.00    +0.000 C 
ATOM     30  C   UNL     1       0.147   8.944  20.605  0.00  0.00    +0.000 C 
BRANCH  21  31
ATOM     31  O   UNL     1      -1.159  10.935  21.903  0.00  0.00    +0.000 OA
BRANCH  31  33
ATOM     32  C   UNL     1      -2.512  12.308  23.306  0.00  0.00    +0.000 C 
ATOM     33  C   UNL     1      -1.126  12.113  22.717  0.00  0.00    +0.000 C 
ENDBRANCH  31  33
ENDBRANCH  21  31
ENDBRANCH  20  27
ENDBRANCH   1  20
TORSDOF 8
ENDMDL
MODEL 4
REMARK VINA RESULT:      -6.4      6.445      9.042
REMARK  Name = 
REMARK  10 active torsions:
REMARK  status: ('A' for Active; 'I' for Inactive)
REMARK    1  A    between atoms: C_1  and  C_2
REMARK    2  A    between atoms: C_2  and  O_3
REMARK    3  A    between atoms: O_3  and  C_4
REMARK    4  A    between atoms: C_10  and  C_12
REMARK    5  A    between atoms: C_12  and  N_13
REMARK    6  A    between atoms: N_13  and  C_14
REMARK    7  A    between atoms: N_13  and  S_23
REMARK    8  A    between atoms: C_20  and  O_21
REMARK    9  A    between atoms: O_21  and  C_22
REMARK   10  A    between atoms: S_23  and  C_26
REMARK                            x       y       z     vdW  Elec       q    Type
REMARK                         _______ _______ _______ _____ _____    ______ ____
ROOT
ATOM      1  N   UNL     1      -1.224  12.099  18.611  0.00  0.00    +0.000 N 
ENDROOT
BRANCH   1   2
ATOM      2  C   UNL     1      -2.616  11.858  18.322  0.00  0.00    +0.000 A 
ATOM      3  C   UNL     1      -3.555  12.121  19.338  0.00  0.00    +0.000 A 
ATOM      4  C   UNL     1      -4.914  11.905  19.127  0.00  0.00    +0.000 A 
ATOM      5 CL   UNL     1      -6.028  12.195  20.405  0.00  0.00    +0.000 Cl
ATOM      6  C   UNL     1      -5.371  11.451  17.899  0.00  0.00    +0.000 A 
ATOM      7  C   UNL     1      -4.456  11.227  16.871  0.00  0.00    +0.000 A 
ATOM      8  C   UNL     1      -3.079  11.418  17.066  0.00  0.00    +0.000 A 
BRANCH   8   9
ATOM      9  O   UNL     1      -2.355  11.151  15.937  0.00  0.00    +0.000 OA
ATOM     10  C   UNL     1      -2.966  10.355  14.932  0.00  0.00    +0.000 C 
ENDBRANCH   8   9
ENDBRANCH   1   2
BRANCH   1  11
ATOM     11  S   UNL     1      -0.210  10.752  18.847  0.00  0.00    +0.000 S 
ATOM     12  O   UNL     1      -0.817   9.605  18.199  0.00  0.00    +0.000 OA
ATOM     13  O   UNL     1       1.164  11.121  18.572  0.00  0.00    +0.000 OA
BRANCH  11  14
ATOM     14  C   UNL     1      -0.287  10.423  20.605  0.00  0.00    +0.000 A 
ATOM     15  C   UNL     1      -0.727  11.416  21.487  0.00  0.00    +0.000 A 
ATOM     16  C   UNL     1      -0.895  11.111  22.840  0.00  0.00    +0.000 A 
ATOM     17  C   UNL     1      -0.637   9.820  23.306  0.00  0.00    +0.000 A 
ATOM     18  C   UNL     1      -0.218   8.827  22.422  0.00  0.00    +0.000 A 
ATOM     19  C   UNL     1      -0.052   9.121  21.069  0.00  0.00    +0.000 A 
ENDBRANCH  11  14
ENDBRANCH   1  11
BRANCH   1  20
ATOM     20  C   UNL     1      -0.608  13.329  18.046  0.00  0.00    +0.000 C 
BRANCH  20  27
ATOM     21  C   UNL     1       4.640  15.726  20.590  0.00  0.00    +0.000 C 
ATOM     22  O   UNL     1       4.804  16.678  21.341  0.00  0.00    +0.000 OA
ATOM     23  N   UNL     1       3.445  15.048  20.451  0.00  0.00    +0.000 N 
ATOM     24  C   UNL     1       2.251  15.541  21.145  0.00  0.00    +0.000 C 
ATOM     25  C   UNL     1       1.210  16.038  20.128  0.00  0.00    +0.000 C 
ATOM     26  N   UNL     1       0.924  14.990  19.131  0.00  0.00    +0.000 N 
ATOM     27  C   UNL     1      -0.337  14.392  19.118  0.00  0.00    +0.000 C 
ATOM     28  O   UNL     1      -1.202  14.733  19.927  0.00  0.00    +0.000 OA
ATOM     29  C   UNL     1       2.121  14.510  18.421  0.00  0.00    +0.000 C 
ATOM     30  C   UNL     1       3.196  14.035  19.419  0.00  0.00    +0.000 C 
BRANCH  21  31
ATOM     31  O   UNL     1       5.594  15.257  19.743  0.00  0.00    +0.000 OA
BRANCH  31  33
ATOM     32  C   UNL     1       7.943  15.092  19.362  0.00  0.00    +0.000 C 
ATOM     33  C   UNL     1       6.824  14.853  20.360  0.00  0.00    +0.000 C 
ENDBRANCH  31  33
ENDBRANCH  21  31
ENDBRANCH  20  27
ENDBRANCH   1  20
TORSDOF 8
ENDMDL
MODEL 5
REMARK VINA RESULT:      -6.4      5.892      9.180
REMARK  Name = 
REMARK  10 active torsions:
REMARK  status: ('A' for Active; 'I' for Inactive)
REMARK    1  A    between atoms: C_1  and  C_2
REMARK    2  A    between atoms: C_2  and  O_3
REMARK    3  A    between atoms: O_3  and  C_4
REMARK    4  A    between atoms: C_10  and  C_12
REMARK    5  A    between atoms: C_12  and  N_13
REMARK    6  A    between atoms: N_13  and  C_14
REMARK    7  A    between atoms: N_13  and  S_23
REMARK    8  A    between atoms: C_20  and  O_21
REMARK    9  A    between atoms: O_21  and  C_22
REMARK   10  A    between atoms: S_23  and  C_26
REMARK                            x       y       z     vdW  Elec       q    Type
REMARK                         _______ _______ _______ _____ _____    ______ ____
ROOT
ATOM      1  N   UNL     1       0.289  12.860  20.554  0.00  0.00    +0.000 N 
ENDROOT
BRANCH   1   2
ATOM      2  C   UNL     1       0.576  11.448  20.504  0.00  0.00    +0.000 A 
ATOM      3  C   UNL     1       1.077  10.920  19.298  0.00  0.00    +0.000 A 
ATOM      4  C   UNL     1       1.369   9.564  19.180  0.00  0.00    +0.000 A 
ATOM      5 CL   UNL     1       1.938   8.945  17.679  0.00  0.00    +0.000 Cl
ATOM      6  C   UNL     1       1.199   8.711  20.260  0.00  0.00    +0.000 A 
ATOM      7  C   UNL     1       0.744   9.229  21.472  0.00  0.00    +0.000 A 
ATOM      8  C   UNL     1       0.422  10.589  21.610  0.00  0.00    +0.000 A 
BRANCH   8   9
ATOM      9  O   UNL     1       0.002  10.895  22.875  0.00  0.00    +0.000 OA
ATOM     10  C   UNL     1      -1.393  11.055  23.088  0.00  0.00    +0.000 C 
ENDBRANCH   8   9
ENDBRANCH   1   2
BRANCH   1  11
ATOM     11  S   UNL     1       1.514  13.907  21.106  0.00  0.00    +0.000 S 
ATOM     12  O   UNL     1       0.925  14.839  22.049  0.00  0.00    +0.000 OA
ATOM     13  O   UNL     1       2.692  13.140  21.455  0.00  0.00    +0.000 OA
BRANCH  11  14
ATOM     14  C   UNL     1       1.968  14.878  19.671  0.00  0.00    +0.000 A 
ATOM     15  C   UNL     1       1.559  16.212  19.569  0.00  0.00    +0.000 A 
ATOM     16  C   UNL     1       2.017  16.993  18.505  0.00  0.00    +0.000 A 
ATOM     17  C   UNL     1       2.887  16.449  17.558  0.00  0.00    +0.000 A 
ATOM     18  C   UNL     1       3.309  15.126  17.675  0.00  0.00    +0.000 A 
ATOM     19  C   UNL     1       2.861  14.339  18.735  0.00  0.00    +0.000 A 
ENDBRANCH  11  14
ENDBRANCH   1  11
BRANCH   1  20
ATOM     20  C   UNL     1      -0.677  13.400  19.562  0.00  0.00    +0.000 C 
BRANCH  20  27
ATOM     21  C   UNL     1      -5.165  14.665  23.806  0.00  0.00    +0.000 C 
ATOM     22  O   UNL     1      -6.340  14.325  23.857  0.00  0.00    +0.000 OA
ATOM     23  N   UNL     1      -4.196  13.993  23.088  0.00  0.00    +0.000 N 
ATOM     24  C   UNL     1      -4.583  12.867  22.232  0.00  0.00    +0.000 C 
ATOM     25  C   UNL     1      -4.355  13.218  20.753  0.00  0.00    +0.000 C 
ATOM     26  N   UNL     1      -2.969  13.674  20.539  0.00  0.00    +0.000 N 
ATOM     27  C   UNL     1      -2.101  12.879  19.789  0.00  0.00    +0.000 C 
ATOM     28  O   UNL     1      -2.485  11.810  19.309  0.00  0.00    +0.000 OA
ATOM     29  C   UNL     1      -2.588  14.817  21.384  0.00  0.00    +0.000 C 
ATOM     30  C   UNL     1      -2.837  14.504  22.873  0.00  0.00    +0.000 C 
BRANCH  21  31
ATOM     31  O   UNL     1      -4.677  15.789  24.395  0.00  0.00    +0.000 OA
BRANCH  31  33
ATOM     32  C   UNL     1      -5.185  17.564  22.885  0.00  0.00    +0.000 C 
ATOM     33  C   UNL     1      -5.485  16.964  24.248  0.00  0.00    +0.000 C 
ENDBRANCH  31  33
ENDBRANCH  21  31
ENDBRANCH  20  27
ENDBRANCH   1  20
TORSDOF 8
ENDMDL
MODEL 6
REMARK VINA RESULT:      -6.4      5.343      9.171
REMARK  Name = 
REMARK  10 active torsions:
REMARK  status: ('A' for Active; 'I' for Inactive)
REMARK    1  A    between atoms: C_1  and  C_2
REMARK    2  A    between atoms: C_2  and  O_3
REMARK    3  A    between atoms: O_3  and  C_4
REMARK    4  A    between atoms: C_10  and  C_12
REMARK    5  A    between atoms: C_12  and  N_13
REMARK    6  A    between atoms: N_13  and  C_14
REMARK    7  A    between atoms: N_13  and  S_23
REMARK    8  A    between atoms: C_20  and  O_21
REMARK    9  A    between atoms: O_21  and  C_22
REMARK   10  A    between atoms: S_23  and  C_26
REMARK                            x       y       z     vdW  Elec       q    Type
REMARK                         _______ _______ _______ _____ _____    ______ ____
ROOT
ATOM      1  N   UNL     1      -0.415  12.228  19.432  0.00  0.00    +0.000 N 
ENDROOT
BRANCH   1   2
ATOM      2  C   UNL     1      -1.690  11.848  18.876  0.00  0.00    +0.000 A 
ATOM      3  C   UNL     1      -1.691  11.037  17.724  0.00  0.00    +0.000 A 
ATOM      4  C   UNL     1      -2.887  10.639  17.133  0.00  0.00    +0.000 A 
ATOM      5 CL   UNL     1      -2.850   9.685  15.702  0.00  0.00    +0.000 Cl
ATOM      6  C   UNL     1      -4.103  11.013  17.685  0.00  0.00    +0.000 A 
ATOM      7  C   UNL     1      -4.116  11.780  18.849  0.00  0.00    +0.000 A 
ATOM      8  C   UNL     1      -2.923  12.212  19.452  0.00  0.00    +0.000 A 
BRANCH   8   9
ATOM      9  O   UNL     1      -3.152  12.945  20.583  0.00  0.00    +0.000 OA
ATOM     10  C   UNL     1      -4.496  13.285  20.891  0.00  0.00    +0.000 C 
ENDBRANCH   8   9
ENDBRANCH   1   2
BRANCH   1  11
ATOM     11  S   UNL     1       0.268  11.225  20.627  0.00  0.00    +0.000 S 
ATOM     12  O   UNL     1       1.367  11.940  21.248  0.00  0.00    +0.000 OA
ATOM     13  O   UNL     1      -0.784  10.634  21.429  0.00  0.00    +0.000 OA
BRANCH  11  14
ATOM     14  C   UNL     1       1.011   9.871  19.719  0.00  0.00    +0.000 A 
ATOM     15  C   UNL     1       1.483  10.075  18.418  0.00  0.00    +0.000 A 
ATOM     16  C   UNL     1       2.165   9.046  17.764  0.00  0.00    +0.000 A 
ATOM     17  C   UNL     1       2.387   7.829  18.411  0.00  0.00    +0.000 A 
ATOM     18  C   UNL     1       1.934   7.636  19.715  0.00  0.00    +0.000 A 
ATOM     19  C   UNL     1       1.255   8.658  20.377  0.00  0.00    +0.000 A 
ENDBRANCH  11  14
ENDBRANCH   1  11
BRANCH   1  20
ATOM     20  C   UNL     1       0.519  12.983  18.556  0.00  0.00    +0.000 C 
BRANCH  20  27
ATOM     21  C   UNL     1       5.428  16.862  19.344  0.00  0.00    +0.000 C 
ATOM     22  O   UNL     1       5.473  18.069  19.541  0.00  0.00    +0.000 OA
ATOM     23  N   UNL     1       4.326  16.074  19.614  0.00  0.00    +0.000 N 
ATOM     24  C   UNL     1       3.080  16.706  20.058  0.00  0.00    +0.000 C 
ATOM     25  C   UNL     1       1.987  16.537  18.990  0.00  0.00    +0.000 C 
ATOM     26  N   UNL     1       1.833  15.116  18.630  0.00  0.00    +0.000 N 
ATOM     27  C   UNL     1       0.656  14.451  18.976  0.00  0.00    +0.000 C 
ATOM     28  O   UNL     1      -0.245  15.041  19.575  0.00  0.00    +0.000 OA
ATOM     29  C   UNL     1       3.080  14.489  18.164  0.00  0.00    +0.000 C 
ATOM     30  C   UNL     1       4.205  14.670  19.203  0.00  0.00    +0.000 C 
BRANCH  21  31
ATOM     31  O   UNL     1       6.434  16.151  18.767  0.00  0.00    +0.000 OA
BRANCH  31  33
ATOM     32  C   UNL     1       8.718  16.786  18.510  0.00  0.00    +0.000 C 
ATOM     33  C   UNL     1       7.691  16.190  19.455  0.00  0.00    +0.000 C 
ENDBRANCH  31  33
ENDBRANCH  21  31
ENDBRANCH  20  27
ENDBRANCH   1  20
TORSDOF 8
ENDMDL
MODEL 7
REMARK VINA RESULT:      -6.3      4.352     10.259
REMARK  Name = 
REMARK  10 active torsions:
REMARK  status: ('A' for Active; 'I' for Inactive)
REMARK    1  A    between atoms: C_1  and  C_2
REMARK    2  A    between atoms: C_2  and  O_3
REMARK    3  A    between atoms: O_3  and  C_4
REMARK    4  A    between atoms: C_10  and  C_12
REMARK    5  A    between atoms: C_12  and  N_13
REMARK    6  A    between atoms: N_13  and  C_14
REMARK    7  A    between atoms: N_13  and  S_23
REMARK    8  A    between atoms: C_20  and  O_21
REMARK    9  A    between atoms: O_21  and  C_22
REMARK   10  A    between atoms: S_23  and  C_26
REMARK                            x       y       z     vdW  Elec       q    Type
REMARK                         _______ _______ _______ _____ _____    ______ ____
ROOT
ATOM      1  N   UNL     1      -0.020  12.941  20.851  0.00  0.00    +0.000 N 
ENDROOT
BRANCH   1   2
ATOM      2  C   UNL     1      -1.450  12.805  20.966  0.00  0.00    +0.000 A 
ATOM      3  C   UNL     1      -2.016  12.868  22.254  0.00  0.00    +0.000 A 
ATOM      4  C   UNL     1      -3.391  12.738  22.437  0.00  0.00    +0.000 A 
ATOM      5 CL   UNL     1      -4.043  12.777  24.028  0.00  0.00    +0.000 Cl
ATOM      6  C   UNL     1      -4.232  12.571  21.347  0.00  0.00    +0.000 A 
ATOM      7  C   UNL     1      -3.688  12.549  20.063  0.00  0.00    +0.000 A 
ATOM      8  C   UNL     1      -2.304  12.657  19.855  0.00  0.00    +0.000 A 
BRANCH   8   9
ATOM      9  O   UNL     1      -1.977  12.619  18.528  0.00  0.00    +0.000 OA
ATOM     10  C   UNL     1      -1.994  11.357  17.877  0.00  0.00    +0.000 C 
ENDBRANCH   8   9
ENDBRANCH   1   2
BRANCH   1  11
ATOM     11  S   UNL     1       0.679  14.435  21.274  0.00  0.00    +0.000 S 
ATOM     12  O   UNL     1       0.393  14.692  22.673  0.00  0.00    +0.000 OA
ATOM     13  O   UNL     1       2.035  14.502  20.768  0.00  0.00    +0.000 OA
BRANCH  11  14
ATOM     14  C   UNL     1      -0.251  15.655  20.349  0.00  0.00    +0.000 A 
ATOM     15  C   UNL     1      -1.133  16.516  21.012  0.00  0.00    +0.000 A 
ATOM     16  C   UNL     1      -1.763  17.538  20.300  0.00  0.00    +0.000 A 
ATOM     17  C   UNL     1      -1.504  17.709  18.938  0.00  0.00    +0.000 A 
ATOM     18  C   UNL     1      -0.609  16.863  18.285  0.00  0.00    +0.000 A 
ATOM     19  C   UNL     1       0.028  15.841  18.989  0.00  0.00    +0.000 A 
ENDBRANCH  11  14
ENDBRANCH   1  11
BRANCH   1  20
ATOM     20  C   UNL     1       0.805  11.720  21.047  0.00  0.00    +0.000 C 
BRANCH  20  27
ATOM     21  C   UNL     1       2.034   5.789  19.295  0.00  0.00    +0.000 C 
ATOM     22  O   UNL     1       2.210   5.300  18.187  0.00  0.00    +0.000 OA
ATOM     23  N   UNL     1       2.201   7.129  19.585  0.00  0.00    +0.000 N 
ATOM     24  C   UNL     1       2.495   8.070  18.500  0.00  0.00    +0.000 C 
ATOM     25  C   UNL     1       1.320   9.041  18.302  0.00  0.00    +0.000 C 
ATOM     26  N   UNL     1       0.975   9.697  19.576  0.00  0.00    +0.000 N 
ATOM     27  C   UNL     1       1.206  11.066  19.719  0.00  0.00    +0.000 C 
ATOM     28  O   UNL     1       1.693  11.721  18.795  0.00  0.00    +0.000 OA
ATOM     29  C   UNL     1       0.659   8.752  20.659  0.00  0.00    +0.000 C 
ATOM     30  C   UNL     1       1.809   7.744  20.858  0.00  0.00    +0.000 C 
BRANCH  21  31
ATOM     31  O   UNL     1       1.584   5.087  20.369  0.00  0.00    +0.000 OA
BRANCH  31  33
ATOM     32  C   UNL     1       1.356   2.868  21.214  0.00  0.00    +0.000 C 
ATOM     33  C   UNL     1       1.008   3.808  20.073  0.00  0.00    +0.000 C 
ENDBRANCH  31  33
ENDBRANCH  21  31
ENDBRANCH  20  27
ENDBRANCH   1  20
TORSDOF 8
ENDMDL
MODEL 8
REMARK VINA RESULT:      -6.2      4.266      9.783
REMARK  Name = 
REMARK  10 active torsions:
REMARK  status: ('A' for Active; 'I' for Inactive)
REMARK    1  A    between atoms: C_1  and  C_2
REMARK    2  A    between atoms: C_2  and  O_3
REMARK    3  A    between atoms: O_3  and  C_4
REMARK    4  A    between atoms: C_10  and  C_12
REMARK    5  A    between atoms: C_12  and  N_13
REMARK    6  A    between atoms: N_13  and  C_14
REMARK    7  A    between atoms: N_13  and  S_23
REMARK    8  A    between atoms: C_20  and  O_21
REMARK    9  A    between atoms: O_21  and  C_22
REMARK   10  A    between atoms: S_23  and  C_26
REMARK                            x       y       z     vdW  Elec       q    Type
REMARK                         _______ _______ _______ _____ _____    ______ ____
ROOT
ATOM      1  N   UNL     1       0.102  12.921  19.366  0.00  0.00    +0.000 N 
ENDROOT
BRANCH   1   2
ATOM      2  C   UNL     1      -1.267  12.531  19.136  0.00  0.00    +0.000 A 
ATOM      3  C   UNL     1      -1.600  12.016  17.868  0.00  0.00    +0.000 A 
ATOM      4  C   UNL     1      -2.905  11.625  17.577  0.00  0.00    +0.000 A 
ATOM      5 CL   UNL     1      -3.285  11.041  16.005  0.00  0.00    +0.000 Cl
ATOM      6  C   UNL     1      -3.897  11.712  18.543  0.00  0.00    +0.000 A 
ATOM      7  C   UNL     1      -3.570  12.181  19.815  0.00  0.00    +0.000 A 
ATOM      8  C   UNL     1      -2.267  12.600  20.126  0.00  0.00    +0.000 A 
BRANCH   8   9
ATOM      9  O   UNL     1      -2.154  13.018  21.423  0.00  0.00    +0.000 OA
ATOM     10  C   UNL     1      -3.200  12.676  22.322  0.00  0.00    +0.000 C 
ENDBRANCH   8   9
ENDBRANCH   1   2
BRANCH   1  11
ATOM     11  S   UNL     1       0.414  14.544  19.778  0.00  0.00    +0.000 S 
ATOM     12  O   UNL     1      -0.383  15.394  18.914  0.00  0.00    +0.000 OA
ATOM     13  O   UNL     1       0.374  14.699  21.218  0.00  0.00    +0.000 OA
BRANCH  11  14
ATOM     14  C   UNL     1       2.119  14.818  19.302  0.00  0.00    +0.000 A 
ATOM     15  C   UNL     1       2.436  15.117  17.972  0.00  0.00    +0.000 A 
ATOM     16  C   UNL     1       3.752  15.444  17.635  0.00  0.00    +0.000 A 
ATOM     17  C   UNL     1       4.740  15.485  18.622  0.00  0.00    +0.000 A 
ATOM     18  C   UNL     1       4.416  15.207  19.949  0.00  0.00    +0.000 A 
ATOM     19  C   UNL     1       3.105  14.883  20.296  0.00  0.00    +0.000 A 
ENDBRANCH  11  14
ENDBRANCH   1  11
BRANCH   1  20
ATOM     20  C   UNL     1       1.029  11.889  19.900  0.00  0.00    +0.000 C 
BRANCH  20  27
ATOM     21  C   UNL     1       2.247   5.723  19.397  0.00  0.00    +0.000 C 
ATOM     22  O   UNL     1       2.590   5.049  18.435  0.00  0.00    +0.000 OA
ATOM     23  N   UNL     1       2.427   7.089  19.489  0.00  0.00    +0.000 N 
ATOM     24  C   UNL     1       2.956   7.825  18.337  0.00  0.00    +0.000 C 
ATOM     25  C   UNL     1       1.886   8.772  17.772  0.00  0.00    +0.000 C 
ATOM     26  N   UNL     1       1.354   9.643  18.836  0.00  0.00    +0.000 N 
ATOM     27  C   UNL     1       1.626  11.011  18.794  0.00  0.00    +0.000 C 
ATOM     28  O   UNL     1       2.301  11.489  17.879  0.00  0.00    +0.000 OA
ATOM     29  C   UNL     1       0.804   8.902  19.983  0.00  0.00    +0.000 C 
ATOM     30  C   UNL     1       1.848   7.919  20.551  0.00  0.00    +0.000 C 
BRANCH  21  31
ATOM     31  O   UNL     1       1.578   5.223  20.471  0.00  0.00    +0.000 OA
BRANCH  31  33
ATOM     32  C   UNL     1       0.716   3.013  20.220  0.00  0.00    +0.000 C 
ATOM     33  C   UNL     1       1.850   3.851  20.784  0.00  0.00    +0.000 C 
ENDBRANCH  31  33
ENDBRANCH  21  31
ENDBRANCH  20  27
ENDBRANCH   1  20
TORSDOF 8
ENDMDL
MODEL 9
REMARK VINA RESULT:      -6.1      6.183      9.438
REMARK  Name = 
REMARK  10 active torsions:
REMARK  status: ('A' for Active; 'I' for Inactive)
REMARK    1  A    between atoms: C_1  and  C_2
REMARK    2  A    between atoms: C_2  and  O_3
REMARK    3  A    between atoms: O_3  and  C_4
REMARK    4  A    between atoms: C_10  and  C_12
REMARK    5  A    between atoms: C_12  and  N_13
REMARK    6  A    between atoms: N_13  and  C_14
REMARK    7  A    between atoms: N_13  and  S_23
REMARK    8  A    between atoms: C_20  and  O_21
REMARK    9  A    between atoms: O_21  and  C_22
REMARK   10  A    between atoms: S_23  and  C_26
REMARK                            x       y       z     vdW  Elec       q    Type
REMARK                         _______ _______ _______ _____ _____    ______ ____
ROOT
ATOM      1  N   UNL     1       0.165  13.256  20.538  0.00  0.00    +0.000 N 
ENDROOT
BRANCH   1   2
ATOM      2  C   UNL     1       0.342  11.837  20.361  0.00  0.00    +0.000 A 
ATOM      3  C   UNL     1       1.048  11.398  19.223  0.00  0.00    +0.000 A 
ATOM      4  C   UNL     1       1.250  10.040  18.988  0.00  0.00    +0.000 A 
ATOM      5 CL   UNL     1       2.077   9.538  17.566  0.00  0.00    +0.000 Cl
ATOM      6  C   UNL     1       0.783   9.094  19.889  0.00  0.00    +0.000 A 
ATOM      7  C   UNL     1       0.120   9.518  21.040  0.00  0.00    +0.000 A 
ATOM      8  C   UNL     1      -0.114  10.879  21.288  0.00  0.00    +0.000 A 
BRANCH   8   9
ATOM      9  O   UNL     1      -0.772  11.084  22.470  0.00  0.00    +0.000 OA
ATOM     10  C   UNL     1      -0.780  10.023  23.415  0.00  0.00    +0.000 C 
ENDBRANCH   8   9
ENDBRANCH   1   2
BRANCH   1  11
ATOM     11  S   UNL     1       1.506  14.174  21.047  0.00  0.00    +0.000 S 
ATOM     12  O   UNL     1       1.042  15.176  21.988  0.00  0.00    +0.000 OA
ATOM     13  O   UNL     1       2.604  13.289  21.383  0.00  0.00    +0.000 OA
BRANCH  11  14
ATOM     14  C   UNL     1       2.029  15.072  19.588  0.00  0.00    +0.000 A 
ATOM     15  C   UNL     1       1.600  16.388  19.384  0.00  0.00    +0.000 A 
ATOM     16  C   UNL     1       2.106  17.117  18.305  0.00  0.00    +0.000 A 
ATOM     17  C   UNL     1       3.044  16.541  17.446  0.00  0.00    +0.000 A 
ATOM     18  C   UNL     1       3.485  15.237  17.665  0.00  0.00    +0.000 A 
ATOM     19  C   UNL     1       2.988  14.502  18.741  0.00  0.00    +0.000 A 
ENDBRANCH  11  14
ENDBRANCH   1  11
BRANCH   1  20
ATOM     20  C   UNL     1      -0.842  13.935  19.680  0.00  0.00    +0.000 C 
BRANCH  20  27
ATOM     21  C   UNL     1      -6.885  12.283  20.396  0.00  0.00    +0.000 C 
ATOM     22  O   UNL     1      -7.741  12.689  21.171  0.00  0.00    +0.000 OA
ATOM     23  N   UNL     1      -5.757  12.999  20.046  0.00  0.00    +0.000 N 
ATOM     24  C   UNL     1      -5.479  14.276  20.709  0.00  0.00    +0.000 C 
ATOM     25  C   UNL     1      -4.211  14.164  21.571  0.00  0.00    +0.000 C 
ATOM     26  N   UNL     1      -3.084  13.658  20.767  0.00  0.00    +0.000 N 
ATOM     27  C   UNL     1      -2.011  14.507  20.493  0.00  0.00    +0.000 C 
ATOM     28  O   UNL     1      -2.002  15.665  20.916  0.00  0.00    +0.000 OA
ATOM     29  C   UNL     1      -3.357  12.366  20.119  0.00  0.00    +0.000 C 
ATOM     30  C   UNL     1      -4.643  12.439  19.271  0.00  0.00    +0.000 C 
BRANCH  21  31
ATOM     31  O   UNL     1      -6.899  11.045  19.834  0.00  0.00    +0.000 OA
BRANCH  31  33
ATOM     32  C   UNL     1      -7.215   8.686  19.986  0.00  0.00    +0.000 C 
ATOM     33  C   UNL     1      -7.577  10.032  20.589  0.00  0.00    +0.000 C 
ENDBRANCH  31  33
ENDBRANCH  21  31
ENDBRANCH  20  27
ENDBRANCH   1  20
TORSDOF 8
ENDMDL
