MODEL 1
REMARK VINA RESULT:      -6.2      0.000      0.000
REMARK  Name = 
REMARK  10 active torsions:
REMARK  status: ('A' for Active; 'I' for Inactive)
REMARK    1  A    between atoms: C_1  and  O_2
REMARK    2  A    between atoms: O_2  and  C_3
REMARK    3  A    between atoms: C_3  and  C_4
REMARK    4  A    between atoms: N_6  and  C_7
REMARK    5  A    between atoms: N_11  and  C_12
REMARK    6  A    between atoms: C_12  and  C_13
REMARK    7  A    between atoms: C_12  and  C_14
REMARK    8  A    between atoms: C_14  and  C_15
REMARK    9  A    between atoms: C_15  and  C_16
REMARK   10  A    between atoms: C_15  and  C_17
REMARK                            x       y       z     vdW  Elec       q    Type
REMARK                         _______ _______ _______ _____ _____    ______ ____
ROOT
ATOM      1  C   UNL     1       6.463   4.659  17.592  0.00  0.00    +0.000 A 
ATOM      2  C   UNL     1       7.629   5.310  17.931  0.00  0.00    +0.000 A 
ATOM      3  C   UNL     1       7.502   5.594  19.301  0.00  0.00    +0.000 A 
ATOM      4  N   UNL     1       6.341   5.171  19.799  0.00  0.00    +0.000 NA
ATOM      5  N   UNL     1       5.713   4.607  18.744  0.00  0.00    +0.000 N 
ENDROOT
BRANCH   1   8
ATOM      6  C   UNL     1       5.625   4.980  15.310  0.00  0.00    +0.000 C 
ATOM      7  O   UNL     1       5.378   6.163  15.541  0.00  0.00    +0.000 OA
ATOM      8  N   UNL     1       6.189   4.142  16.340  0.00  0.00    +0.000 N 
ATOM      9  H   UNL     1       6.296   3.151  16.138  0.00  0.00    +0.000 HD
BRANCH   6  10
ATOM     10  C   UNL     1       5.393   4.296  13.971  0.00  0.00    +0.000 C 
BRANCH  10  12
ATOM     11  C   UNL     1       6.518   3.400  12.112  0.00  0.00    +0.000 C 
ATOM     12  O   UNL     1       6.592   3.691  13.508  0.00  0.00    +0.000 OA
ENDBRANCH  10  12
ENDBRANCH   6  10
ENDBRANCH   1   8
BRANCH   5  13
ATOM     13  C   UNL     1       4.389   4.021  18.950  0.00  0.00    +0.000 C 
ATOM     14  C   UNL     1       4.551   2.721  19.763  0.00  0.00    +0.000 C 
BRANCH  13  15
ATOM     15  C   UNL     1       3.397   4.965  19.678  0.00  0.00    +0.000 C 
BRANCH  15  16
ATOM     16  C   UNL     1       1.906   4.950  19.258  0.00  0.00    +0.000 C 
ATOM     17  C   UNL     1       1.661   4.341  17.877  0.00  0.00    +0.000 C 
ATOM     18  C   UNL     1       1.111   4.145  20.299  0.00  0.00    +0.000 C 
ENDBRANCH  15  16
ENDBRANCH  13  15
ENDBRANCH   5  13
TORSDOF 6
ENDMDL
MODEL 2
REMARK VINA RESULT:      -6.2      2.347      3.798
REMARK  Name = 
REMARK  10 active torsions:
REMARK  status: ('A' for Active; 'I' for Inactive)
REMARK    1  A    between atoms: C_1  and  O_2
REMARK    2  A    between atoms: O_2  and  C_3
REMARK    3  A    between atoms: C_3  and  C_4
REMARK    4  A    between atoms: N_6  and  C_7
REMARK    5  A    between atoms: N_11  and  C_12
REMARK    6  A    between atoms: C_12  and  C_13
REMARK    7  A    between atoms: C_12  and  C_14
REMARK    8  A    between atoms: C_14  and  C_15
REMARK    9  A    between atoms: C_15  and  C_16
REMARK   10  A    between atoms: C_15  and  C_17
REMARK                            x       y       z     vdW  Elec       q    Type
REMARK                         _______ _______ _______ _____ _____    ______ ____
ROOT
ATOM      1  C   UNL     1       4.506   3.343  19.223  0.00  0.00    +0.000 A 
ATOM      2  C   UNL     1       4.483   2.413  20.239  0.00  0.00    +0.000 A 
ATOM      3  C   UNL     1       3.151   2.388  20.681  0.00  0.00    +0.000 A 
ATOM      4  N   UNL     1       2.381   3.246  20.012  0.00  0.00    +0.000 NA
ATOM      5  N   UNL     1       3.222   3.828  19.129  0.00  0.00    +0.000 N 
ENDROOT
BRANCH   1   8
ATOM      6  C   UNL     1       6.417   4.809  18.758  0.00  0.00    +0.000 C 
ATOM      7  O   UNL     1       6.110   5.546  19.694  0.00  0.00    +0.000 OA
ATOM      8  N   UNL     1       5.617   3.645  18.459  0.00  0.00    +0.000 N 
ATOM      9  H   UNL     1       5.851   3.111  17.626  0.00  0.00    +0.000 HD
BRANCH   6  10
ATOM     10  C   UNL     1       7.625   5.015  17.858  0.00  0.00    +0.000 C 
BRANCH  10  12
ATOM     11  C   UNL     1       6.965   5.110  15.604  0.00  0.00    +0.000 C 
ATOM     12  O   UNL     1       7.475   4.283  16.649  0.00  0.00    +0.000 OA
ENDBRANCH  10  12
ENDBRANCH   6  10
ENDBRANCH   1   8
BRANCH   5  13
ATOM     13  C   UNL     1       2.687   4.834  18.212  0.00  0.00    +0.000 C 
ATOM     14  C   UNL     1       1.378   4.293  17.602  0.00  0.00    +0.000 C 
BRANCH  13  15
ATOM     15  C   UNL     1       2.415   6.206  18.884  0.00  0.00    +0.000 C 
BRANCH  15  16
ATOM     16  C   UNL     1       3.115   7.466  18.319  0.00  0.00    +0.000 C 
ATOM     17  C   UNL     1       4.127   7.165  17.214  0.00  0.00    +0.000 C 
ATOM     18  C   UNL     1       2.041   8.414  17.758  0.00  0.00    +0.000 C 
ENDBRANCH  15  16
ENDBRANCH  13  15
ENDBRANCH   5  13
TORSDOF 6
ENDMDL
MODEL 3
REMARK VINA RESULT:      -6.1      2.432      5.342
REMARK  Name = 
REMARK  10 active torsions:
REMARK  status: ('A' for Active; 'I' for Inactive)
REMARK    1  A    between atoms: C_1  and  O_2
REMARK    2  A    between atoms: O_2  and  C_3
REMARK    3  A    between atoms: C_3  and  C_4
REMARK    4  A    between atoms: N_6  and  C_7
REMARK    5  A    between atoms: N_11  and  C_12
REMARK    6  A    between atoms: C_12  and  C_13
REMARK    7  A    between atoms: C_12  and  C_14
REMARK    8  A    between atoms: C_14  and  C_15
REMARK    9  A    between atoms: C_15  and  C_16
REMARK   10  A    between atoms: C_15  and  C_17
REMARK                            x       y       z     vdW  Elec       q    Type
REMARK                         _______ _______ _______ _____ _____    ______ ____
ROOT
ATOM      1  C   UNL     1       6.650   4.868  18.082  0.00  0.00    +0.000 A 
ATOM      2  C   UNL     1       7.303   5.948  18.634  0.00  0.00    +0.000 A 
ATOM      3  C   UNL     1       7.659   6.756  17.542  0.00  0.00    +0.000 A 
ATOM      4  N   UNL     1       7.278   6.230  16.379  0.00  0.00    +0.000 NA
ATOM      5  N   UNL     1       6.668   5.073  16.722  0.00  0.00    +0.000 N 
ENDROOT
BRANCH   1   8
ATOM      6  C   UNL     1       4.766   4.012  19.398  0.00  0.00    +0.000 C 
ATOM      7  O   UNL     1       4.158   5.074  19.262  0.00  0.00    +0.000 OA
ATOM      8  N   UNL     1       6.072   3.844  18.809  0.00  0.00    +0.000 N 
ATOM      9  H   UNL     1       6.578   2.988  19.017  0.00  0.00    +0.000 HD
BRANCH   6  10
ATOM     10  C   UNL     1       4.232   2.803  20.150  0.00  0.00    +0.000 C 
BRANCH  10  12
ATOM     11  C   UNL     1       3.093   1.749  18.386  0.00  0.00    +0.000 C 
ATOM     12  O   UNL     1       4.187   1.667  19.298  0.00  0.00    +0.000 OA
ENDBRANCH  10  12
ENDBRANCH   6  10
ENDBRANCH   1   8
BRANCH   5  13
ATOM     13  C   UNL     1       6.110   4.235  15.661  0.00  0.00    +0.000 C 
ATOM     14  C   UNL     1       4.591   4.107  15.886  0.00  0.00    +0.000 C 
BRANCH  13  15
ATOM     15  C   UNL     1       6.376   4.781  14.233  0.00  0.00    +0.000 C 
BRANCH  15  16
ATOM     16  C   UNL     1       6.418   3.784  13.049  0.00  0.00    +0.000 C 
ATOM     17  C   UNL     1       5.058   3.545  12.395  0.00  0.00    +0.000 C 
ATOM     18  C   UNL     1       7.387   4.327  11.985  0.00  0.00    +0.000 C 
ENDBRANCH  15  16
ENDBRANCH  13  15
ENDBRANCH   5  13
TORSDOF 6
ENDMDL
MODEL 4
REMARK VINA RESULT:      -6.1      2.838      4.455
REMARK  Name = 
REMARK  10 active torsions:
REMARK  status: ('A' for Active; 'I' for Inactive)
REMARK    1  A    between atoms: C_1  and  O_2
REMARK    2  A    between atoms: O_2  and  C_3
REMARK    3  A    between atoms: C_3  and  C_4
REMARK    4  A    between atoms: N_6  and  C_7
REMARK    5  A    between atoms: N_11  and  C_12
REMARK    6  A    between atoms: C_12  and  C_13
REMARK    7  A    between atoms: C_12  and  C_14
REMARK    8  A    between atoms: C_14  and  C_15
REMARK    9  A    between atoms: C_15  and  C_16
REMARK   10  A    between atoms: C_15  and  C_17
REMARK                            x       y       z     vdW  Elec       q    Type
REMARK                         _______ _______ _______ _____ _____    ______ ____
ROOT
ATOM      1  C   UNL     1       6.356   6.031  16.651  0.00  0.00    +0.000 A 
ATOM      2  C   UNL     1       6.843   5.123  15.737  0.00  0.00    +0.000 A 
ATOM      3  C   UNL     1       6.051   3.976  15.905  0.00  0.00    +0.000 A 
ATOM      4  N   UNL     1       5.137   4.129  16.862  0.00  0.00    +0.000 NA
ATOM      5  N   UNL     1       5.337   5.387  17.314  0.00  0.00    +0.000 N 
ENDROOT
BRANCH   1   8
ATOM      6  C   UNL     1       7.731   7.675  17.845  0.00  0.00    +0.000 C 
ATOM      7  O   UNL     1       8.112   6.815  18.639  0.00  0.00    +0.000 OA
ATOM      8  N   UNL     1       6.811   7.329  16.788  0.00  0.00    +0.000 N 
ATOM      9  H   UNL     1       6.452   8.083  16.208  0.00  0.00    +0.000 HD
BRANCH   6  10
ATOM     10  C   UNL     1       8.173   9.130  17.870  0.00  0.00    +0.000 C 
BRANCH  10  12
ATOM     11  C   UNL     1       9.526  10.691  18.992  0.00  0.00    +0.000 C 
ATOM     12  O   UNL     1       8.909   9.405  19.054  0.00  0.00    +0.000 OA
ENDBRANCH  10  12
ENDBRANCH   6  10
ENDBRANCH   1   8
BRANCH   5  13
ATOM     13  C   UNL     1       4.476   5.892  18.383  0.00  0.00    +0.000 C 
ATOM     14  C   UNL     1       3.531   6.955  17.790  0.00  0.00    +0.000 C 
BRANCH  13  15
ATOM     15  C   UNL     1       3.639   4.787  19.080  0.00  0.00    +0.000 C 
BRANCH  15  16
ATOM     16  C   UNL     1       2.094   4.858  18.997  0.00  0.00    +0.000 C 
ATOM     17  C   UNL     1       1.481   3.841  18.033  0.00  0.00    +0.000 C 
ATOM     18  C   UNL     1       1.515   4.616  20.401  0.00  0.00    +0.000 C 
ENDBRANCH  15  16
ENDBRANCH  13  15
ENDBRANCH   5  13
TORSDOF 6
ENDMDL
MODEL 5
REMARK VINA RESULT:      -6.0      2.596      4.669
REMARK  Name = 
REMARK  10 active torsions:
REMARK  status: ('A' for Active; 'I' for Inactive)
REMARK    1  A    between atoms: C_1  and  O_2
REMARK    2  A    between atoms: O_2  and  C_3
REMARK    3  A    between atoms: C_3  and  C_4
REMARK    4  A    between atoms: N_6  and  C_7
REMARK    5  A    between atoms: N_11  and  C_12
REMARK    6  A    between atoms: C_12  and  C_13
REMARK    7  A    between atoms: C_12  and  C_14
REMARK    8  A    between atoms: C_14  and  C_15
REMARK    9  A    between atoms: C_15  and  C_16
REMARK   10  A    between atoms: C_15  and  C_17
REMARK                            x       y       z     vdW  Elec       q    Type
REMARK                         _______ _______ _______ _____ _____    ______ ____
ROOT
ATOM      1  C   UNL     1       5.468   4.001  16.450  0.00  0.00    +0.000 A 
ATOM      2  C   UNL     1       5.756   3.517  15.193  0.00  0.00    +0.000 A 
ATOM      3  C   UNL     1       6.243   4.625  14.479  0.00  0.00    +0.000 A 
ATOM      4  N   UNL     1       6.253   5.735  15.215  0.00  0.00    +0.000 NA
ATOM      5  N   UNL     1       5.772   5.343  16.415  0.00  0.00    +0.000 N 
ENDROOT
BRANCH   1   8
ATOM      6  C   UNL     1       3.605   2.983  17.678  0.00  0.00    +0.000 C 
ATOM      7  O   UNL     1       2.791   3.466  16.891  0.00  0.00    +0.000 OA
ATOM      8  N   UNL     1       5.016   3.229  17.503  0.00  0.00    +0.000 N 
ATOM      9  H   UNL     1       5.648   2.888  18.223  0.00  0.00    +0.000 HD
BRANCH   6  10
ATOM     10  C   UNL     1       3.241   2.100  18.861  0.00  0.00    +0.000 C 
BRANCH  10  12
ATOM     11  C   UNL     1       2.761   2.771  21.062  0.00  0.00    +0.000 C 
ATOM     12  O   UNL     1       3.773   2.636  20.064  0.00  0.00    +0.000 OA
ENDBRANCH  10  12
ENDBRANCH   6  10
ENDBRANCH   1   8
BRANCH   5  13
ATOM     13  C   UNL     1       5.659   6.336  17.482  0.00  0.00    +0.000 C 
ATOM     14  C   UNL     1       6.946   7.184  17.499  0.00  0.00    +0.000 C 
BRANCH  13  15
ATOM     15  C   UNL     1       4.427   7.269  17.336  0.00  0.00    +0.000 C 
BRANCH  15  16
ATOM     16  C   UNL     1       3.076   6.821  17.945  0.00  0.00    +0.000 C 
ATOM     17  C   UNL     1       3.206   6.165  19.320  0.00  0.00    +0.000 C 
ATOM     18  C   UNL     1       2.163   8.053  18.071  0.00  0.00    +0.000 C 
ENDBRANCH  15  16
ENDBRANCH  13  15
ENDBRANCH   5  13
TORSDOF 6
ENDMDL
MODEL 6
REMARK VINA RESULT:      -5.9      1.050      1.272
REMARK  Name = 
REMARK  10 active torsions:
REMARK  status: ('A' for Active; 'I' for Inactive)
REMARK    1  A    between atoms: C_1  and  O_2
REMARK    2  A    between atoms: O_2  and  C_3
REMARK    3  A    between atoms: C_3  and  C_4
REMARK    4  A    between atoms: N_6  and  C_7
REMARK    5  A    between atoms: N_11  and  C_12
REMARK    6  A    between atoms: C_12  and  C_13
REMARK    7  A    between atoms: C_12  and  C_14
REMARK    8  A    between atoms: C_14  and  C_15
REMARK    9  A    between atoms: C_15  and  C_16
REMARK   10  A    between atoms: C_15  and  C_17
REMARK                            x       y       z     vdW  Elec       q    Type
REMARK                         _______ _______ _______ _____ _____    ______ ____
ROOT
ATOM      1  C   UNL     1       6.540   4.566  17.592  0.00  0.00    +0.000 A 
ATOM      2  C   UNL     1       7.676   5.265  17.937  0.00  0.00    +0.000 A 
ATOM      3  C   UNL     1       7.480   5.644  19.275  0.00  0.00    +0.000 A 
ATOM      4  N   UNL     1       6.304   5.234  19.749  0.00  0.00    +0.000 NA
ATOM      5  N   UNL     1       5.736   4.582  18.709  0.00  0.00    +0.000 N 
ENDROOT
BRANCH   1   8
ATOM      6  C   UNL     1       6.787   4.582  15.152  0.00  0.00    +0.000 C 
ATOM      7  O   UNL     1       7.355   5.673  15.193  0.00  0.00    +0.000 OA
ATOM      8  N   UNL     1       6.334   3.955  16.371  0.00  0.00    +0.000 N 
ATOM      9  H   UNL     1       5.792   3.099  16.289  0.00  0.00    +0.000 HD
BRANCH   6  10
ATOM     10  C   UNL     1       6.521   3.794  13.879  0.00  0.00    +0.000 C 
BRANCH  10  12
ATOM     11  C   UNL     1       4.982   3.429  12.140  0.00  0.00    +0.000 C 
ATOM     12  O   UNL     1       5.196   4.024  13.420  0.00  0.00    +0.000 OA
ENDBRANCH  10  12
ENDBRANCH   6  10
ENDBRANCH   1   8
BRANCH   5  13
ATOM     13  C   UNL     1       4.415   3.984  18.896  0.00  0.00    +0.000 C 
ATOM     14  C   UNL     1       4.580   2.667  19.679  0.00  0.00    +0.000 C 
BRANCH  13  15
ATOM     15  C   UNL     1       3.415   4.907  19.643  0.00  0.00    +0.000 C 
BRANCH  15  16
ATOM     16  C   UNL     1       2.321   5.637  18.827  0.00  0.00    +0.000 C 
ATOM     17  C   UNL     1       2.824   6.881  18.095  0.00  0.00    +0.000 C 
ATOM     18  C   UNL     1       1.745   4.655  17.791  0.00  0.00    +0.000 C 
ENDBRANCH  15  16
ENDBRANCH  13  15
ENDBRANCH   5  13
TORSDOF 6
ENDMDL
MODEL 7
REMARK VINA RESULT:      -5.9      1.078      1.362
REMARK  Name = 
REMARK  10 active torsions:
REMARK  status: ('A' for Active; 'I' for Inactive)
REMARK    1  A    between atoms: C_1  and  O_2
REMARK    2  A    between atoms: O_2  and  C_3
REMARK    3  A    between atoms: C_3  and  C_4
REMARK    4  A    between atoms: N_6  and  C_7
REMARK    5  A    between atoms: N_11  and  C_12
REMARK    6  A    between atoms: C_12  and  C_13
REMARK    7  A    between atoms: C_12  and  C_14
REMARK    8  A    between atoms: C_14  and  C_15
REMARK    9  A    between atoms: C_15  and  C_16
REMARK   10  A    between atoms: C_15  and  C_17
REMARK                            x       y       z     vdW  Elec       q    Type
REMARK                         _______ _______ _______ _____ _____    ______ ____
ROOT
ATOM      1  C   UNL     1       6.453   4.583  17.697  0.00  0.00    +0.000 A 
ATOM      2  C   UNL     1       7.786   4.832  17.941  0.00  0.00    +0.000 A 
ATOM      3  C   UNL     1       7.827   5.350  19.246  0.00  0.00    +0.000 A 
ATOM      4  N   UNL     1       6.615   5.440  19.792  0.00  0.00    +0.000 NA
ATOM      5  N   UNL     1       5.784   4.974  18.834  0.00  0.00    +0.000 N 
ENDROOT
BRANCH   1   8
ATOM      6  C   UNL     1       5.942   4.749  15.305  0.00  0.00    +0.000 C 
ATOM      7  O   UNL     1       6.360   5.906  15.271  0.00  0.00    +0.000 OA
ATOM      8  N   UNL     1       5.961   4.007  16.542  0.00  0.00    +0.000 N 
ATOM      9  H   UNL     1       5.527   3.088  16.549  0.00  0.00    +0.000 HD
BRANCH   6  10
ATOM     10  C   UNL     1       5.398   3.993  14.102  0.00  0.00    +0.000 C 
BRANCH  10  12
ATOM     11  C   UNL     1       5.953   3.022  12.035  0.00  0.00    +0.000 C 
ATOM     12  O   UNL     1       6.405   3.843  13.112  0.00  0.00    +0.000 OA
ENDBRANCH  10  12
ENDBRANCH   6  10
ENDBRANCH   1   8
BRANCH   5  13
ATOM     13  C   UNL     1       4.350   4.925  19.116  0.00  0.00    +0.000 C 
ATOM     14  C   UNL     1       3.604   5.676  17.996  0.00  0.00    +0.000 C 
BRANCH  13  15
ATOM     15  C   UNL     1       3.788   3.483  19.233  0.00  0.00    +0.000 C 
BRANCH  15  16
ATOM     16  C   UNL     1       2.326   3.288  19.703  0.00  0.00    +0.000 C 
ATOM     17  C   UNL     1       1.547   2.259  18.883  0.00  0.00    +0.000 C 
ATOM     18  C   UNL     1       2.340   2.837  21.174  0.00  0.00    +0.000 C 
ENDBRANCH  15  16
ENDBRANCH  13  15
ENDBRANCH   5  13
TORSDOF 6
ENDMDL
MODEL 8
REMARK VINA RESULT:      -5.8      1.193      1.388
REMARK  Name = 
REMARK  10 active torsions:
REMARK  status: ('A' for Active; 'I' for Inactive)
REMARK    1  A    between atoms: C_1  and  O_2
REMARK    2  A    between atoms: O_2  and  C_3
REMARK    3  A    between atoms: C_3  and  C_4
REMARK    4  A    between atoms: N_6  and  C_7
REMARK    5  A    between atoms: N_11  and  C_12
REMARK    6  A    between atoms: C_12  and  C_13
REMARK    7  A    between atoms: C_12  and  C_14
REMARK    8  A    between atoms: C_14  and  C_15
REMARK    9  A    between atoms: C_15  and  C_16
REMARK   10  A    between atoms: C_15  and  C_17
REMARK                            x       y       z     vdW  Elec       q    Type
REMARK                         _______ _______ _______ _____ _____    ______ ____
ROOT
ATOM      1  C   UNL     1       6.968   4.811  17.655  0.00  0.00    +0.000 A 
ATOM      2  C   UNL     1       7.904   5.441  18.445  0.00  0.00    +0.000 A 
ATOM      3  C   UNL     1       7.328   5.490  19.725  0.00  0.00    +0.000 A 
ATOM      4  N   UNL     1       6.111   4.948  19.752  0.00  0.00    +0.000 NA
ATOM      5  N   UNL     1       5.900   4.542  18.480  0.00  0.00    +0.000 N 
ENDROOT
BRANCH   1   8
ATOM      6  C   UNL     1       6.540   5.304  15.291  0.00  0.00    +0.000 C 
ATOM      7  O   UNL     1       5.848   6.275  15.594  0.00  0.00    +0.000 OA
ATOM      8  N   UNL     1       7.149   4.497  16.321  0.00  0.00    +0.000 N 
ATOM      9  H   UNL     1       7.638   3.654  16.035  0.00  0.00    +0.000 HD
BRANCH   6  10
ATOM     10  C   UNL     1       6.836   4.866  13.864  0.00  0.00    +0.000 C 
BRANCH  10  12
ATOM     11  C   UNL     1       6.418   3.227  12.233  0.00  0.00    +0.000 C 
ATOM     12  O   UNL     1       6.245   3.602  13.600  0.00  0.00    +0.000 OA
ENDBRANCH  10  12
ENDBRANCH   6  10
ENDBRANCH   1   8
BRANCH   5  13
ATOM     13  C   UNL     1       4.636   3.881  18.158  0.00  0.00    +0.000 C 
ATOM     14  C   UNL     1       4.286   2.910  19.302  0.00  0.00    +0.000 C 
BRANCH  13  15
ATOM     15  C   UNL     1       3.458   4.866  17.937  0.00  0.00    +0.000 C 
BRANCH  15  16
ATOM     16  C   UNL     1       3.485   6.236  18.659  0.00  0.00    +0.000 C 
ATOM     17  C   UNL     1       3.212   7.424  17.737  0.00  0.00    +0.000 C 
ATOM     18  C   UNL     1       2.424   6.224  19.773  0.00  0.00    +0.000 C 
ENDBRANCH  15  16
ENDBRANCH  13  15
ENDBRANCH   5  13
TORSDOF 6
ENDMDL
MODEL 9
REMARK VINA RESULT:      -5.8      1.230      1.605
REMARK  Name = 
REMARK  10 active torsions:
REMARK  status: ('A' for Active; 'I' for Inactive)
REMARK    1  A    between atoms: C_1  and  O_2
REMARK    2  A    between atoms: O_2  and  C_3
REMARK    3  A    between atoms: C_3  and  C_4
REMARK    4  A    between atoms: N_6  and  C_7
REMARK    5  A    between atoms: N_11  and  C_12
REMARK    6  A    between atoms: C_12  and  C_13
REMARK    7  A    between atoms: C_12  and  C_14
REMARK    8  A    between atoms: C_14  and  C_15
REMARK    9  A    between atoms: C_15  and  C_16
REMARK   10  A    between atoms: C_15  and  C_17
REMARK                            x       y       z     vdW  Elec       q    Type
REMARK                         _______ _______ _______ _____ _____    ______ ____
ROOT
ATOM      1  C   UNL     1       6.648   4.625  17.736  0.00  0.00    +0.000 A 
ATOM      2  C   UNL     1       7.981   4.646  18.082  0.00  0.00    +0.000 A 
ATOM      3  C   UNL     1       8.017   5.234  19.357  0.00  0.00    +0.000 A 
ATOM      4  N   UNL     1       6.805   5.578  19.790  0.00  0.00    +0.000 NA
ATOM      5  N   UNL     1       5.977   5.206  18.788  0.00  0.00    +0.000 N 
ENDROOT
BRANCH   1   8
ATOM      6  C   UNL     1       6.535   4.596  15.286  0.00  0.00    +0.000 C 
ATOM      7  O   UNL     1       7.312   5.547  15.215  0.00  0.00    +0.000 OA
ATOM      8  N   UNL     1       6.146   4.071  16.573  0.00  0.00    +0.000 N 
ATOM      9  H   UNL     1       5.436   3.344  16.593  0.00  0.00    +0.000 HD
BRANCH   6  10
ATOM     10  C   UNL     1       5.932   3.882  14.086  0.00  0.00    +0.000 C 
BRANCH  10  12
ATOM     11  C   UNL     1       6.489   3.112  11.936  0.00  0.00    +0.000 C 
ATOM     12  O   UNL     1       6.714   4.118  12.923  0.00  0.00    +0.000 OA
ENDBRANCH  10  12
ENDBRANCH   6  10
ENDBRANCH   1   8
BRANCH   5  13
ATOM     13  C   UNL     1       4.542   5.435  18.946  0.00  0.00    +0.000 C 
ATOM     14  C   UNL     1       4.016   6.140  17.679  0.00  0.00    +0.000 C 
BRANCH  13  15
ATOM     15  C   UNL     1       3.728   4.137  19.189  0.00  0.00    +0.000 C 
BRANCH  15  16
ATOM     16  C   UNL     1       2.904   3.542  18.020  0.00  0.00    +0.000 C 
ATOM     17  C   UNL     1       3.184   2.062  17.759  0.00  0.00    +0.000 C 
ATOM     18  C   UNL     1       1.408   3.712  18.338  0.00  0.00    +0.000 C 
ENDBRANCH  15  16
ENDBRANCH  13  15
ENDBRANCH   5  13
TORSDOF 6
ENDMDL
