MODEL 1
REMARK VINA RESULT:      -7.7      0.000      0.000
REMARK  Name = 
REMARK  3 active torsions:
REMARK  status: ('A' for Active; 'I' for Inactive)
REMARK    1  A    between atoms: C_2  and  C_3
REMARK    2  A    between atoms: C_3  and  C_4
REMARK    3  A    between atoms: N_10  and  C_11
REMARK                            x       y       z     vdW  Elec       q    Type
REMARK                         _______ _______ _______ _____ _____    ______ ____
ROOT
ATOM      1  O   UNL     1       2.387   7.913  18.877  0.00  0.00    +0.000 OA
ATOM      2  C   UNL     1       2.024   7.514  19.967  0.00  0.00    +0.000 C 
ATOM      3  N   UNL     1       2.069   6.196  20.367  0.00  0.00    +0.000 N 
ATOM      4  H   UNL     1       1.970   6.053  21.372  0.00  0.00    +0.000 HD
ENDROOT
BRANCH   3   5
ATOM      5  C   UNL     1       2.553   5.014  19.606  0.00  0.00    +0.000 C 
ATOM      6  C   UNL     1       4.095   4.996  19.451  0.00  0.00    +0.000 C 
ATOM      7  C   UNL     1       4.555   3.720  18.710  0.00  0.00    +0.000 C 
ATOM      8  C   UNL     1       4.133   2.472  19.507  0.00  0.00    +0.000 C 
ATOM      9  C   UNL     1       2.607   2.455  19.692  0.00  0.00    +0.000 C 
ATOM     10  C   UNL     1       1.939   2.388  18.312  0.00  0.00    +0.000 C 
ATOM     11  C   UNL     1       2.364   3.603  17.476  0.00  0.00    +0.000 C 
ATOM     12  C   UNL     1       3.893   3.654  17.323  0.00  0.00    +0.000 C 
ATOM     13  C   UNL     1       1.917   4.891  18.191  0.00  0.00    +0.000 C 
ATOM     14  C   UNL     1       2.165   3.742  20.412  0.00  0.00    +0.000 C 
ENDBRANCH   3   5
BRANCH   2  15
ATOM     15  C   UNL     1       1.518   8.503  21.044  0.00  0.00    +0.000 C 
BRANCH  15  16
ATOM     16  C   UNL     1       0.031   8.890  20.996  0.00  0.00    +0.000 C 
ATOM     17  C   UNL     1      -0.134  10.351  20.504  0.00  0.00    +0.000 C 
ATOM     18  C   UNL     1       0.227  11.387  21.573  0.00  0.00    +0.000 C 
ATOM     19  N   UNL     1      -0.508  11.159  22.817  0.00  0.00    +0.000 NA
ATOM     20  C   UNL     1      -0.237   9.826  23.351  0.00  0.00    +0.000 C 
ATOM     21  C   UNL     1      -0.638   8.729  22.365  0.00  0.00    +0.000 C 
ATOM     22  H   UNL     1      -1.508  11.241  22.628  0.00  0.00    +0.000 HD
ENDBRANCH  15  16
ENDBRANCH   2  15
TORSDOF 3
ENDMDL
MODEL 2
REMARK VINA RESULT:      -7.6      0.097      1.662
REMARK  Name = 
REMARK  3 active torsions:
REMARK  status: ('A' for Active; 'I' for Inactive)
REMARK    1  A    between atoms: C_2  and  C_3
REMARK    2  A    between atoms: C_3  and  C_4
REMARK    3  A    between atoms: N_10  and  C_11
REMARK                            x       y       z     vdW  Elec       q    Type
REMARK                         _______ _______ _______ _____ _____    ______ ____
ROOT
ATOM      1  O   UNL     1       2.362   7.862  18.833  0.00  0.00    +0.000 OA
ATOM      2  C   UNL     1       2.021   7.527  19.952  0.00  0.00    +0.000 C 
ATOM      3  N   UNL     1       2.073   6.235  20.427  0.00  0.00    +0.000 N 
ATOM      4  H   UNL     1       1.993   6.150  21.440  0.00  0.00    +0.000 HD
ENDROOT
BRANCH   3   5
ATOM      5  C   UNL     1       2.544   5.010  19.727  0.00  0.00    +0.000 C 
ATOM      6  C   UNL     1       2.193   3.712  20.497  0.00  0.00    +0.000 C 
ATOM      7  C   UNL     1       2.646   2.465  19.702  0.00  0.00    +0.000 C 
ATOM      8  C   UNL     1       1.934   2.428  18.338  0.00  0.00    +0.000 C 
ATOM      9  C   UNL     1       2.249   3.705  17.543  0.00  0.00    +0.000 C 
ATOM     10  C   UNL     1       3.761   3.774  17.290  0.00  0.00    +0.000 C 
ATOM     11  C   UNL     1       4.506   3.780  18.631  0.00  0.00    +0.000 C 
ATOM     12  C   UNL     1       4.163   2.527  19.454  0.00  0.00    +0.000 C 
ATOM     13  C   UNL     1       4.075   5.014  19.445  0.00  0.00    +0.000 C 
ATOM     14  C   UNL     1       1.810   4.936  18.358  0.00  0.00    +0.000 C 
ENDBRANCH   3   5
BRANCH   2  15
ATOM     15  C   UNL     1       1.534   8.577  20.979  0.00  0.00    +0.000 C 
BRANCH  15  16
ATOM     16  C   UNL     1       0.034   8.916  20.977  0.00  0.00    +0.000 C 
ATOM     17  C   UNL     1      -0.192  10.379  20.517  0.00  0.00    +0.000 C 
ATOM     18  C   UNL     1       0.164  11.407  21.595  0.00  0.00    +0.000 C 
ATOM     19  N   UNL     1      -0.528  11.133  22.854  0.00  0.00    +0.000 NA
ATOM     20  C   UNL     1      -0.199   9.801  23.356  0.00  0.00    +0.000 C 
ATOM     21  C   UNL     1      -0.590   8.709  22.362  0.00  0.00    +0.000 C 
ATOM     22  H   UNL     1      -1.535  11.185  22.693  0.00  0.00    +0.000 HD
ENDBRANCH  15  16
ENDBRANCH   2  15
TORSDOF 3
ENDMDL
MODEL 3
REMARK VINA RESULT:      -7.5      3.748      5.435
REMARK  Name = 
REMARK  3 active torsions:
REMARK  status: ('A' for Active; 'I' for Inactive)
REMARK    1  A    between atoms: C_2  and  C_3
REMARK    2  A    between atoms: C_3  and  C_4
REMARK    3  A    between atoms: N_10  and  C_11
REMARK                            x       y       z     vdW  Elec       q    Type
REMARK                         _______ _______ _______ _____ _____    ______ ____
ROOT
ATOM      1  O   UNL     1       2.211   3.048  16.879  0.00  0.00    +0.000 OA
ATOM      2  C   UNL     1       2.786   2.866  17.935  0.00  0.00    +0.000 C 
ATOM      3  N   UNL     1       4.010   3.411  18.257  0.00  0.00    +0.000 N 
ATOM      4  H   UNL     1       4.244   3.376  19.250  0.00  0.00    +0.000 HD
ENDROOT
BRANCH   3   5
ATOM      5  C   UNL     1       4.867   4.310  17.440  0.00  0.00    +0.000 C 
ATOM      6  C   UNL     1       4.227   5.703  17.215  0.00  0.00    +0.000 C 
ATOM      7  C   UNL     1       5.180   6.621  16.415  0.00  0.00    +0.000 C 
ATOM      8  C   UNL     1       6.495   6.811  17.191  0.00  0.00    +0.000 C 
ATOM      9  C   UNL     1       7.161   5.449  17.443  0.00  0.00    +0.000 C 
ATOM     10  C   UNL     1       7.493   4.799  16.093  0.00  0.00    +0.000 C 
ATOM     11  C   UNL     1       6.206   4.623  15.277  0.00  0.00    +0.000 C 
ATOM     12  C   UNL     1       5.508   5.976  15.058  0.00  0.00    +0.000 C 
ATOM     13  C   UNL     1       5.236   3.711  16.051  0.00  0.00    +0.000 C 
ATOM     14  C   UNL     1       6.191   4.542  18.222  0.00  0.00    +0.000 C 
ENDBRANCH   3   5
BRANCH   2  15
ATOM     15  C   UNL     1       2.136   2.022  19.057  0.00  0.00    +0.000 C 
BRANCH  15  16
ATOM     16  C   UNL     1       1.052   2.705  19.908  0.00  0.00    +0.000 C 
ATOM     17  C   UNL     1       0.904   4.195  19.506  0.00  0.00    +0.000 C 
ATOM     18  C   UNL     1       2.044   5.072  20.033  0.00  0.00    +0.000 C 
ATOM     19  N   UNL     1       2.216   4.927  21.478  0.00  0.00    +0.000 NA
ATOM     20  C   UNL     1       2.495   3.538  21.837  0.00  0.00    +0.000 C 
ATOM     21  C   UNL     1       1.365   2.604  21.405  0.00  0.00    +0.000 C 
ATOM     22  H   UNL     1       1.355   5.220  21.943  0.00  0.00    +0.000 HD
ENDBRANCH  15  16
ENDBRANCH   2  15
TORSDOF 3
ENDMDL
MODEL 4
REMARK VINA RESULT:      -7.5      0.295      1.679
REMARK  Name = 
REMARK  3 active torsions:
REMARK  status: ('A' for Active; 'I' for Inactive)
REMARK    1  A    between atoms: C_2  and  C_3
REMARK    2  A    between atoms: C_3  and  C_4
REMARK    3  A    between atoms: N_10  and  C_11
REMARK                            x       y       z     vdW  Elec       q    Type
REMARK                         _______ _______ _______ _____ _____    ______ ____
ROOT
ATOM      1  O   UNL     1       2.247   7.983  18.588  0.00  0.00    +0.000 OA
ATOM      2  C   UNL     1       1.940   7.720  19.735  0.00  0.00    +0.000 C 
ATOM      3  N   UNL     1       2.014   6.460  20.290  0.00  0.00    +0.000 N 
ATOM      4  H   UNL     1       1.965   6.441  21.309  0.00  0.00    +0.000 HD
ENDROOT
BRANCH   3   5
ATOM      5  C   UNL     1       2.471   5.195  19.657  0.00  0.00    +0.000 C 
ATOM      6  C   UNL     1       1.983   5.052  18.193  0.00  0.00    +0.000 C 
ATOM      7  C   UNL     1       2.533   3.754  17.558  0.00  0.00    +0.000 C 
ATOM      8  C   UNL     1       4.072   3.785  17.555  0.00  0.00    +0.000 C 
ATOM      9  C   UNL     1       4.600   3.936  18.991  0.00  0.00    +0.000 C 
ATOM     10  C   UNL     1       4.148   2.723  19.817  0.00  0.00    +0.000 C 
ATOM     11  C   UNL     1       2.616   2.642  19.814  0.00  0.00    +0.000 C 
ATOM     12  C   UNL     1       2.076   2.536  18.379  0.00  0.00    +0.000 C 
ATOM     13  C   UNL     1       2.040   3.924  20.443  0.00  0.00    +0.000 C 
ATOM     14  C   UNL     1       4.026   5.221  19.614  0.00  0.00    +0.000 C 
ENDBRANCH   3   5
BRANCH   2  15
ATOM     15  C   UNL     1       1.479   8.831  20.707  0.00  0.00    +0.000 C 
BRANCH  15  16
ATOM     16  C   UNL     1      -0.036   9.023  20.884  0.00  0.00    +0.000 C 
ATOM     17  C   UNL     1      -0.432  10.498  20.620  0.00  0.00    +0.000 C 
ATOM     18  C   UNL     1      -0.055  11.434  21.772  0.00  0.00    +0.000 C 
ATOM     19  N   UNL     1      -0.589  10.962  23.050  0.00  0.00    +0.000 NA
ATOM     20  C   UNL     1      -0.099   9.620  23.361  0.00  0.00    +0.000 C 
ATOM     21  C   UNL     1      -0.496   8.609  22.286  0.00  0.00    +0.000 C 
ATOM     22  H   UNL     1      -1.608  10.934  22.989  0.00  0.00    +0.000 HD
ENDBRANCH  15  16
ENDBRANCH   2  15
TORSDOF 3
ENDMDL
MODEL 5
REMARK VINA RESULT:      -7.4      3.753      5.527
REMARK  Name = 
REMARK  3 active torsions:
REMARK  status: ('A' for Active; 'I' for Inactive)
REMARK    1  A    between atoms: C_2  and  C_3
REMARK    2  A    between atoms: C_3  and  C_4
REMARK    3  A    between atoms: N_10  and  C_11
REMARK                            x       y       z     vdW  Elec       q    Type
REMARK                         _______ _______ _______ _____ _____    ______ ____
ROOT
ATOM      1  O   UNL     1       2.192   3.233  16.836  0.00  0.00    +0.000 OA
ATOM      2  C   UNL     1       2.761   2.965  17.877  0.00  0.00    +0.000 C 
ATOM      3  N   UNL     1       4.022   3.410  18.209  0.00  0.00    +0.000 N 
ATOM      4  H   UNL     1       4.260   3.314  19.196  0.00  0.00    +0.000 HD
ENDROOT
BRANCH   3   5
ATOM      5  C   UNL     1       4.933   4.282  17.423  0.00  0.00    +0.000 C 
ATOM      6  C   UNL     1       5.204   3.732  16.000  0.00  0.00    +0.000 C 
ATOM      7  C   UNL     1       6.104   4.703  15.200  0.00  0.00    +0.000 C 
ATOM      8  C   UNL     1       5.409   6.070  15.068  0.00  0.00    +0.000 C 
ATOM      9  C   UNL     1       5.112   6.649  16.460  0.00  0.00    +0.000 C 
ATOM     10  C   UNL     1       6.438   6.859  17.204  0.00  0.00    +0.000 C 
ATOM     11  C   UNL     1       7.176   5.518  17.327  0.00  0.00    +0.000 C 
ATOM     12  C   UNL     1       7.437   4.908  15.940  0.00  0.00    +0.000 C 
ATOM     13  C   UNL     1       6.301   4.530  18.121  0.00  0.00    +0.000 C 
ATOM     14  C   UNL     1       4.234   5.661  17.248  0.00  0.00    +0.000 C 
ENDBRANCH   3   5
BRANCH   2  15
ATOM     15  C   UNL     1       2.062   2.119  18.967  0.00  0.00    +0.000 C 
BRANCH  15  16
ATOM     16  C   UNL     1       1.015   2.829  19.841  0.00  0.00    +0.000 C 
ATOM     17  C   UNL     1       1.010   4.352  19.553  0.00  0.00    +0.000 C 
ATOM     18  C   UNL     1       2.205   5.082  20.176  0.00  0.00    +0.000 C 
ATOM     19  N   UNL     1       2.317   4.813  21.609  0.00  0.00    +0.000 NA
ATOM     20  C   UNL     1       2.462   3.381  21.865  0.00  0.00    +0.000 C 
ATOM     21  C   UNL     1       1.270   2.587  21.333  0.00  0.00    +0.000 C 
ATOM     22  H   UNL     1       1.470   5.146  22.073  0.00  0.00    +0.000 HD
ENDBRANCH  15  16
ENDBRANCH   2  15
TORSDOF 3
ENDMDL
MODEL 6
REMARK VINA RESULT:      -7.4      3.949      6.125
REMARK  Name = 
REMARK  3 active torsions:
REMARK  status: ('A' for Active; 'I' for Inactive)
REMARK    1  A    between atoms: C_2  and  C_3
REMARK    2  A    between atoms: C_3  and  C_4
REMARK    3  A    between atoms: N_10  and  C_11
REMARK                            x       y       z     vdW  Elec       q    Type
REMARK                         _______ _______ _______ _____ _____    ______ ____
ROOT
ATOM      1  O   UNL     1       4.499   4.194  16.367  0.00  0.00    +0.000 OA
ATOM      2  C   UNL     1       4.621   5.194  17.049  0.00  0.00    +0.000 C 
ATOM      3  N   UNL     1       4.001   5.386  18.264  0.00  0.00    +0.000 N 
ATOM      4  H   UNL     1       4.387   6.147  18.823  0.00  0.00    +0.000 HD
ENDROOT
BRANCH   3   5
ATOM      5  C   UNL     1       3.094   4.464  18.997  0.00  0.00    +0.000 C 
ATOM      6  C   UNL     1       1.855   4.057  18.160  0.00  0.00    +0.000 C 
ATOM      7  C   UNL     1       0.976   3.050  18.938  0.00  0.00    +0.000 C 
ATOM      8  C   UNL     1       1.788   1.781  19.252  0.00  0.00    +0.000 C 
ATOM      9  C   UNL     1       3.034   2.142  20.076  0.00  0.00    +0.000 C 
ATOM     10  C   UNL     1       2.587   2.765  21.407  0.00  0.00    +0.000 C 
ATOM     11  C   UNL     1       1.746   4.018  21.130  0.00  0.00    +0.000 C 
ATOM     12  C   UNL     1       0.520   3.675  20.267  0.00  0.00    +0.000 C 
ATOM     13  C   UNL     1       2.599   5.040  20.355  0.00  0.00    +0.000 C 
ATOM     14  C   UNL     1       3.886   3.159  19.296  0.00  0.00    +0.000 C 
ENDBRANCH   3   5
BRANCH   2  15
ATOM     15  C   UNL     1       5.559   6.343  16.609  0.00  0.00    +0.000 C 
BRANCH  15  16
ATOM     16  C   UNL     1       7.068   6.047  16.590  0.00  0.00    +0.000 C 
ATOM     17  C   UNL     1       7.441   5.054  17.722  0.00  0.00    +0.000 C 
ATOM     18  C   UNL     1       7.461   5.707  19.107  0.00  0.00    +0.000 C 
ATOM     19  N   UNL     1       8.319   6.891  19.135  0.00  0.00    +0.000 NA
ATOM     20  C   UNL     1       7.876   7.885  18.160  0.00  0.00    +0.000 C 
ATOM     21  C   UNL     1       7.895   7.329  16.737  0.00  0.00    +0.000 C 
ATOM     22  H   UNL     1       9.274   6.610  18.908  0.00  0.00    +0.000 HD
ENDBRANCH  15  16
ENDBRANCH   2  15
TORSDOF 3
ENDMDL
MODEL 7
REMARK VINA RESULT:      -7.4      3.626      5.732
REMARK  Name = 
REMARK  3 active torsions:
REMARK  status: ('A' for Active; 'I' for Inactive)
REMARK    1  A    between atoms: C_2  and  C_3
REMARK    2  A    between atoms: C_3  and  C_4
REMARK    3  A    between atoms: N_10  and  C_11
REMARK                            x       y       z     vdW  Elec       q    Type
REMARK                         _______ _______ _______ _____ _____    ______ ____
ROOT
ATOM      1  O   UNL     1       1.951   5.571  18.100  0.00  0.00    +0.000 OA
ATOM      2  C   UNL     1       2.459   5.249  19.157  0.00  0.00    +0.000 C 
ATOM      3  N   UNL     1       3.816   5.120  19.360  0.00  0.00    +0.000 N 
ATOM      4  H   UNL     1       4.099   5.090  20.340  0.00  0.00    +0.000 HD
ENDROOT
BRANCH   3   5
ATOM      5  C   UNL     1       4.922   5.340  18.391  0.00  0.00    +0.000 C 
ATOM      6  C   UNL     1       4.762   6.659  17.593  0.00  0.00    +0.000 C 
ATOM      7  C   UNL     1       5.964   6.874  16.646  0.00  0.00    +0.000 C 
ATOM      8  C   UNL     1       7.265   6.957  17.464  0.00  0.00    +0.000 C 
ATOM      9  C   UNL     1       7.459   5.669  18.280  0.00  0.00    +0.000 C 
ATOM     10  C   UNL     1       7.578   4.482  17.315  0.00  0.00    +0.000 C 
ATOM     11  C   UNL     1       6.308   4.388  16.458  0.00  0.00    +0.000 C 
ATOM     12  C   UNL     1       6.081   5.690  15.672  0.00  0.00    +0.000 C 
ATOM     13  C   UNL     1       5.092   4.172  17.377  0.00  0.00    +0.000 C 
ATOM     14  C   UNL     1       6.244   5.460  19.202  0.00  0.00    +0.000 C 
ENDBRANCH   3   5
BRANCH   2  15
ATOM     15  C   UNL     1       1.589   5.006  20.413  0.00  0.00    +0.000 C 
BRANCH  15  16
ATOM     16  C   UNL     1       1.158   3.557  20.696  0.00  0.00    +0.000 C 
ATOM     17  C   UNL     1       2.274   2.798  21.459  0.00  0.00    +0.000 C 
ATOM     18  C   UNL     1       3.450   2.402  20.560  0.00  0.00    +0.000 C 
ATOM     19  N   UNL     1       3.005   1.653  19.385  0.00  0.00    +0.000 NA
ATOM     20  C   UNL     1       2.056   2.432  18.593  0.00  0.00    +0.000 C 
ATOM     21  C   UNL     1       0.816   2.808  19.403  0.00  0.00    +0.000 C 
ATOM     22  H   UNL     1       2.547   0.795  19.697  0.00  0.00    +0.000 HD
ENDBRANCH  15  16
ENDBRANCH   2  15
TORSDOF 3
ENDMDL
MODEL 8
REMARK VINA RESULT:      -7.4      4.022      6.052
REMARK  Name = 
REMARK  3 active torsions:
REMARK  status: ('A' for Active; 'I' for Inactive)
REMARK    1  A    between atoms: C_2  and  C_3
REMARK    2  A    between atoms: C_3  and  C_4
REMARK    3  A    between atoms: N_10  and  C_11
REMARK                            x       y       z     vdW  Elec       q    Type
REMARK                         _______ _______ _______ _____ _____    ______ ____
ROOT
ATOM      1  O   UNL     1       4.588   4.066  16.283  0.00  0.00    +0.000 OA
ATOM      2  C   UNL     1       4.684   5.082  16.945  0.00  0.00    +0.000 C 
ATOM      3  N   UNL     1       4.058   5.282  18.156  0.00  0.00    +0.000 N 
ATOM      4  H   UNL     1       4.423   6.063  18.700  0.00  0.00    +0.000 HD
ENDROOT
BRANCH   3   5
ATOM      5  C   UNL     1       3.174   4.351  18.906  0.00  0.00    +0.000 C 
ATOM      6  C   UNL     1       3.881   3.022  19.271  0.00  0.00    +0.000 C 
ATOM      7  C   UNL     1       2.944   2.114  20.102  0.00  0.00    +0.000 C 
ATOM      8  C   UNL     1       2.549   2.828  21.407  0.00  0.00    +0.000 C 
ATOM      9  C   UNL     1       1.850   4.159  21.090  0.00  0.00    +0.000 C 
ATOM     10  C   UNL     1       0.568   3.872  20.297  0.00  0.00    +0.000 C 
ATOM     11  C   UNL     1       0.922   3.131  19.000  0.00  0.00    +0.000 C 
ATOM     12  C   UNL     1       1.662   1.818  19.306  0.00  0.00    +0.000 C 
ATOM     13  C   UNL     1       1.855   4.013  18.151  0.00  0.00    +0.000 C 
ATOM     14  C   UNL     1       2.788   5.041  20.246  0.00  0.00    +0.000 C 
ENDBRANCH   3   5
BRANCH   2  15
ATOM     15  C   UNL     1       5.592   6.246  16.483  0.00  0.00    +0.000 C 
BRANCH  15  16
ATOM     16  C   UNL     1       7.109   5.996  16.492  0.00  0.00    +0.000 C 
ATOM     17  C   UNL     1       7.484   4.967  17.590  0.00  0.00    +0.000 C 
ATOM     18  C   UNL     1       7.449   5.560  19.002  0.00  0.00    +0.000 C 
ATOM     19  N   UNL     1       8.270   6.767  19.103  0.00  0.00    +0.000 NA
ATOM     20  C   UNL     1       7.821   7.788  18.159  0.00  0.00    +0.000 C 
ATOM     21  C   UNL     1       7.892   7.295  16.714  0.00  0.00    +0.000 C 
ATOM     22  H   UNL     1       9.238   6.524  18.889  0.00  0.00    +0.000 HD
ENDBRANCH  15  16
ENDBRANCH   2  15
TORSDOF 3
ENDMDL
MODEL 9
REMARK VINA RESULT:      -7.3      3.968      6.141
REMARK  Name = 
REMARK  3 active torsions:
REMARK  status: ('A' for Active; 'I' for Inactive)
REMARK    1  A    between atoms: C_2  and  C_3
REMARK    2  A    between atoms: C_3  and  C_4
REMARK    3  A    between atoms: N_10  and  C_11
REMARK                            x       y       z     vdW  Elec       q    Type
REMARK                         _______ _______ _______ _____ _____    ______ ____
ROOT
ATOM      1  O   UNL     1       4.661   4.094  16.493  0.00  0.00    +0.000 OA
ATOM      2  C   UNL     1       4.717   5.130  17.127  0.00  0.00    +0.000 C 
ATOM      3  N   UNL     1       4.072   5.342  18.326  0.00  0.00    +0.000 N 
ATOM      4  H   UNL     1       4.406   6.150  18.852  0.00  0.00    +0.000 HD
ENDROOT
BRANCH   3   5
ATOM      5  C   UNL     1       3.210   4.403  19.093  0.00  0.00    +0.000 C 
ATOM      6  C   UNL     1       2.655   5.032  20.396  0.00  0.00    +0.000 C 
ATOM      7  C   UNL     1       1.717   4.043  21.125  0.00  0.00    +0.000 C 
ATOM      8  C   UNL     1       0.529   3.683  20.215  0.00  0.00    +0.000 C 
ATOM      9  C   UNL     1       1.036   3.063  18.904  0.00  0.00    +0.000 C 
ATOM     10  C   UNL     1       1.797   1.770  19.227  0.00  0.00    +0.000 C 
ATOM     11  C   UNL     1       2.973   2.086  20.160  0.00  0.00    +0.000 C 
ATOM     12  C   UNL     1       2.480   2.749  21.457  0.00  0.00    +0.000 C 
ATOM     13  C   UNL     1       3.926   3.071  19.458  0.00  0.00    +0.000 C 
ATOM     14  C   UNL     1       1.983   4.053  18.202  0.00  0.00    +0.000 C 
ENDBRANCH   3   5
BRANCH   2  15
ATOM     15  C   UNL     1       5.591   6.310  16.643  0.00  0.00    +0.000 C 
BRANCH  15  16
ATOM     16  C   UNL     1       7.111   6.080  16.591  0.00  0.00    +0.000 C 
ATOM     17  C   UNL     1       7.548   5.084  17.696  0.00  0.00    +0.000 C 
ATOM     18  C   UNL     1       7.566   5.711  19.093  0.00  0.00    +0.000 C 
ATOM     19  N   UNL     1       8.373   6.930  19.129  0.00  0.00    +0.000 NA
ATOM     20  C   UNL     1       7.869   7.922  18.182  0.00  0.00    +0.000 C 
ATOM     21  C   UNL     1       7.885   7.394  16.748  0.00  0.00    +0.000 C 
ATOM     22  H   UNL     1       9.334   6.695  18.880  0.00  0.00    +0.000 HD
ENDBRANCH  15  16
ENDBRANCH   2  15
TORSDOF 3
ENDMDL
