MODEL 1
REMARK VINA RESULT:      -5.9      0.000      0.000
REMARK  Name = 
REMARK  5 active torsions:
REMARK  status: ('A' for Active; 'I' for Inactive)
REMARK    1  A    between atoms: C_2  and  C_3
REMARK    2  A    between atoms: N_8  and  C_9
REMARK    3  A    between atoms: N_8  and  C_22
REMARK    4  A    between atoms: C_9  and  O_11
REMARK    5  A    between atoms: O_11  and  C_12
REMARK                            x       y       z     vdW  Elec       q    Type
REMARK                         _______ _______ _______ _____ _____    ______ ____
ROOT
ATOM      1  O   UNL     1       6.451  15.747  22.855  0.00  0.00    +0.000 OA
ATOM      2  C   UNL     1       7.320  15.372  22.064  0.00  0.00    +0.000 C 
ATOM      3  N   UNL     1       8.367  14.513  22.463  0.00  0.00    +0.000 N 
ENDROOT
BRANCH   3   4
ATOM      4  C   UNL     1       8.045  13.609  23.528  0.00  0.00    +0.000 A 
ATOM      5  C   UNL     1       8.465  13.914  24.829  0.00  0.00    +0.000 A 
ATOM      6  C   UNL     1       8.149  13.062  25.888  0.00  0.00    +0.000 A 
ATOM      7  C   UNL     1       7.443  11.883  25.650  0.00  0.00    +0.000 A 
ATOM      8  C   UNL     1       7.037  11.563  24.354  0.00  0.00    +0.000 A 
ATOM      9  C   UNL     1       7.322  12.428  23.294  0.00  0.00    +0.000 A 
ENDBRANCH   3   4
BRANCH   2  10
ATOM     10  C   UNL     1       7.301  15.831  20.675  0.00  0.00    +0.000 A 
ATOM     11  C   UNL     1       6.974  15.075  19.564  0.00  0.00    +0.000 A 
ATOM     12  C   UNL     1       7.023  15.829  18.356  0.00  0.00    +0.000 A 
ATOM     13  C   UNL     1       7.440  17.123  18.577  0.00  0.00    +0.000 A 
ATOM     14  S   UNL     1       7.831  17.398  20.215  0.00  0.00    +0.000 S 
ENDBRANCH   2  10
BRANCH   3  15
ATOM     15  C   UNL     1       9.713  14.689  22.092  0.00  0.00    +0.000 C 
ATOM     16  S   UNL     1      10.573  16.103  22.403  0.00  0.00    +0.000 S 
BRANCH  15  17
ATOM     17  O   UNL     1      10.294  13.571  21.542  0.00  0.00    +0.000 OA
BRANCH  17  18
ATOM     18  C   UNL     1      10.307  13.135  20.141  0.00  0.00    +0.000 C 
ATOM     19  C   UNL     1      10.451  14.299  19.132  0.00  0.00    +0.000 C 
ATOM     20  C   UNL     1      10.453  13.758  17.690  0.00  0.00    +0.000 C 
ATOM     21  C   UNL     1      11.679  12.854  17.488  0.00  0.00    +0.000 C 
ATOM     22  C   UNL     1      11.640  11.694  18.497  0.00  0.00    +0.000 C 
ATOM     23  C   UNL     1      10.382  10.858  18.214  0.00  0.00    +0.000 C 
ATOM     24  C   UNL     1       9.130  11.724  18.401  0.00  0.00    +0.000 C 
ATOM     25  C   UNL     1       9.171  12.938  17.456  0.00  0.00    +0.000 C 
ATOM     26  C   UNL     1       9.097  12.224  19.845  0.00  0.00    +0.000 C 
ATOM     27  C   UNL     1      11.580  12.256  19.938  0.00  0.00    +0.000 C 
ENDBRANCH  17  18
ENDBRANCH  15  17
ENDBRANCH   3  15
TORSDOF 5
ENDMDL
MODEL 2
REMARK VINA RESULT:      -5.7      9.496     11.807
REMARK  Name = 
REMARK  5 active torsions:
REMARK  status: ('A' for Active; 'I' for Inactive)
REMARK    1  A    between atoms: C_2  and  C_3
REMARK    2  A    between atoms: N_8  and  C_9
REMARK    3  A    between atoms: N_8  and  C_22
REMARK    4  A    between atoms: C_9  and  O_11
REMARK    5  A    between atoms: O_11  and  C_12
REMARK                            x       y       z     vdW  Elec       q    Type
REMARK                         _______ _______ _______ _____ _____    ______ ____
ROOT
ATOM      1  O   UNL     1       8.001   4.088  16.288  0.00  0.00    +0.000 OA
ATOM      2  C   UNL     1       7.041   4.674  15.783  0.00  0.00    +0.000 C 
ATOM      3  N   UNL     1       6.345   5.691  16.472  0.00  0.00    +0.000 N 
ENDROOT
BRANCH   3   4
ATOM      4  C   UNL     1       7.129   6.444  17.407  0.00  0.00    +0.000 A 
ATOM      5  C   UNL     1       7.495   7.757  17.083  0.00  0.00    +0.000 A 
ATOM      6  C   UNL     1       8.242   8.520  17.982  0.00  0.00    +0.000 A 
ATOM      7  C   UNL     1       8.657   7.967  19.193  0.00  0.00    +0.000 A 
ATOM      8  C   UNL     1       8.311   6.654  19.515  0.00  0.00    +0.000 A 
ATOM      9  C   UNL     1       7.536   5.894  18.633  0.00  0.00    +0.000 A 
ENDBRANCH   3   4
BRANCH   2  10
ATOM     10  C   UNL     1       6.576   4.312  14.444  0.00  0.00    +0.000 A 
ATOM     11  C   UNL     1       5.498   3.500  14.139  0.00  0.00    +0.000 A 
ATOM     12  C   UNL     1       5.290   3.373  12.735  0.00  0.00    +0.000 A 
ATOM     13  C   UNL     1       6.249   4.046  12.012  0.00  0.00    +0.000 A 
ATOM     14  S   UNL     1       7.422   4.766  13.021  0.00  0.00    +0.000 S 
ENDBRANCH   2  10
BRANCH   3  15
ATOM     15  C   UNL     1       4.942   5.802  16.503  0.00  0.00    +0.000 C 
ATOM     16  S   UNL     1       4.133   7.263  16.279  0.00  0.00    +0.000 S 
BRANCH  15  17
ATOM     17  O   UNL     1       4.286   4.602  16.633  0.00  0.00    +0.000 OA
BRANCH  17  18
ATOM     18  C   UNL     1       3.466   4.116  17.749  0.00  0.00    +0.000 C 
ATOM     19  C   UNL     1       1.947   4.296  17.524  0.00  0.00    +0.000 C 
ATOM     20  C   UNL     1       1.161   3.766  18.739  0.00  0.00    +0.000 C 
ATOM     21  C   UNL     1       1.404   2.256  18.882  0.00  0.00    +0.000 C 
ATOM     22  C   UNL     1       2.908   1.987  19.055  0.00  0.00    +0.000 C 
ATOM     23  C   UNL     1       3.367   2.667  20.356  0.00  0.00    +0.000 C 
ATOM     24  C   UNL     1       3.139   4.180  20.258  0.00  0.00    +0.000 C 
ATOM     25  C   UNL     1       1.651   4.485  20.010  0.00  0.00    +0.000 C 
ATOM     26  C   UNL     1       3.956   4.719  19.084  0.00  0.00    +0.000 C 
ATOM     27  C   UNL     1       3.687   2.576  17.855  0.00  0.00    +0.000 C 
ENDBRANCH  17  18
ENDBRANCH  15  17
ENDBRANCH   3  15
TORSDOF 5
ENDMDL
MODEL 3
REMARK VINA RESULT:      -5.6      9.502     11.833
REMARK  Name = 
REMARK  5 active torsions:
REMARK  status: ('A' for Active; 'I' for Inactive)
REMARK    1  A    between atoms: C_2  and  C_3
REMARK    2  A    between atoms: N_8  and  C_9
REMARK    3  A    between atoms: N_8  and  C_22
REMARK    4  A    between atoms: C_9  and  O_11
REMARK    5  A    between atoms: O_11  and  C_12
REMARK                            x       y       z     vdW  Elec       q    Type
REMARK                         _______ _______ _______ _____ _____    ______ ____
ROOT
ATOM      1  O   UNL     1       8.042   4.111  16.262  0.00  0.00    +0.000 OA
ATOM      2  C   UNL     1       7.073   4.685  15.760  0.00  0.00    +0.000 C 
ATOM      3  N   UNL     1       6.362   5.689  16.454  0.00  0.00    +0.000 N 
ENDROOT
BRANCH   3   4
ATOM      4  C   UNL     1       7.136   6.450  17.391  0.00  0.00    +0.000 A 
ATOM      5  C   UNL     1       7.518   5.854  18.599  0.00  0.00    +0.000 A 
ATOM      6  C   UNL     1       8.287   6.565  19.521  0.00  0.00    +0.000 A 
ATOM      7  C   UNL     1       8.650   7.886  19.259  0.00  0.00    +0.000 A 
ATOM      8  C   UNL     1       8.258   8.492  18.065  0.00  0.00    +0.000 A 
ATOM      9  C   UNL     1       7.514   7.776  17.123  0.00  0.00    +0.000 A 
ENDBRANCH   3   4
BRANCH   2  10
ATOM     10  C   UNL     1       6.613   4.322  14.420  0.00  0.00    +0.000 A 
ATOM     11  C   UNL     1       5.557   3.482  14.112  0.00  0.00    +0.000 A 
ATOM     12  C   UNL     1       5.347   3.361  12.708  0.00  0.00    +0.000 A 
ATOM     13  C   UNL     1       6.283   4.068  11.987  0.00  0.00    +0.000 A 
ATOM     14  S   UNL     1       7.439   4.812  12.997  0.00  0.00    +0.000 S 
ENDBRANCH   2  10
BRANCH   3  15
ATOM     15  C   UNL     1       4.958   5.779  16.485  0.00  0.00    +0.000 C 
ATOM     16  S   UNL     1       4.127   7.225  16.251  0.00  0.00    +0.000 S 
BRANCH  15  17
ATOM     17  O   UNL     1       4.321   4.570  16.626  0.00  0.00    +0.000 OA
BRANCH  17  18
ATOM     18  C   UNL     1       3.579   4.049  17.780  0.00  0.00    +0.000 C 
ATOM     19  C   UNL     1       3.905   4.778  19.105  0.00  0.00    +0.000 C 
ATOM     20  C   UNL     1       3.090   4.170  20.263  0.00  0.00    +0.000 C 
ATOM     21  C   UNL     1       1.593   4.392  20.002  0.00  0.00    +0.000 C 
ATOM     22  C   UNL     1       1.197   3.740  18.666  0.00  0.00    +0.000 C 
ATOM     23  C   UNL     1       1.439   2.226  18.784  0.00  0.00    +0.000 C 
ATOM     24  C   UNL     1       2.926   1.958  19.049  0.00  0.00    +0.000 C 
ATOM     25  C   UNL     1       3.376   2.659  20.343  0.00  0.00    +0.000 C 
ATOM     26  C   UNL     1       3.736   2.516  17.879  0.00  0.00    +0.000 C 
ATOM     27  C   UNL     1       2.065   4.321  17.523  0.00  0.00    +0.000 C 
ENDBRANCH  17  18
ENDBRANCH  15  17
ENDBRANCH   3  15
TORSDOF 5
ENDMDL
MODEL 4
REMARK VINA RESULT:      -5.6      2.630      4.254
REMARK  Name = 
REMARK  5 active torsions:
REMARK  status: ('A' for Active; 'I' for Inactive)
REMARK    1  A    between atoms: C_2  and  C_3
REMARK    2  A    between atoms: N_8  and  C_9
REMARK    3  A    between atoms: N_8  and  C_22
REMARK    4  A    between atoms: C_9  and  O_11
REMARK    5  A    between atoms: O_11  and  C_12
REMARK                            x       y       z     vdW  Elec       q    Type
REMARK                         _______ _______ _______ _____ _____    ______ ____
ROOT
ATOM      1  O   UNL     1       6.073  17.810  19.162  0.00  0.00    +0.000 OA
ATOM      2  C   UNL     1       6.981  16.996  19.345  0.00  0.00    +0.000 C 
ATOM      3  N   UNL     1       6.735  15.717  19.891  0.00  0.00    +0.000 N 
ENDROOT
BRANCH   3   4
ATOM      4  C   UNL     1       5.440  15.171  19.609  0.00  0.00    +0.000 A 
ATOM      5  C   UNL     1       5.130  14.801  18.295  0.00  0.00    +0.000 A 
ATOM      6  C   UNL     1       3.884  14.248  17.995  0.00  0.00    +0.000 A 
ATOM      7  C   UNL     1       2.928  14.094  18.998  0.00  0.00    +0.000 A 
ATOM      8  C   UNL     1       3.223  14.476  20.307  0.00  0.00    +0.000 A 
ATOM      9  C   UNL     1       4.480  15.001  20.620  0.00  0.00    +0.000 A 
ENDBRANCH   3   4
BRANCH   2  10
ATOM     10  C   UNL     1       8.363  17.346  19.017  0.00  0.00    +0.000 A 
ATOM     11  C   UNL     1       9.162  18.258  19.683  0.00  0.00    +0.000 A 
ATOM     12  C   UNL     1      10.472  18.343  19.130  0.00  0.00    +0.000 A 
ATOM     13  C   UNL     1      10.616  17.535  18.025  0.00  0.00    +0.000 A 
ATOM     14  S   UNL     1       9.162  16.736  17.625  0.00  0.00    +0.000 S 
ENDBRANCH   2  10
BRANCH   3  15
ATOM     15  C   UNL     1       7.535  15.117  20.881  0.00  0.00    +0.000 C 
ATOM     16  S   UNL     1       7.946  15.888  22.321  0.00  0.00    +0.000 S 
BRANCH  15  17
ATOM     17  O   UNL     1       7.872  13.812  20.615  0.00  0.00    +0.000 OA
BRANCH  17  18
ATOM     18  C   UNL     1       9.074  13.287  19.955  0.00  0.00    +0.000 C 
ATOM     19  C   UNL     1       9.412  11.831  20.354  0.00  0.00    +0.000 C 
ATOM     20  C   UNL     1      10.682  11.358  19.623  0.00  0.00    +0.000 C 
ATOM     21  C   UNL     1      10.423  11.346  18.109  0.00  0.00    +0.000 C 
ATOM     22  C   UNL     1      10.025  12.755  17.639  0.00  0.00    +0.000 C 
ATOM     23  C   UNL     1      11.207  13.700  17.910  0.00  0.00    +0.000 C 
ATOM     24  C   UNL     1      11.504  13.741  19.414  0.00  0.00    +0.000 C 
ATOM     25  C   UNL     1      11.835  12.331  19.935  0.00  0.00    +0.000 C 
ATOM     26  C   UNL     1      10.261  14.255  20.140  0.00  0.00    +0.000 C 
ATOM     27  C   UNL     1       8.781  13.236  18.424  0.00  0.00    +0.000 C 
ENDBRANCH  17  18
ENDBRANCH  15  17
ENDBRANCH   3  15
TORSDOF 5
ENDMDL
MODEL 5
REMARK VINA RESULT:      -5.6      2.579      4.013
REMARK  Name = 
REMARK  5 active torsions:
REMARK  status: ('A' for Active; 'I' for Inactive)
REMARK    1  A    between atoms: C_2  and  C_3
REMARK    2  A    between atoms: N_8  and  C_9
REMARK    3  A    between atoms: N_8  and  C_22
REMARK    4  A    between atoms: C_9  and  O_11
REMARK    5  A    between atoms: O_11  and  C_12
REMARK                            x       y       z     vdW  Elec       q    Type
REMARK                         _______ _______ _______ _____ _____    ______ ____
ROOT
ATOM      1  O   UNL     1       6.122  17.881  19.388  0.00  0.00    +0.000 OA
ATOM      2  C   UNL     1       7.030  17.067  19.569  0.00  0.00    +0.000 C 
ATOM      3  N   UNL     1       6.778  15.770  20.069  0.00  0.00    +0.000 N 
ENDROOT
BRANCH   3   4
ATOM      4  C   UNL     1       5.494  15.226  19.736  0.00  0.00    +0.000 A 
ATOM      5  C   UNL     1       5.226  14.881  18.406  0.00  0.00    +0.000 A 
ATOM      6  C   UNL     1       3.991  14.331  18.058  0.00  0.00    +0.000 A 
ATOM      7  C   UNL     1       3.005  14.155  19.028  0.00  0.00    +0.000 A 
ATOM      8  C   UNL     1       3.258  14.513  20.352  0.00  0.00    +0.000 A 
ATOM      9  C   UNL     1       4.503  15.035  20.714  0.00  0.00    +0.000 A 
ENDBRANCH   3   4
BRANCH   2  10
ATOM     10  C   UNL     1       8.418  17.434  19.287  0.00  0.00    +0.000 A 
ATOM     11  C   UNL     1       9.204  18.305  20.020  0.00  0.00    +0.000 A 
ATOM     12  C   UNL     1      10.524  18.421  19.498  0.00  0.00    +0.000 A 
ATOM     13  C   UNL     1      10.689  17.678  18.350  0.00  0.00    +0.000 A 
ATOM     14  S   UNL     1       9.243  16.905  17.877  0.00  0.00    +0.000 S 
ENDBRANCH   2  10
BRANCH   3  15
ATOM     15  C   UNL     1       7.556  15.144  21.059  0.00  0.00    +0.000 C 
ATOM     16  S   UNL     1       7.963  15.889  22.514  0.00  0.00    +0.000 S 
BRANCH  15  17
ATOM     17  O   UNL     1       7.874  13.836  20.780  0.00  0.00    +0.000 OA
BRANCH  17  18
ATOM     18  C   UNL     1       8.976  13.309  19.967  0.00  0.00    +0.000 C 
ATOM     19  C   UNL     1       8.716  13.390  18.444  0.00  0.00    +0.000 C 
ATOM     20  C   UNL     1       9.915  12.817  17.666  0.00  0.00    +0.000 C 
ATOM     21  C   UNL     1      11.157  13.677  17.941  0.00  0.00    +0.000 C 
ATOM     22  C   UNL     1      11.454  13.693  19.450  0.00  0.00    +0.000 C 
ATOM     23  C   UNL     1      11.766  12.254  19.891  0.00  0.00    +0.000 C 
ATOM     24  C   UNL     1      10.550  11.356  19.630  0.00  0.00    +0.000 C 
ATOM     25  C   UNL     1      10.178  11.374  18.137  0.00  0.00    +0.000 C 
ATOM     26  C   UNL     1       9.369  11.893  20.439  0.00  0.00    +0.000 C 
ATOM     27  C   UNL     1      10.218  14.218  20.221  0.00  0.00    +0.000 C 
ENDBRANCH  17  18
ENDBRANCH  15  17
ENDBRANCH   3  15
TORSDOF 5
ENDMDL
MODEL 6
REMARK VINA RESULT:      -5.6      9.498     11.815
REMARK  Name = 
REMARK  5 active torsions:
REMARK  status: ('A' for Active; 'I' for Inactive)
REMARK    1  A    between atoms: C_2  and  C_3
REMARK    2  A    between atoms: N_8  and  C_9
REMARK    3  A    between atoms: N_8  and  C_22
REMARK    4  A    between atoms: C_9  and  O_11
REMARK    5  A    between atoms: O_11  and  C_12
REMARK                            x       y       z     vdW  Elec       q    Type
REMARK                         _______ _______ _______ _____ _____    ______ ____
ROOT
ATOM      1  O   UNL     1       8.040   4.122  16.299  0.00  0.00    +0.000 OA
ATOM      2  C   UNL     1       7.059   4.684  15.807  0.00  0.00    +0.000 C 
ATOM      3  N   UNL     1       6.350   5.688  16.503  0.00  0.00    +0.000 N 
ENDROOT
BRANCH   3   4
ATOM      4  C   UNL     1       7.131   6.462  17.423  0.00  0.00    +0.000 A 
ATOM      5  C   UNL     1       7.470   7.778  17.085  0.00  0.00    +0.000 A 
ATOM      6  C   UNL     1       8.213   8.562  17.970  0.00  0.00    +0.000 A 
ATOM      7  C   UNL     1       8.651   8.026  19.180  0.00  0.00    +0.000 A 
ATOM      8  C   UNL     1       8.332   6.710  19.516  0.00  0.00    +0.000 A 
ATOM      9  C   UNL     1       7.562   5.930  18.649  0.00  0.00    +0.000 A 
ENDBRANCH   3   4
BRANCH   2  10
ATOM     10  C   UNL     1       6.582   4.307  14.476  0.00  0.00    +0.000 A 
ATOM     11  C   UNL     1       5.504   3.488  14.191  0.00  0.00    +0.000 A 
ATOM     12  C   UNL     1       5.283   3.345  12.791  0.00  0.00    +0.000 A 
ATOM     13  C   UNL     1       6.232   4.014  12.051  0.00  0.00    +0.000 A 
ATOM     14  S   UNL     1       7.413   4.748  13.041  0.00  0.00    +0.000 S 
ENDBRANCH   2  10
BRANCH   3  15
ATOM     15  C   UNL     1       4.946   5.767  16.554  0.00  0.00    +0.000 C 
ATOM     16  S   UNL     1       4.105   7.221  16.427  0.00  0.00    +0.000 S 
BRANCH  15  17
ATOM     17  O   UNL     1       4.317   4.547  16.619  0.00  0.00    +0.000 OA
BRANCH  17  18
ATOM     18  C   UNL     1       3.515   3.981  17.710  0.00  0.00    +0.000 C 
ATOM     19  C   UNL     1       3.732   2.463  17.913  0.00  0.00    +0.000 C 
ATOM     20  C   UNL     1       2.856   1.948  19.070  0.00  0.00    +0.000 C 
ATOM     21  C   UNL     1       3.290   2.628  20.378  0.00  0.00    +0.000 C 
ATOM     22  C   UNL     1       3.156   4.154  20.239  0.00  0.00    +0.000 C 
ATOM     23  C   UNL     1       1.673   4.482  20.003  0.00  0.00    +0.000 C 
ATOM     24  C   UNL     1       1.194   3.819  18.706  0.00  0.00    +0.000 C 
ATOM     25  C   UNL     1       1.383   2.294  18.781  0.00  0.00    +0.000 C 
ATOM     26  C   UNL     1       2.029   4.363  17.546  0.00  0.00    +0.000 C 
ATOM     27  C   UNL     1       3.997   4.646  19.036  0.00  0.00    +0.000 C 
ENDBRANCH  17  18
ENDBRANCH  15  17
ENDBRANCH   3  15
TORSDOF 5
ENDMDL
MODEL 7
REMARK VINA RESULT:      -5.3      1.979      2.540
REMARK  Name = 
REMARK  5 active torsions:
REMARK  status: ('A' for Active; 'I' for Inactive)
REMARK    1  A    between atoms: C_2  and  C_3
REMARK    2  A    between atoms: N_8  and  C_9
REMARK    3  A    between atoms: N_8  and  C_22
REMARK    4  A    between atoms: C_9  and  O_11
REMARK    5  A    between atoms: O_11  and  C_12
REMARK                            x       y       z     vdW  Elec       q    Type
REMARK                         _______ _______ _______ _____ _____    ______ ____
ROOT
ATOM      1  O   UNL     1       4.853  15.152  22.949  0.00  0.00    +0.000 OA
ATOM      2  C   UNL     1       5.273  14.965  21.805  0.00  0.00    +0.000 C 
ATOM      3  N   UNL     1       6.605  14.569  21.557  0.00  0.00    +0.000 N 
ENDROOT
BRANCH   3   4
ATOM      4  C   UNL     1       7.213  13.785  22.592  0.00  0.00    +0.000 A 
ATOM      5  C   UNL     1       8.042  14.419  23.526  0.00  0.00    +0.000 A 
ATOM      6  C   UNL     1       8.631  13.684  24.556  0.00  0.00    +0.000 A 
ATOM      7  C   UNL     1       8.426  12.307  24.638  0.00  0.00    +0.000 A 
ATOM      8  C   UNL     1       7.617  11.665  23.700  0.00  0.00    +0.000 A 
ATOM      9  C   UNL     1       6.998  12.401  22.685  0.00  0.00    +0.000 A 
ENDBRANCH   3   4
BRANCH   2  10
ATOM     10  C   UNL     1       4.395  15.173  20.653  0.00  0.00    +0.000 A 
ATOM     11  C   UNL     1       3.785  14.188  19.895  0.00  0.00    +0.000 A 
ATOM     12  C   UNL     1       2.965  14.724  18.862  0.00  0.00    +0.000 A 
ATOM     13  C   UNL     1       3.017  16.099  18.826  0.00  0.00    +0.000 A 
ATOM     14  S   UNL     1       4.099  16.727  19.988  0.00  0.00    +0.000 S 
ENDBRANCH   2  10
BRANCH   3  15
ATOM     15  C   UNL     1       7.413  15.117  20.543  0.00  0.00    +0.000 C 
ATOM     16  S   UNL     1       7.966  16.708  20.569  0.00  0.00    +0.000 S 
BRANCH  15  17
ATOM     17  O   UNL     1       7.793  14.214  19.579  0.00  0.00    +0.000 OA
BRANCH  17  18
ATOM     18  C   UNL     1       9.115  13.621  19.342  0.00  0.00    +0.000 C 
ATOM     19  C   UNL     1      10.189  14.078  20.357  0.00  0.00    +0.000 C 
ATOM     20  C   UNL     1      11.542  13.415  20.037  0.00  0.00    +0.000 C 
ATOM     21  C   UNL     1      11.412  11.893  20.198  0.00  0.00    +0.000 C 
ATOM     22  C   UNL     1      10.318  11.363  19.256  0.00  0.00    +0.000 C 
ATOM     23  C   UNL     1      10.752  11.653  17.809  0.00  0.00    +0.000 C 
ATOM     24  C   UNL     1      10.898  13.166  17.604  0.00  0.00    +0.000 C 
ATOM     25  C   UNL     1      11.934  13.744  18.584  0.00  0.00    +0.000 C 
ATOM     26  C   UNL     1       9.545  13.824  17.873  0.00  0.00    +0.000 C 
ATOM     27  C   UNL     1       8.979  12.081  19.552  0.00  0.00    +0.000 C 
ENDBRANCH  17  18
ENDBRANCH  15  17
ENDBRANCH   3  15
TORSDOF 5
ENDMDL
MODEL 8
REMARK VINA RESULT:      -5.3      1.930      2.661
REMARK  Name = 
REMARK  5 active torsions:
REMARK  status: ('A' for Active; 'I' for Inactive)
REMARK    1  A    between atoms: C_2  and  C_3
REMARK    2  A    between atoms: N_8  and  C_9
REMARK    3  A    between atoms: N_8  and  C_22
REMARK    4  A    between atoms: C_9  and  O_11
REMARK    5  A    between atoms: O_11  and  C_12
REMARK                            x       y       z     vdW  Elec       q    Type
REMARK                         _______ _______ _______ _____ _____    ______ ____
ROOT
ATOM      1  O   UNL     1       5.000  15.678  22.137  0.00  0.00    +0.000 OA
ATOM      2  C   UNL     1       5.444  15.295  21.053  0.00  0.00    +0.000 C 
ATOM      3  N   UNL     1       6.774  14.843  20.911  0.00  0.00    +0.000 N 
ENDROOT
BRANCH   3   4
ATOM      4  C   UNL     1       7.341  14.236  22.079  0.00  0.00    +0.000 A 
ATOM      5  C   UNL     1       7.100  12.878  22.325  0.00  0.00    +0.000 A 
ATOM      6  C   UNL     1       7.656  12.257  23.444  0.00  0.00    +0.000 A 
ATOM      7  C   UNL     1       8.426  12.994  24.343  0.00  0.00    +0.000 A 
ATOM      8  C   UNL     1       8.656  14.351  24.115  0.00  0.00    +0.000 A 
ATOM      9  C   UNL     1       8.129  14.972  22.979  0.00  0.00    +0.000 A 
ENDBRANCH   3   4
BRANCH   2  10
ATOM     10  C   UNL     1       4.598  15.318  19.859  0.00  0.00    +0.000 A 
ATOM     11  C   UNL     1       3.983  14.230  19.265  0.00  0.00    +0.000 A 
ATOM     12  C   UNL     1       3.200  14.596  18.133  0.00  0.00    +0.000 A 
ATOM     13  C   UNL     1       3.287  15.944  17.863  0.00  0.00    +0.000 A 
ATOM     14  S   UNL     1       4.355  16.741  18.929  0.00  0.00    +0.000 S 
ENDBRANCH   2  10
BRANCH   3  15
ATOM     15  C   UNL     1       7.617  15.200  19.842  0.00  0.00    +0.000 C 
ATOM     16  S   UNL     1       8.212  16.760  19.625  0.00  0.00    +0.000 S 
BRANCH  15  17
ATOM     17  O   UNL     1       7.991  14.144  19.046  0.00  0.00    +0.000 OA
BRANCH  17  18
ATOM     18  C   UNL     1       9.301  13.493  18.935  0.00  0.00    +0.000 C 
ATOM     19  C   UNL     1      10.024  13.780  17.598  0.00  0.00    +0.000 C 
ATOM     20  C   UNL     1      11.385  13.060  17.561  0.00  0.00    +0.000 C 
ATOM     21  C   UNL     1      12.286  13.621  18.672  0.00  0.00    +0.000 C 
ATOM     22  C   UNL     1      11.610  13.423  20.039  0.00  0.00    +0.000 C 
ATOM     23  C   UNL     1      11.448  11.912  20.276  0.00  0.00    +0.000 C 
ATOM     24  C   UNL     1      10.555  11.308  19.185  0.00  0.00    +0.000 C 
ATOM     25  C   UNL     1      11.165  11.553  17.794  0.00  0.00    +0.000 C 
ATOM     26  C   UNL     1       9.186  11.986  19.249  0.00  0.00    +0.000 C 
ATOM     27  C   UNL     1      10.220  14.103  20.038  0.00  0.00    +0.000 C 
ENDBRANCH  17  18
ENDBRANCH  15  17
ENDBRANCH   3  15
TORSDOF 5
ENDMDL
MODEL 9
REMARK VINA RESULT:      -5.3      1.637      2.262
REMARK  Name = 
REMARK  5 active torsions:
REMARK  status: ('A' for Active; 'I' for Inactive)
REMARK    1  A    between atoms: C_2  and  C_3
REMARK    2  A    between atoms: N_8  and  C_9
REMARK    3  A    between atoms: N_8  and  C_22
REMARK    4  A    between atoms: C_9  and  O_11
REMARK    5  A    between atoms: O_11  and  C_12
REMARK                            x       y       z     vdW  Elec       q    Type
REMARK                         _______ _______ _______ _____ _____    ______ ____
ROOT
ATOM      1  O   UNL     1       5.044  14.963  22.380  0.00  0.00    +0.000 OA
ATOM      2  C   UNL     1       5.750  15.009  21.371  0.00  0.00    +0.000 C 
ATOM      3  N   UNL     1       7.138  14.751  21.422  0.00  0.00    +0.000 N 
ENDROOT
BRANCH   3   4
ATOM      4  C   UNL     1       7.553  13.838  22.446  0.00  0.00    +0.000 A 
ATOM      5  C   UNL     1       7.997  14.349  23.672  0.00  0.00    +0.000 A 
ATOM      6  C   UNL     1       8.390  13.482  24.694  0.00  0.00    +0.000 A 
ATOM      7  C   UNL     1       8.375  12.104  24.486  0.00  0.00    +0.000 A 
ATOM      8  C   UNL     1       7.951  11.588  23.261  0.00  0.00    +0.000 A 
ATOM      9  C   UNL     1       7.526  12.449  22.244  0.00  0.00    +0.000 A 
ENDBRANCH   3   4
BRANCH   2  10
ATOM     10  C   UNL     1       5.166  15.358  20.076  0.00  0.00    +0.000 A 
ATOM     11  C   UNL     1       5.066  14.534  18.969  0.00  0.00    +0.000 A 
ATOM     12  C   UNL     1       4.413  15.169  17.873  0.00  0.00    +0.000 A 
ATOM     13  C   UNL     1       4.086  16.475  18.158  0.00  0.00    +0.000 A 
ATOM     14  S   UNL     1       4.622  16.945  19.708  0.00  0.00    +0.000 S 
ENDBRANCH   2  10
BRANCH   3  15
ATOM     15  C   UNL     1       8.106  15.521  20.751  0.00  0.00    +0.000 C 
ATOM     16  S   UNL     1       8.795  16.908  21.414  0.00  0.00    +0.000 S 
BRANCH  15  17
ATOM     17  O   UNL     1       8.513  14.990  19.550  0.00  0.00    +0.000 OA
BRANCH  17  18
ATOM     18  C   UNL     1       9.474  13.910  19.299  0.00  0.00    +0.000 C 
ATOM     19  C   UNL     1       8.822  12.615  18.761  0.00  0.00    +0.000 C 
ATOM     20  C   UNL     1       9.895  11.535  18.528  0.00  0.00    +0.000 C 
ATOM     21  C   UNL     1      10.871  12.014  17.442  0.00  0.00    +0.000 C 
ATOM     22  C   UNL     1      11.524  13.335  17.879  0.00  0.00    +0.000 C 
ATOM     23  C   UNL     1      12.333  13.067  19.159  0.00  0.00    +0.000 C 
ATOM     24  C   UNL     1      11.396  12.582  20.272  0.00  0.00    +0.000 C 
ATOM     25  C   UNL     1      10.667  11.298  19.839  0.00  0.00    +0.000 C 
ATOM     26  C   UNL     1      10.358  13.672  20.542  0.00  0.00    +0.000 C 
ATOM     27  C   UNL     1      10.430  14.392  18.164  0.00  0.00    +0.000 C 
ENDBRANCH  17  18
ENDBRANCH  15  17
ENDBRANCH   3  15
TORSDOF 5
ENDMDL
