MODEL 1
REMARK VINA RESULT:      -7.3      0.000      0.000
REMARK  Name = 
REMARK  3 active torsions:
REMARK  status: ('A' for Active; 'I' for Inactive)
REMARK    1  A    between atoms: C_1  and  N_2
REMARK    2  A    between atoms: C_14  and  C_15
REMARK    3  A    between atoms: C_14  and  C_16
REMARK                            x       y       z     vdW  Elec       q    Type
REMARK                         _______ _______ _______ _____ _____    ______ ____
ROOT
ATOM      1  C   UNL     1       0.610   2.432  18.949  0.00  0.00    +0.000 C 
ATOM      2  N   UNL     1       1.873   3.127  19.080  0.00  0.00    +0.000 N 
ATOM      3  C   UNL     1       2.199   3.709  20.306  0.00  0.00    +0.000 A 
ATOM      4  O   UNL     1       1.469   3.678  21.297  0.00  0.00    +0.000 OA
ATOM      5  N   UNL     1       3.412   4.353  20.395  0.00  0.00    +0.000 N 
ATOM      6  C   UNL     1       4.226   4.404  19.310  0.00  0.00    +0.000 A 
ATOM      7  S   UNL     1       5.713   5.182  19.400  0.00  0.00    +0.000 S 
ATOM      8  C   UNL     1       6.024   4.813  17.758  0.00  0.00    +0.000 A 
ATOM      9  C   UNL     1       4.978   4.119  17.171  0.00  0.00    +0.000 A 
ATOM     10  C   UNL     1       3.928   3.860  18.096  0.00  0.00    +0.000 A 
ATOM     11  C   UNL     1       2.673   3.162  17.932  0.00  0.00    +0.000 A 
ATOM     12  O   UNL     1       2.352   2.649  16.862  0.00  0.00    +0.000 OA
ATOM     13  C   UNL     1       5.043   3.737  15.730  0.00  0.00    +0.000 C 
ATOM     14  C   UNL     1       6.084   4.617  14.991  0.00  0.00    +0.000 C 
ATOM     15  C   UNL     1       5.562   6.041  14.734  0.00  0.00    +0.000 C 
ATOM     16  C   UNL     1       6.396   3.964  13.638  0.00  0.00    +0.000 C 
ATOM     17  O   UNL     1       7.322   4.642  15.740  0.00  0.00    +0.000 OA
ATOM     18  C   UNL     1       7.258   5.264  17.042  0.00  0.00    +0.000 C 
ATOM     19  H   UNL     1       3.674   4.783  21.272  0.00  0.00    +0.000 HD
ENDROOT
TORSDOF 0
ENDMDL
MODEL 2
REMARK VINA RESULT:      -7.1      3.846      5.947
REMARK  Name = 
REMARK  3 active torsions:
REMARK  status: ('A' for Active; 'I' for Inactive)
REMARK    1  A    between atoms: C_1  and  N_2
REMARK    2  A    between atoms: C_14  and  C_15
REMARK    3  A    between atoms: C_14  and  C_16
REMARK                            x       y       z     vdW  Elec       q    Type
REMARK                         _______ _______ _______ _____ _____    ______ ____
ROOT
ATOM      1  C   UNL     1       0.779  10.175  19.988  0.00  0.00    +0.000 C 
ATOM      2  N   UNL     1       1.544   9.120  19.356  0.00  0.00    +0.000 N 
ATOM      3  C   UNL     1       2.203   9.390  18.156  0.00  0.00    +0.000 A 
ATOM      4  O   UNL     1       2.169  10.480  17.585  0.00  0.00    +0.000 OA
ATOM      5  N   UNL     1       2.928   8.366  17.591  0.00  0.00    +0.000 N 
ATOM      6  C   UNL     1       2.969   7.155  18.203  0.00  0.00    +0.000 A 
ATOM      7  S   UNL     1       3.852   5.894  17.531  0.00  0.00    +0.000 S 
ATOM      8  C   UNL     1       3.382   4.860  18.813  0.00  0.00    +0.000 A 
ATOM      9  C   UNL     1       2.546   5.496  19.717  0.00  0.00    +0.000 A 
ATOM     10  C   UNL     1       2.323   6.857  19.366  0.00  0.00    +0.000 A 
ATOM     11  C   UNL     1       1.548   7.888  20.020  0.00  0.00    +0.000 A 
ATOM     12  O   UNL     1       0.947   7.677  21.071  0.00  0.00    +0.000 OA
ATOM     13  C   UNL     1       1.998   4.750  20.887  0.00  0.00    +0.000 C 
ATOM     14  C   UNL     1       2.072   3.223  20.630  0.00  0.00    +0.000 C 
ATOM     15  C   UNL     1       0.992   2.748  19.643  0.00  0.00    +0.000 C 
ATOM     16  C   UNL     1       1.862   2.496  21.964  0.00  0.00    +0.000 C 
ATOM     17  O   UNL     1       3.396   2.870  20.163  0.00  0.00    +0.000 OA
ATOM     18  C   UNL     1       3.781   3.420  18.884  0.00  0.00    +0.000 C 
ATOM     19  H   UNL     1       3.416   8.534  16.721  0.00  0.00    +0.000 HD
ENDROOT
TORSDOF 0
ENDMDL
MODEL 3
REMARK VINA RESULT:      -7.0      1.958      3.061
REMARK  Name = 
REMARK  3 active torsions:
REMARK  status: ('A' for Active; 'I' for Inactive)
REMARK    1  A    between atoms: C_1  and  N_2
REMARK    2  A    between atoms: C_14  and  C_15
REMARK    3  A    between atoms: C_14  and  C_16
REMARK                            x       y       z     vdW  Elec       q    Type
REMARK                         _______ _______ _______ _____ _____    ______ ____
ROOT
ATOM      1  C   UNL     1       0.911   4.659  20.244  0.00  0.00    +0.000 C 
ATOM      2  N   UNL     1       1.862   4.265  19.225  0.00  0.00    +0.000 N 
ATOM      3  C   UNL     1       1.657   3.068  18.537  0.00  0.00    +0.000 A 
ATOM      4  O   UNL     1       0.713   2.307  18.749  0.00  0.00    +0.000 OA
ATOM      5  N   UNL     1       2.576   2.733  17.570  0.00  0.00    +0.000 N 
ATOM      6  C   UNL     1       3.629   3.556  17.329  0.00  0.00    +0.000 A 
ATOM      7  S   UNL     1       4.759   3.165  16.148  0.00  0.00    +0.000 S 
ATOM      8  C   UNL     1       5.641   4.591  16.498  0.00  0.00    +0.000 A 
ATOM      9  C   UNL     1       5.063   5.324  17.522  0.00  0.00    +0.000 A 
ATOM     10  C   UNL     1       3.863   4.722  17.994  0.00  0.00    +0.000 A 
ATOM     11  C   UNL     1       2.934   5.141  19.020  0.00  0.00    +0.000 A 
ATOM     12  O   UNL     1       3.093   6.184  19.650  0.00  0.00    +0.000 OA
ATOM     13  C   UNL     1       5.705   6.584  17.999  0.00  0.00    +0.000 C 
ATOM     14  C   UNL     1       7.198   6.612  17.587  0.00  0.00    +0.000 C 
ATOM     15  C   UNL     1       8.059   5.679  18.457  0.00  0.00    +0.000 C 
ATOM     16  C   UNL     1       7.721   8.045  17.753  0.00  0.00    +0.000 C 
ATOM     17  O   UNL     1       7.324   6.279  16.184  0.00  0.00    +0.000 OA
ATOM     18  C   UNL     1       6.925   4.940  15.816  0.00  0.00    +0.000 C 
ATOM     19  H   UNL     1       2.453   1.870  17.055  0.00  0.00    +0.000 HD
ENDROOT
TORSDOF 0
ENDMDL
MODEL 4
REMARK VINA RESULT:      -7.0      2.441      5.963
REMARK  Name = 
REMARK  3 active torsions:
REMARK  status: ('A' for Active; 'I' for Inactive)
REMARK    1  A    between atoms: C_1  and  N_2
REMARK    2  A    between atoms: C_14  and  C_15
REMARK    3  A    between atoms: C_14  and  C_16
REMARK                            x       y       z     vdW  Elec       q    Type
REMARK                         _______ _______ _______ _____ _____    ______ ____
ROOT
ATOM      1  C   UNL     1       7.931   6.366  18.494  0.00  0.00    +0.000 C 
ATOM      2  N   UNL     1       6.814   5.635  17.932  0.00  0.00    +0.000 N 
ATOM      3  C   UNL     1       6.678   5.572  16.545  0.00  0.00    +0.000 A 
ATOM      4  O   UNL     1       7.450   6.114  15.754  0.00  0.00    +0.000 OA
ATOM      5  N   UNL     1       5.610   4.860  16.049  0.00  0.00    +0.000 N 
ATOM      6  C   UNL     1       4.743   4.263  16.907  0.00  0.00    +0.000 A 
ATOM      7  S   UNL     1       3.436   3.386  16.320  0.00  0.00    +0.000 S 
ATOM      8  C   UNL     1       2.929   3.041  17.918  0.00  0.00    +0.000 A 
ATOM      9  C   UNL     1       3.759   3.619  18.866  0.00  0.00    +0.000 A 
ATOM     10  C   UNL     1       4.842   4.320  18.265  0.00  0.00    +0.000 A 
ATOM     11  C   UNL     1       5.944   5.046  18.857  0.00  0.00    +0.000 A 
ATOM     12  O   UNL     1       6.085   5.129  20.075  0.00  0.00    +0.000 OA
ATOM     13  C   UNL     1       3.463   3.463  20.320  0.00  0.00    +0.000 C 
ATOM     14  C   UNL     1       1.976   3.076  20.523  0.00  0.00    +0.000 C 
ATOM     15  C   UNL     1       1.031   4.272  20.316  0.00  0.00    +0.000 C 
ATOM     16  C   UNL     1       1.801   2.565  21.959  0.00  0.00    +0.000 C 
ATOM     17  O   UNL     1       1.632   1.980  19.643  0.00  0.00    +0.000 OA
ATOM     18  C   UNL     1       1.688   2.267  18.228  0.00  0.00    +0.000 C 
ATOM     19  H   UNL     1       5.487   4.798  15.046  0.00  0.00    +0.000 HD
ENDROOT
TORSDOF 0
ENDMDL
MODEL 5
REMARK VINA RESULT:      -7.0      3.593      4.057
REMARK  Name = 
REMARK  3 active torsions:
REMARK  status: ('A' for Active; 'I' for Inactive)
REMARK    1  A    between atoms: C_1  and  N_2
REMARK    2  A    between atoms: C_14  and  C_15
REMARK    3  A    between atoms: C_14  and  C_16
REMARK                            x       y       z     vdW  Elec       q    Type
REMARK                         _______ _______ _______ _____ _____    ______ ____
ROOT
ATOM      1  C   UNL     1       1.008  10.186  19.049  0.00  0.00    +0.000 C 
ATOM      2  N   UNL     1       1.508   8.862  19.353  0.00  0.00    +0.000 N 
ATOM      3  C   UNL     1       1.169   8.276  20.574  0.00  0.00    +0.000 A 
ATOM      4  O   UNL     1       0.470   8.822  21.427  0.00  0.00    +0.000 OA
ATOM      5  N   UNL     1       1.656   7.013  20.823  0.00  0.00    +0.000 N 
ATOM      6  C   UNL     1       2.436   6.399  19.897  0.00  0.00    +0.000 A 
ATOM      7  S   UNL     1       3.036   4.855  20.181  0.00  0.00    +0.000 S 
ATOM      8  C   UNL     1       3.836   4.870  18.667  0.00  0.00    +0.000 A 
ATOM      9  C   UNL     1       3.642   6.061  17.986  0.00  0.00    +0.000 A 
ATOM     10  C   UNL     1       2.797   6.952  18.705  0.00  0.00    +0.000 A 
ATOM     11  C   UNL     1       2.316   8.275  18.373  0.00  0.00    +0.000 A 
ATOM     12  O   UNL     1       2.607   8.822  17.311  0.00  0.00    +0.000 OA
ATOM     13  C   UNL     1       4.290   6.282  16.660  0.00  0.00    +0.000 C 
ATOM     14  C   UNL     1       5.485   5.312  16.481  0.00  0.00    +0.000 C 
ATOM     15  C   UNL     1       6.710   5.739  17.308  0.00  0.00    +0.000 C 
ATOM     16  C   UNL     1       5.882   5.300  14.999  0.00  0.00    +0.000 C 
ATOM     17  O   UNL     1       5.075   3.965  16.815  0.00  0.00    +0.000 OA
ATOM     18  C   UNL     1       4.699   3.745  18.193  0.00  0.00    +0.000 C 
ATOM     19  H   UNL     1       1.425   6.564  21.700  0.00  0.00    +0.000 HD
ENDROOT
TORSDOF 0
ENDMDL
MODEL 6
REMARK VINA RESULT:      -6.6      2.819      5.694
REMARK  Name = 
REMARK  3 active torsions:
REMARK  status: ('A' for Active; 'I' for Inactive)
REMARK    1  A    between atoms: C_1  and  N_2
REMARK    2  A    between atoms: C_14  and  C_15
REMARK    3  A    between atoms: C_14  and  C_16
REMARK                            x       y       z     vdW  Elec       q    Type
REMARK                         _______ _______ _______ _____ _____    ______ ____
ROOT
ATOM      1  C   UNL     1       6.664   4.003  12.455  0.00  0.00    +0.000 C 
ATOM      2  N   UNL     1       6.629   4.532  13.803  0.00  0.00    +0.000 N 
ATOM      3  C   UNL     1       7.669   5.358  14.231  0.00  0.00    +0.000 A 
ATOM      4  O   UNL     1       8.635   5.664  13.532  0.00  0.00    +0.000 OA
ATOM      5  N   UNL     1       7.596   5.849  15.514  0.00  0.00    +0.000 N 
ATOM      6  C   UNL     1       6.542   5.515  16.302  0.00  0.00    +0.000 A 
ATOM      7  S   UNL     1       6.433   6.108  17.871  0.00  0.00    +0.000 S 
ATOM      8  C   UNL     1       4.965   5.260  18.106  0.00  0.00    +0.000 A 
ATOM      9  C   UNL     1       4.599   4.527  16.989  0.00  0.00    +0.000 A 
ATOM     10  C   UNL     1       5.521   4.698  15.918  0.00  0.00    +0.000 A 
ATOM     11  C   UNL     1       5.529   4.151  14.579  0.00  0.00    +0.000 A 
ATOM     12  O   UNL     1       4.633   3.412  14.177  0.00  0.00    +0.000 OA
ATOM     13  C   UNL     1       3.365   3.689  17.010  0.00  0.00    +0.000 C 
ATOM     14  C   UNL     1       2.945   3.394  18.472  0.00  0.00    +0.000 C 
ATOM     15  C   UNL     1       3.844   2.335  19.133  0.00  0.00    +0.000 C 
ATOM     16  C   UNL     1       1.503   2.868  18.465  0.00  0.00    +0.000 C 
ATOM     17  O   UNL     1       2.939   4.623  19.236  0.00  0.00    +0.000 OA
ATOM     18  C   UNL     1       4.222   5.266  19.405  0.00  0.00    +0.000 C 
ATOM     19  H   UNL     1       8.336   6.451  15.851  0.00  0.00    +0.000 HD
ENDROOT
TORSDOF 0
ENDMDL
MODEL 7
REMARK VINA RESULT:      -6.2      4.720      6.531
REMARK  Name = 
REMARK  3 active torsions:
REMARK  status: ('A' for Active; 'I' for Inactive)
REMARK    1  A    between atoms: C_1  and  N_2
REMARK    2  A    between atoms: C_14  and  C_15
REMARK    3  A    between atoms: C_14  and  C_16
REMARK                            x       y       z     vdW  Elec       q    Type
REMARK                         _______ _______ _______ _____ _____    ______ ____
ROOT
ATOM      1  C   UNL     1      -0.152  10.907  21.443  0.00  0.00    +0.000 C 
ATOM      2  N   UNL     1       0.621  10.118  20.505  0.00  0.00    +0.000 N 
ATOM      3  C   UNL     1       1.033  10.706  19.308  0.00  0.00    +0.000 A 
ATOM      4  O   UNL     1       0.771  11.865  18.987  0.00  0.00    +0.000 OA
ATOM      5  N   UNL     1       1.773   9.929  18.448  0.00  0.00    +0.000 N 
ATOM      6  C   UNL     1       2.064   8.645  18.783  0.00  0.00    +0.000 A 
ATOM      7  S   UNL     1       2.971   7.682  17.746  0.00  0.00    +0.000 S 
ATOM      8  C   UNL     1       2.852   6.369  18.838  0.00  0.00    +0.000 A 
ATOM      9  C   UNL     1       2.107   6.688  19.961  0.00  0.00    +0.000 A 
ATOM     10  C   UNL     1       1.663   8.040  19.936  0.00  0.00    +0.000 A 
ATOM     11  C   UNL     1       0.886   8.799  20.891  0.00  0.00    +0.000 A 
ATOM     12  O   UNL     1       0.499   8.307  21.948  0.00  0.00    +0.000 OA
ATOM     13  C   UNL     1       1.857   5.662  21.015  0.00  0.00    +0.000 C 
ATOM     14  C   UNL     1       2.074   4.240  20.438  0.00  0.00    +0.000 C 
ATOM     15  C   UNL     1       0.911   3.797  19.534  0.00  0.00    +0.000 C 
ATOM     16  C   UNL     1       2.180   3.253  21.608  0.00  0.00    +0.000 C 
ATOM     17  O   UNL     1       3.334   4.187  19.729  0.00  0.00    +0.000 OA
ATOM     18  C   UNL     1       3.430   5.019  18.552  0.00  0.00    +0.000 C 
ATOM     19  H   UNL     1       2.086  10.329  17.573  0.00  0.00    +0.000 HD
ENDROOT
TORSDOF 0
ENDMDL
MODEL 8
REMARK VINA RESULT:      -6.2      6.456      7.761
REMARK  Name = 
REMARK  3 active torsions:
REMARK  status: ('A' for Active; 'I' for Inactive)
REMARK    1  A    between atoms: C_1  and  N_2
REMARK    2  A    between atoms: C_14  and  C_15
REMARK    3  A    between atoms: C_14  and  C_16
REMARK                            x       y       z     vdW  Elec       q    Type
REMARK                         _______ _______ _______ _____ _____    ______ ____
ROOT
ATOM      1  C   UNL     1       3.447   6.403  17.580  0.00  0.00    +0.000 C 
ATOM      2  N   UNL     1       2.730   6.999  18.688  0.00  0.00    +0.000 N 
ATOM      3  C   UNL     1       2.607   6.279  19.878  0.00  0.00    +0.000 A 
ATOM      4  O   UNL     1       3.066   5.150  20.047  0.00  0.00    +0.000 OA
ATOM      5  N   UNL     1       1.927   6.882  20.911  0.00  0.00    +0.000 N 
ATOM      6  C   UNL     1       1.407   8.125  20.738  0.00  0.00    +0.000 A 
ATOM      7  S   UNL     1       0.577   8.879  21.990  0.00  0.00    +0.000 S 
ATOM      8  C   UNL     1       0.292  10.246  20.998  0.00  0.00    +0.000 A 
ATOM      9  C   UNL     1       0.820  10.088  19.727  0.00  0.00    +0.000 A 
ATOM     10  C   UNL     1       1.497   8.845  19.585  0.00  0.00    +0.000 A 
ATOM     11  C   UNL     1       2.204   8.276  18.459  0.00  0.00    +0.000 A 
ATOM     12  O   UNL     1       2.320   8.880  17.395  0.00  0.00    +0.000 OA
ATOM     13  C   UNL     1       0.644  11.158  18.702  0.00  0.00    +0.000 C 
ATOM     14  C   UNL     1      -0.539  12.080  19.091  0.00  0.00    +0.000 C 
ATOM     15  C   UNL     1      -1.903  11.415  18.835  0.00  0.00    +0.000 C 
ATOM     16  C   UNL     1      -0.458  13.357  18.244  0.00  0.00    +0.000 C 
ATOM     17  O   UNL     1      -0.408  12.486  20.474  0.00  0.00    +0.000 OA
ATOM     18  C   UNL     1      -0.504  11.427  21.453  0.00  0.00    +0.000 C 
ATOM     19  H   UNL     1       1.822   6.384  21.785  0.00  0.00    +0.000 HD
ENDROOT
TORSDOF 0
ENDMDL
MODEL 9
REMARK VINA RESULT:      -6.1      3.789      5.068
REMARK  Name = 
REMARK  3 active torsions:
REMARK  status: ('A' for Active; 'I' for Inactive)
REMARK    1  A    between atoms: C_1  and  N_2
REMARK    2  A    between atoms: C_14  and  C_15
REMARK    3  A    between atoms: C_14  and  C_16
REMARK                            x       y       z     vdW  Elec       q    Type
REMARK                         _______ _______ _______ _____ _____    ______ ____
ROOT
ATOM      1  C   UNL     1       0.355   9.230  20.639  0.00  0.00    +0.000 C 
ATOM      2  N   UNL     1       1.322   8.681  19.711  0.00  0.00    +0.000 N 
ATOM      3  C   UNL     1       1.665   9.419  18.577  0.00  0.00    +0.000 A 
ATOM      4  O   UNL     1       1.185  10.519  18.303  0.00  0.00    +0.000 OA
ATOM      5  N   UNL     1       2.593   8.868  17.725  0.00  0.00    +0.000 N 
ATOM      6  C   UNL     1       3.126   7.651  18.007  0.00  0.00    +0.000 A 
ATOM      7  S   UNL     1       4.266   6.965  16.980  0.00  0.00    +0.000 S 
ATOM      8  C   UNL     1       4.365   5.584  17.988  0.00  0.00    +0.000 A 
ATOM      9  C   UNL     1       3.512   5.669  19.076  0.00  0.00    +0.000 A 
ATOM     10  C   UNL     1       2.800   6.901  19.097  0.00  0.00    +0.000 A 
ATOM     11  C   UNL     1       1.835   7.421  20.040  0.00  0.00    +0.000 A 
ATOM     12  O   UNL     1       1.504   6.790  21.042  0.00  0.00    +0.000 OA
ATOM     13  C   UNL     1       3.427   4.545  20.054  0.00  0.00    +0.000 C 
ATOM     14  C   UNL     1       3.963   3.239  19.415  0.00  0.00    +0.000 C 
ATOM     15  C   UNL     1       2.965   2.630  18.415  0.00  0.00    +0.000 C 
ATOM     16  C   UNL     1       4.211   2.219  20.534  0.00  0.00    +0.000 C 
ATOM     17  O   UNL     1       5.242   3.492  18.788  0.00  0.00    +0.000 OA
ATOM     18  C   UNL     1       5.225   4.403  17.666  0.00  0.00    +0.000 C 
ATOM     19  H   UNL     1       2.861   9.381  16.895  0.00  0.00    +0.000 HD
ENDROOT
TORSDOF 0
ENDMDL
