MODEL 1
REMARK VINA RESULT:      -8.0      0.000      0.000
REMARK  Name = 
REMARK  9 active torsions:
REMARK  status: ('A' for Active; 'I' for Inactive)
REMARK    1  A    between atoms: C_1  and  C_2
REMARK    2  A    between atoms: C_2  and  C_3
REMARK    3  A    between atoms: C_4  and  N_5
REMARK    4  A    between atoms: C_7  and  C_8
REMARK    5  A    between atoms: C_9  and  C_10
REMARK    6  A    between atoms: C_10  and  C_12
REMARK    7  A    between atoms: C_12  and  C_13
REMARK    8  A    between atoms: C_13  and  C_15
REMARK    9  A    between atoms: C_15  and  O_17
REMARK                            x       y       z     vdW  Elec       q    Type
REMARK                         _______ _______ _______ _____ _____    ______ ____
ROOT
ATOM      1  N   UNL     1       2.561   6.565  19.014  0.00  0.00    +0.000 N 
ATOM      2  C   UNL     1       3.553   6.535  18.049  0.00  0.00    +0.000 A 
ATOM      3  C   UNL     1       3.873   5.235  17.743  0.00  0.00    +0.000 A 
ATOM      4  C   UNL     1       3.029   4.402  18.532  0.00  0.00    +0.000 A 
ATOM      5  C   UNL     1       2.876   3.003  18.662  0.00  0.00    +0.000 A 
ATOM      6  C   UNL     1       1.896   2.485  19.510  0.00  0.00    +0.000 A 
ATOM      7  C   UNL     1       1.064   3.338  20.234  0.00  0.00    +0.000 A 
ATOM      8  C   UNL     1       1.212   4.723  20.144  0.00  0.00    +0.000 A 
ATOM      9  C   UNL     1       2.213   5.243  19.300  0.00  0.00    +0.000 A 
ENDROOT
BRANCH   1  13
ATOM     10  C   UNL     1       1.199   9.999  19.998  0.00  0.00    +0.000 C 
ATOM     11  C   UNL     1       1.527   8.824  19.114  0.00  0.00    +0.000 C 
ATOM     12  C   UNL     1       1.111   8.952  17.673  0.00  0.00    +0.000 C 
ATOM     13  C   UNL     1       2.059   7.708  19.659  0.00  0.00    +0.000 C 
ENDBRANCH   1  13
BRANCH   3  14
ATOM     14  C   UNL     1       4.872   4.814  16.810  0.00  0.00    +0.000 C 
ATOM     15  C   UNL     1       5.479   5.600  15.907  0.00  0.00    +0.000 C 
BRANCH  15  16
ATOM     16  C   UNL     1       6.504   5.035  14.986  0.00  0.00    +0.000 C 
ATOM     17  O   UNL     1       7.555   5.635  14.761  0.00  0.00    +0.000 OA
BRANCH  16  18
ATOM     18  C   UNL     1       6.176   3.754  14.270  0.00  0.00    +0.000 C 
BRANCH  18  19
ATOM     19  C   UNL     1       6.390   3.781  12.787  0.00  0.00    +0.000 C 
ATOM     20  O   UNL     1       7.284   4.366  12.185  0.00  0.00    +0.000 OA
BRANCH  19  21
ATOM     21  C   UNL     1       5.404   2.971  11.956  0.00  0.00    +0.000 C 
ATOM     22  O   UNL     1       4.332   3.407  11.590  0.00  0.00    +0.000 OA
BRANCH  21  23
ATOM     23  O   UNL     1       5.879   1.735  11.725  0.00  0.00    +0.000 OA
ATOM     24  H   UNL     1       6.848   1.713  11.902  0.00  0.00    +0.000 HD
ENDBRANCH  21  23
ENDBRANCH  19  21
ENDBRANCH  18  19
ENDBRANCH  16  18
ENDBRANCH  15  16
ENDBRANCH   3  14
TORSDOF 7
ENDMDL
MODEL 2
REMARK VINA RESULT:      -7.8      1.874      3.496
REMARK  Name = 
REMARK  9 active torsions:
REMARK  status: ('A' for Active; 'I' for Inactive)
REMARK    1  A    between atoms: C_1  and  C_2
REMARK    2  A    between atoms: C_2  and  C_3
REMARK    3  A    between atoms: C_4  and  N_5
REMARK    4  A    between atoms: C_7  and  C_8
REMARK    5  A    between atoms: C_9  and  C_10
REMARK    6  A    between atoms: C_10  and  C_12
REMARK    7  A    between atoms: C_12  and  C_13
REMARK    8  A    between atoms: C_13  and  C_15
REMARK    9  A    between atoms: C_15  and  O_17
REMARK                            x       y       z     vdW  Elec       q    Type
REMARK                         _______ _______ _______ _____ _____    ______ ____
ROOT
ATOM      1  N   UNL     1       2.079   6.344  19.920  0.00  0.00    +0.000 N 
ATOM      2  C   UNL     1       2.982   6.711  18.937  0.00  0.00    +0.000 A 
ATOM      3  C   UNL     1       3.294   5.625  18.156  0.00  0.00    +0.000 A 
ATOM      4  C   UNL     1       2.537   4.525  18.649  0.00  0.00    +0.000 A 
ATOM      5  C   UNL     1       2.417   3.168  18.273  0.00  0.00    +0.000 A 
ATOM      6  C   UNL     1       1.525   2.334  18.948  0.00  0.00    +0.000 A 
ATOM      7  C   UNL     1       0.747   2.828  19.993  0.00  0.00    +0.000 A 
ATOM      8  C   UNL     1       0.865   4.157  20.402  0.00  0.00    +0.000 A 
ATOM      9  C   UNL     1       1.779   4.994  19.731  0.00  0.00    +0.000 A 
ENDROOT
BRANCH   1  13
ATOM     10  C   UNL     1       0.938   9.163  22.237  0.00  0.00    +0.000 C 
ATOM     11  C   UNL     1       1.248   8.450  20.946  0.00  0.00    +0.000 C 
ATOM     12  C   UNL     1       0.995   9.236  19.687  0.00  0.00    +0.000 C 
ATOM     13  C   UNL     1       1.618   7.152  20.973  0.00  0.00    +0.000 C 
ENDBRANCH   1  13
BRANCH   3  14
ATOM     14  C   UNL     1       4.213   5.617  17.059  0.00  0.00    +0.000 C 
ATOM     15  C   UNL     1       4.876   4.543  16.602  0.00  0.00    +0.000 C 
BRANCH  15  16
ATOM     16  C   UNL     1       5.812   4.672  15.450  0.00  0.00    +0.000 C 
ATOM     17  O   UNL     1       5.441   4.432  14.301  0.00  0.00    +0.000 OA
BRANCH  16  18
ATOM     18  C   UNL     1       7.246   5.015  15.745  0.00  0.00    +0.000 C 
BRANCH  18  19
ATOM     19  C   UNL     1       7.568   5.212  17.195  0.00  0.00    +0.000 C 
ATOM     20  O   UNL     1       7.826   4.337  18.016  0.00  0.00    +0.000 OA
BRANCH  19  21
ATOM     21  C   UNL     1       7.599   6.654  17.682  0.00  0.00    +0.000 C 
ATOM     22  O   UNL     1       7.153   7.580  17.037  0.00  0.00    +0.000 OA
BRANCH  21  23
ATOM     23  O   UNL     1       8.204   6.740  18.880  0.00  0.00    +0.000 OA
ATOM     24  H   UNL     1       8.941   7.392  18.834  0.00  0.00    +0.000 HD
ENDBRANCH  21  23
ENDBRANCH  19  21
ENDBRANCH  18  19
ENDBRANCH  16  18
ENDBRANCH  15  16
ENDBRANCH   3  14
TORSDOF 7
ENDMDL
MODEL 3
REMARK VINA RESULT:      -7.7      4.635      7.902
REMARK  Name = 
REMARK  9 active torsions:
REMARK  status: ('A' for Active; 'I' for Inactive)
REMARK    1  A    between atoms: C_1  and  C_2
REMARK    2  A    between atoms: C_2  and  C_3
REMARK    3  A    between atoms: C_4  and  N_5
REMARK    4  A    between atoms: C_7  and  C_8
REMARK    5  A    between atoms: C_9  and  C_10
REMARK    6  A    between atoms: C_10  and  C_12
REMARK    7  A    between atoms: C_12  and  C_13
REMARK    8  A    between atoms: C_13  and  C_15
REMARK    9  A    between atoms: C_15  and  O_17
REMARK                            x       y       z     vdW  Elec       q    Type
REMARK                         _______ _______ _______ _____ _____    ______ ____
ROOT
ATOM      1  N   UNL     1       3.794   4.979  17.453  0.00  0.00    +0.000 N 
ATOM      2  C   UNL     1       3.582   6.337  17.618  0.00  0.00    +0.000 A 
ATOM      3  C   UNL     1       2.683   6.552  18.635  0.00  0.00    +0.000 A 
ATOM      4  C   UNL     1       2.328   5.275  19.155  0.00  0.00    +0.000 A 
ATOM      5  C   UNL     1       1.470   4.841  20.191  0.00  0.00    +0.000 A 
ATOM      6  C   UNL     1       1.377   3.482  20.494  0.00  0.00    +0.000 A 
ATOM      7  C   UNL     1       2.124   2.545  19.783  0.00  0.00    +0.000 A 
ATOM      8  C   UNL     1       2.958   2.945  18.738  0.00  0.00    +0.000 A 
ATOM      9  C   UNL     1       3.039   4.315  18.422  0.00  0.00    +0.000 A 
ENDROOT
BRANCH   1  13
ATOM     10  C   UNL     1       6.485   3.792  15.011  0.00  0.00    +0.000 C 
ATOM     11  C   UNL     1       5.894   4.380  16.267  0.00  0.00    +0.000 C 
ATOM     12  C   UNL     1       6.885   4.833  17.306  0.00  0.00    +0.000 C 
ATOM     13  C   UNL     1       4.556   4.371  16.441  0.00  0.00    +0.000 C 
ENDBRANCH   1  13
BRANCH   3  14
ATOM     14  C   UNL     1       2.201   7.826  19.073  0.00  0.00    +0.000 C 
ATOM     15  C   UNL     1       1.646   8.764  18.288  0.00  0.00    +0.000 C 
BRANCH  15  16
ATOM     16  C   UNL     1       1.187  10.056  18.871  0.00  0.00    +0.000 C 
ATOM     17  O   UNL     1       1.699  11.122  18.531  0.00  0.00    +0.000 OA
BRANCH  16  18
ATOM     18  C   UNL     1       0.144  10.008  19.953  0.00  0.00    +0.000 C 
BRANCH  18  19
ATOM     19  C   UNL     1       0.586  10.529  21.286  0.00  0.00    +0.000 C 
ATOM     20  O   UNL     1       0.845  11.694  21.571  0.00  0.00    +0.000 OA
BRANCH  19  21
ATOM     21  C   UNL     1       0.696   9.499  22.402  0.00  0.00    +0.000 C 
ATOM     22  O   UNL     1      -0.117   9.404  23.298  0.00  0.00    +0.000 OA
BRANCH  21  23
ATOM     23  O   UNL     1       1.810   8.759  22.259  0.00  0.00    +0.000 OA
ATOM     24  H   UNL     1       2.577   9.235  22.652  0.00  0.00    +0.000 HD
ENDBRANCH  21  23
ENDBRANCH  19  21
ENDBRANCH  18  19
ENDBRANCH  16  18
ENDBRANCH  15  16
ENDBRANCH   3  14
TORSDOF 7
ENDMDL
MODEL 4
REMARK VINA RESULT:      -7.7      1.139      1.498
REMARK  Name = 
REMARK  9 active torsions:
REMARK  status: ('A' for Active; 'I' for Inactive)
REMARK    1  A    between atoms: C_1  and  C_2
REMARK    2  A    between atoms: C_2  and  C_3
REMARK    3  A    between atoms: C_4  and  N_5
REMARK    4  A    between atoms: C_7  and  C_8
REMARK    5  A    between atoms: C_9  and  C_10
REMARK    6  A    between atoms: C_10  and  C_12
REMARK    7  A    between atoms: C_12  and  C_13
REMARK    8  A    between atoms: C_13  and  C_15
REMARK    9  A    between atoms: C_15  and  O_17
REMARK                            x       y       z     vdW  Elec       q    Type
REMARK                         _______ _______ _______ _____ _____    ______ ____
ROOT
ATOM      1  N   UNL     1       2.255   6.147  19.881  0.00  0.00    +0.000 N 
ATOM      2  C   UNL     1       3.291   6.419  19.004  0.00  0.00    +0.000 A 
ATOM      3  C   UNL     1       3.603   5.293  18.281  0.00  0.00    +0.000 A 
ATOM      4  C   UNL     1       2.708   4.268  18.700  0.00  0.00    +0.000 A 
ATOM      5  C   UNL     1       2.524   2.915  18.333  0.00  0.00    +0.000 A 
ATOM      6  C   UNL     1       1.495   2.170  18.911  0.00  0.00    +0.000 A 
ATOM      7  C   UNL     1       0.645   2.749  19.851  0.00  0.00    +0.000 A 
ATOM      8  C   UNL     1       0.821   4.074  20.251  0.00  0.00    +0.000 A 
ATOM      9  C   UNL     1       1.870   4.820  19.678  0.00  0.00    +0.000 A 
ENDROOT
BRANCH   1  13
ATOM     10  C   UNL     1       1.025   9.097  21.978  0.00  0.00    +0.000 C 
ATOM     11  C   UNL     1       1.406   8.317  20.746  0.00  0.00    +0.000 C 
ATOM     12  C   UNL     1       1.259   9.047  19.438  0.00  0.00    +0.000 C 
ATOM     13  C   UNL     1       1.742   7.014  20.860  0.00  0.00    +0.000 C 
ENDBRANCH   1  13
BRANCH   3  14
ATOM     14  C   UNL     1       4.639   5.187  17.300  0.00  0.00    +0.000 C 
ATOM     15  C   UNL     1       5.636   4.287  17.309  0.00  0.00    +0.000 C 
BRANCH  15  16
ATOM     16  C   UNL     1       6.658   4.287  16.226  0.00  0.00    +0.000 C 
ATOM     17  O   UNL     1       7.839   4.535  16.467  0.00  0.00    +0.000 OA
BRANCH  16  18
ATOM     18  C   UNL     1       6.186   4.064  14.815  0.00  0.00    +0.000 C 
BRANCH  18  19
ATOM     19  C   UNL     1       7.056   4.661  13.751  0.00  0.00    +0.000 C 
ATOM     20  O   UNL     1       7.837   5.599  13.882  0.00  0.00    +0.000 OA
BRANCH  19  21
ATOM     21  C   UNL     1       6.973   4.011  12.378  0.00  0.00    +0.000 C 
ATOM     22  O   UNL     1       7.310   4.574  11.357  0.00  0.00    +0.000 OA
BRANCH  21  23
ATOM     23  O   UNL     1       6.458   2.772  12.468  0.00  0.00    +0.000 OA
ATOM     24  H   UNL     1       6.189   2.458  11.573  0.00  0.00    +0.000 HD
ENDBRANCH  21  23
ENDBRANCH  19  21
ENDBRANCH  18  19
ENDBRANCH  16  18
ENDBRANCH  15  16
ENDBRANCH   3  14
TORSDOF 7
ENDMDL
MODEL 5
REMARK VINA RESULT:      -7.6      1.571      1.993
REMARK  Name = 
REMARK  9 active torsions:
REMARK  status: ('A' for Active; 'I' for Inactive)
REMARK    1  A    between atoms: C_1  and  C_2
REMARK    2  A    between atoms: C_2  and  C_3
REMARK    3  A    between atoms: C_4  and  N_5
REMARK    4  A    between atoms: C_7  and  C_8
REMARK    5  A    between atoms: C_9  and  C_10
REMARK    6  A    between atoms: C_10  and  C_12
REMARK    7  A    between atoms: C_12  and  C_13
REMARK    8  A    between atoms: C_13  and  C_15
REMARK    9  A    between atoms: C_15  and  O_17
REMARK                            x       y       z     vdW  Elec       q    Type
REMARK                         _______ _______ _______ _____ _____    ______ ____
ROOT
ATOM      1  N   UNL     1       2.172   6.164  20.145  0.00  0.00    +0.000 N 
ATOM      2  C   UNL     1       3.381   6.531  19.579  0.00  0.00    +0.000 A 
ATOM      3  C   UNL     1       3.947   5.455  18.939  0.00  0.00    +0.000 A 
ATOM      4  C   UNL     1       3.046   4.363  19.084  0.00  0.00    +0.000 A 
ATOM      5  C   UNL     1       3.056   3.017  18.651  0.00  0.00    +0.000 A 
ATOM      6  C   UNL     1       1.966   2.190  18.920  0.00  0.00    +0.000 A 
ATOM      7  C   UNL     1       0.862   2.679  19.616  0.00  0.00    +0.000 A 
ATOM      8  C   UNL     1       0.837   3.996  20.078  0.00  0.00    +0.000 A 
ATOM      9  C   UNL     1       1.946   4.825  19.819  0.00  0.00    +0.000 A 
ENDROOT
BRANCH   1  13
ATOM     10  C   UNL     1       0.294   8.958  21.956  0.00  0.00    +0.000 C 
ATOM     11  C   UNL     1       1.054   8.268  20.853  0.00  0.00    +0.000 C 
ATOM     12  C   UNL     1       1.308   9.091  19.618  0.00  0.00    +0.000 C 
ATOM     13  C   UNL     1       1.363   6.959  20.974  0.00  0.00    +0.000 C 
ENDBRANCH   1  13
BRANCH   3  14
ATOM     14  C   UNL     1       5.208   5.450  18.263  0.00  0.00    +0.000 C 
ATOM     15  C   UNL     1       5.754   6.493  17.618  0.00  0.00    +0.000 C 
BRANCH  15  16
ATOM     16  C   UNL     1       7.078   6.354  16.949  0.00  0.00    +0.000 C 
ATOM     17  O   UNL     1       7.817   7.326  16.798  0.00  0.00    +0.000 OA
BRANCH  16  18
ATOM     18  C   UNL     1       7.441   5.009  16.383  0.00  0.00    +0.000 C 
BRANCH  18  19
ATOM     19  C   UNL     1       7.167   4.839  14.920  0.00  0.00    +0.000 C 
ATOM     20  O   UNL     1       7.748   5.395  13.994  0.00  0.00    +0.000 OA
BRANCH  19  21
ATOM     21  C   UNL     1       6.067   3.850  14.558  0.00  0.00    +0.000 C 
ATOM     22  O   UNL     1       5.445   3.904  13.518  0.00  0.00    +0.000 OA
BRANCH  21  23
ATOM     23  O   UNL     1       5.883   2.959  15.548  0.00  0.00    +0.000 OA
ATOM     24  H   UNL     1       6.240   2.082  15.276  0.00  0.00    +0.000 HD
ENDBRANCH  21  23
ENDBRANCH  19  21
ENDBRANCH  18  19
ENDBRANCH  16  18
ENDBRANCH  15  16
ENDBRANCH   3  14
TORSDOF 7
ENDMDL
MODEL 6
REMARK VINA RESULT:      -7.6      4.786      8.019
REMARK  Name = 
REMARK  9 active torsions:
REMARK  status: ('A' for Active; 'I' for Inactive)
REMARK    1  A    between atoms: C_1  and  C_2
REMARK    2  A    between atoms: C_2  and  C_3
REMARK    3  A    between atoms: C_4  and  N_5
REMARK    4  A    between atoms: C_7  and  C_8
REMARK    5  A    between atoms: C_9  and  C_10
REMARK    6  A    between atoms: C_10  and  C_12
REMARK    7  A    between atoms: C_12  and  C_13
REMARK    8  A    between atoms: C_13  and  C_15
REMARK    9  A    between atoms: C_15  and  O_17
REMARK                            x       y       z     vdW  Elec       q    Type
REMARK                         _______ _______ _______ _____ _____    ______ ____
ROOT
ATOM      1  N   UNL     1       3.855   5.258  17.403  0.00  0.00    +0.000 N 
ATOM      2  C   UNL     1       3.668   6.608  17.647  0.00  0.00    +0.000 A 
ATOM      3  C   UNL     1       2.773   6.780  18.675  0.00  0.00    +0.000 A 
ATOM      4  C   UNL     1       2.393   5.482  19.120  0.00  0.00    +0.000 A 
ATOM      5  C   UNL     1       1.526   5.005  20.129  0.00  0.00    +0.000 A 
ATOM      6  C   UNL     1       1.406   3.633  20.352  0.00  0.00    +0.000 A 
ATOM      7  C   UNL     1       2.135   2.725  19.587  0.00  0.00    +0.000 A 
ATOM      8  C   UNL     1       2.978   3.168  18.567  0.00  0.00    +0.000 A 
ATOM      9  C   UNL     1       3.086   4.553  18.331  0.00  0.00    +0.000 A 
ENDROOT
BRANCH   1  13
ATOM     10  C   UNL     1       6.544   4.058  14.966  0.00  0.00    +0.000 C 
ATOM     11  C   UNL     1       5.943   4.545  16.259  0.00  0.00    +0.000 C 
ATOM     12  C   UNL     1       6.904   4.714  17.405  0.00  0.00    +0.000 C 
ATOM     13  C   UNL     1       4.605   4.695  16.357  0.00  0.00    +0.000 C 
ENDBRANCH   1  13
BRANCH   3  14
ATOM     14  C   UNL     1       2.316   8.036  19.186  0.00  0.00    +0.000 C 
ATOM     15  C   UNL     1       1.177   8.655  18.836  0.00  0.00    +0.000 C 
BRANCH  15  16
ATOM     16  C   UNL     1       0.818   9.968  19.442  0.00  0.00    +0.000 C 
ATOM     17  O   UNL     1       1.486  10.976  19.215  0.00  0.00    +0.000 OA
BRANCH  16  18
ATOM     18  C   UNL     1      -0.332  10.003  20.411  0.00  0.00    +0.000 C 
BRANCH  18  19
ATOM     19  C   UNL     1      -0.242   9.022  21.540  0.00  0.00    +0.000 C 
ATOM     20  O   UNL     1      -0.754   7.909  21.588  0.00  0.00    +0.000 OA
BRANCH  19  21
ATOM     21  C   UNL     1       0.597   9.455  22.735  0.00  0.00    +0.000 C 
ATOM     22  O   UNL     1       0.125   9.993  23.715  0.00  0.00    +0.000 OA
BRANCH  21  23
ATOM     23  O   UNL     1       1.897   9.184  22.526  0.00  0.00    +0.000 OA
ATOM     24  H   UNL     1       2.142   9.421  21.602  0.00  0.00    +0.000 HD
ENDBRANCH  21  23
ENDBRANCH  19  21
ENDBRANCH  18  19
ENDBRANCH  16  18
ENDBRANCH  15  16
ENDBRANCH   3  14
TORSDOF 7
ENDMDL
MODEL 7
REMARK VINA RESULT:      -7.6      4.726      7.665
REMARK  Name = 
REMARK  9 active torsions:
REMARK  status: ('A' for Active; 'I' for Inactive)
REMARK    1  A    between atoms: C_1  and  C_2
REMARK    2  A    between atoms: C_2  and  C_3
REMARK    3  A    between atoms: C_4  and  N_5
REMARK    4  A    between atoms: C_7  and  C_8
REMARK    5  A    between atoms: C_9  and  C_10
REMARK    6  A    between atoms: C_10  and  C_12
REMARK    7  A    between atoms: C_12  and  C_13
REMARK    8  A    between atoms: C_13  and  C_15
REMARK    9  A    between atoms: C_15  and  O_17
REMARK                            x       y       z     vdW  Elec       q    Type
REMARK                         _______ _______ _______ _____ _____    ______ ____
ROOT
ATOM      1  N   UNL     1       3.690   5.034  17.744  0.00  0.00    +0.000 N 
ATOM      2  C   UNL     1       3.490   6.347  18.135  0.00  0.00    +0.000 A 
ATOM      3  C   UNL     1       2.549   6.403  19.135  0.00  0.00    +0.000 A 
ATOM      4  C   UNL     1       2.152   5.063  19.408  0.00  0.00    +0.000 A 
ATOM      5  C   UNL     1       1.241   4.476  20.315  0.00  0.00    +0.000 A 
ATOM      6  C   UNL     1       1.113   3.087  20.372  0.00  0.00    +0.000 A 
ATOM      7  C   UNL     1       1.877   2.271  19.541  0.00  0.00    +0.000 A 
ATOM      8  C   UNL     1       2.765   2.827  18.618  0.00  0.00    +0.000 A 
ATOM      9  C   UNL     1       2.881   4.229  18.549  0.00  0.00    +0.000 A 
ENDROOT
BRANCH   1  13
ATOM     10  C   UNL     1       6.480   4.180  15.276  0.00  0.00    +0.000 C 
ATOM     11  C   UNL     1       5.834   4.538  16.589  0.00  0.00    +0.000 C 
ATOM     12  C   UNL     1       6.768   4.690  17.759  0.00  0.00    +0.000 C 
ATOM     13  C   UNL     1       4.487   4.594  16.675  0.00  0.00    +0.000 C 
ENDBRANCH   1  13
BRANCH   3  14
ATOM     14  C   UNL     1       2.067   7.592  19.767  0.00  0.00    +0.000 C 
ATOM     15  C   UNL     1       1.491   7.656  20.978  0.00  0.00    +0.000 C 
BRANCH  15  16
ATOM     16  C   UNL     1       1.027   8.963  21.521  0.00  0.00    +0.000 C 
ATOM     17  O   UNL     1       1.581   9.480  22.490  0.00  0.00    +0.000 OA
BRANCH  16  18
ATOM     18  C   UNL     1      -0.197   9.585  20.906  0.00  0.00    +0.000 C 
BRANCH  18  19
ATOM     19  C   UNL     1       0.073  10.577  19.815  0.00  0.00    +0.000 C 
ATOM     20  O   UNL     1       1.073  11.276  19.690  0.00  0.00    +0.000 OA
BRANCH  19  21
ATOM     21  C   UNL     1      -1.001  10.698  18.743  0.00  0.00    +0.000 C 
ATOM     22  O   UNL     1      -2.076  11.224  18.941  0.00  0.00    +0.000 OA
BRANCH  21  23
ATOM     23  O   UNL     1      -0.595  10.126  17.596  0.00  0.00    +0.000 OA
ATOM     24  H   UNL     1       0.306   9.745  17.715  0.00  0.00    +0.000 HD
ENDBRANCH  21  23
ENDBRANCH  19  21
ENDBRANCH  18  19
ENDBRANCH  16  18
ENDBRANCH  15  16
ENDBRANCH   3  14
TORSDOF 7
ENDMDL
MODEL 8
REMARK VINA RESULT:      -7.6      4.659      7.836
REMARK  Name = 
REMARK  9 active torsions:
REMARK  status: ('A' for Active; 'I' for Inactive)
REMARK    1  A    between atoms: C_1  and  C_2
REMARK    2  A    between atoms: C_2  and  C_3
REMARK    3  A    between atoms: C_4  and  N_5
REMARK    4  A    between atoms: C_7  and  C_8
REMARK    5  A    between atoms: C_9  and  C_10
REMARK    6  A    between atoms: C_10  and  C_12
REMARK    7  A    between atoms: C_12  and  C_13
REMARK    8  A    between atoms: C_13  and  C_15
REMARK    9  A    between atoms: C_15  and  O_17
REMARK                            x       y       z     vdW  Elec       q    Type
REMARK                         _______ _______ _______ _____ _____    ______ ____
ROOT
ATOM      1  N   UNL     1       3.988   5.147  17.510  0.00  0.00    +0.000 N 
ATOM      2  C   UNL     1       3.590   6.472  17.486  0.00  0.00    +0.000 A 
ATOM      3  C   UNL     1       2.793   6.744  18.572  0.00  0.00    +0.000 A 
ATOM      4  C   UNL     1       2.702   5.544  19.332  0.00  0.00    +0.000 A 
ATOM      5  C   UNL     1       2.048   5.191  20.534  0.00  0.00    +0.000 A 
ATOM      6  C   UNL     1       2.202   3.907  21.060  0.00  0.00    +0.000 A 
ATOM      7  C   UNL     1       2.996   2.966  20.408  0.00  0.00    +0.000 A 
ATOM      8  C   UNL     1       3.631   3.280  19.206  0.00  0.00    +0.000 A 
ATOM      9  C   UNL     1       3.462   4.571  18.668  0.00  0.00    +0.000 A 
ENDROOT
BRANCH   1  13
ATOM     10  C   UNL     1       6.472   3.972  14.853  0.00  0.00    +0.000 C 
ATOM     11  C   UNL     1       5.956   4.725  16.051  0.00  0.00    +0.000 C 
ATOM     12  C   UNL     1       6.946   5.634  16.729  0.00  0.00    +0.000 C 
ATOM     13  C   UNL     1       4.711   4.475  16.510  0.00  0.00    +0.000 C 
ENDBRANCH   1  13
BRANCH   3  14
ATOM     14  C   UNL     1       2.175   8.000  18.865  0.00  0.00    +0.000 C 
ATOM     15  C   UNL     1       1.773   8.905  17.958  0.00  0.00    +0.000 C 
BRANCH  15  16
ATOM     16  C   UNL     1       1.144  10.182  18.397  0.00  0.00    +0.000 C 
ATOM     17  O   UNL     1       1.799  11.221  18.465  0.00  0.00    +0.000 OA
BRANCH  16  18
ATOM     18  C   UNL     1      -0.292  10.141  18.842  0.00  0.00    +0.000 C 
BRANCH  18  19
ATOM     19  C   UNL     1      -0.538  10.613  20.243  0.00  0.00    +0.000 C 
ATOM     20  O   UNL     1      -1.151  11.620  20.582  0.00  0.00    +0.000 OA
BRANCH  19  21
ATOM     21  C   UNL     1       0.014   9.728  21.352  0.00  0.00    +0.000 C 
ATOM     22  O   UNL     1      -0.353   8.585  21.531  0.00  0.00    +0.000 OA
BRANCH  21  23
ATOM     23  O   UNL     1       0.917  10.397  22.091  0.00  0.00    +0.000 OA
ATOM     24  H   UNL     1       1.593   9.770  22.437  0.00  0.00    +0.000 HD
ENDBRANCH  21  23
ENDBRANCH  19  21
ENDBRANCH  18  19
ENDBRANCH  16  18
ENDBRANCH  15  16
ENDBRANCH   3  14
TORSDOF 7
ENDMDL
MODEL 9
REMARK VINA RESULT:      -7.5      5.286      8.589
REMARK  Name = 
REMARK  9 active torsions:
REMARK  status: ('A' for Active; 'I' for Inactive)
REMARK    1  A    between atoms: C_1  and  C_2
REMARK    2  A    between atoms: C_2  and  C_3
REMARK    3  A    between atoms: C_4  and  N_5
REMARK    4  A    between atoms: C_7  and  C_8
REMARK    5  A    between atoms: C_9  and  C_10
REMARK    6  A    between atoms: C_10  and  C_12
REMARK    7  A    between atoms: C_12  and  C_13
REMARK    8  A    between atoms: C_13  and  C_15
REMARK    9  A    between atoms: C_15  and  O_17
REMARK                            x       y       z     vdW  Elec       q    Type
REMARK                         _______ _______ _______ _____ _____    ______ ____
ROOT
ATOM      1  N   UNL     1       3.731   5.096  18.122  0.00  0.00    +0.000 N 
ATOM      2  C   UNL     1       3.233   6.366  18.353  0.00  0.00    +0.000 A 
ATOM      3  C   UNL     1       2.533   6.390  19.535  0.00  0.00    +0.000 A 
ATOM      4  C   UNL     1       2.610   5.082  20.091  0.00  0.00    +0.000 A 
ATOM      5  C   UNL     1       2.110   4.486  21.271  0.00  0.00    +0.000 A 
ATOM      6  C   UNL     1       2.413   3.155  21.561  0.00  0.00    +0.000 A 
ATOM      7  C   UNL     1       3.205   2.404  20.696  0.00  0.00    +0.000 A 
ATOM      8  C   UNL     1       3.690   2.960  19.511  0.00  0.00    +0.000 A 
ATOM      9  C   UNL     1       3.370   4.299  19.211  0.00  0.00    +0.000 A 
ENDROOT
BRANCH   1  13
ATOM     10  C   UNL     1       6.220   4.211  15.359  0.00  0.00    +0.000 C 
ATOM     11  C   UNL     1       5.725   4.553  16.740  0.00  0.00    +0.000 C 
ATOM     12  C   UNL     1       6.778   4.633  17.812  0.00  0.00    +0.000 C 
ATOM     13  C   UNL     1       4.398   4.658  16.965  0.00  0.00    +0.000 C 
ENDBRANCH   1  13
BRANCH   3  14
ATOM     14  C   UNL     1       1.854   7.523  20.085  0.00  0.00    +0.000 C 
ATOM     15  C   UNL     1       1.588   8.667  19.435  0.00  0.00    +0.000 C 
BRANCH  15  16
ATOM     16  C   UNL     1       0.875   9.777  20.127  0.00  0.00    +0.000 C 
ATOM     17  O   UNL     1       1.220  10.947  19.970  0.00  0.00    +0.000 OA
BRANCH  16  18
ATOM     18  C   UNL     1      -0.219   9.415  21.093  0.00  0.00    +0.000 C 
BRANCH  18  19
ATOM     19  C   UNL     1      -0.106  10.045  22.448  0.00  0.00    +0.000 C 
ATOM     20  O   UNL     1       0.627   9.689  23.364  0.00  0.00    +0.000 OA
BRANCH  19  21
ATOM     21  C   UNL     1      -0.978  11.270  22.689  0.00  0.00    +0.000 C 
ATOM     22  O   UNL     1      -1.959  11.254  23.403  0.00  0.00    +0.000 OA
BRANCH  21  23
ATOM     23  O   UNL     1      -0.524  12.323  21.987  0.00  0.00    +0.000 OA
ATOM     24  H   UNL     1      -0.229  13.032  22.606  0.00  0.00    +0.000 HD
ENDBRANCH  21  23
ENDBRANCH  19  21
ENDBRANCH  18  19
ENDBRANCH  16  18
ENDBRANCH  15  16
ENDBRANCH   3  14
TORSDOF 7
ENDMDL
