MODEL 1
REMARK VINA RESULT:      -6.2      0.000      0.000
REMARK  Name = 
REMARK  6 active torsions:
REMARK  status: ('A' for Active; 'I' for Inactive)
REMARK    1  A    between atoms: N_1  and  S_2
REMARK    2  A    between atoms: S_2  and  C_5
REMARK    3  A    between atoms: C_8  and  S_9
REMARK    4  A    between atoms: S_9  and  C_10
REMARK    5  A    between atoms: C_10  and  C_11
REMARK    6  A    between atoms: C_11  and  O_12
REMARK                            x       y       z     vdW  Elec       q    Type
REMARK                         _______ _______ _______ _____ _____    ______ ____
ROOT
ATOM      1  C   UNL     1       5.101   4.543  16.621  0.00  0.00    +0.000 A 
ATOM      2  C   UNL     1       3.969   3.702  16.579  0.00  0.00    +0.000 A 
ATOM      3  C   UNL     1       3.419   3.110  17.748  0.00  0.00    +0.000 A 
ATOM      4  C   UNL     1       3.955   3.308  19.039  0.00  0.00    +0.000 A 
ATOM      5  C   UNL     1       5.097   4.146  19.089  0.00  0.00    +0.000 A 
ATOM      6  N   UNL     1       5.840   4.536  20.136  0.00  0.00    +0.000 NA
ATOM      7  O   UNL     1       6.831   5.351  19.625  0.00  0.00    +0.000 OA
ATOM      8  N   UNL     1       6.724   5.490  18.257  0.00  0.00    +0.000 NA
ATOM      9  C   UNL     1       5.665   4.755  17.889  0.00  0.00    +0.000 A 
ENDROOT
BRANCH   1  10
ATOM     10  S   UNL     1       5.757   5.289  15.186  0.00  0.00    +0.000 S 
ATOM     11  O   UNL     1       5.417   6.694  15.204  0.00  0.00    +0.000 OA
ATOM     12  O   UNL     1       5.473   4.448  14.051  0.00  0.00    +0.000 OA
BRANCH  10  13
ATOM     13  N   UNL     1       7.412   5.233  15.452  0.00  0.00    +0.000 NA
ATOM     14  H   UNL     1       7.916   5.625  14.656  0.00  0.00    +0.000 HD
ATOM     15  H   UNL     1       7.704   4.288  15.707  0.00  0.00    +0.000 HD
ENDBRANCH  10  13
ENDBRANCH   1  10
BRANCH   4  16
ATOM     16  S   UNL     1       3.249   2.679  20.527  0.00  0.00    +0.000 S 
BRANCH  16  17
ATOM     17  C   UNL     1       2.356   4.154  21.140  0.00  0.00    +0.000 C 
BRANCH  17  18
ATOM     18  C   UNL     1       1.028   4.300  20.398  0.00  0.00    +0.000 C 
BRANCH  18  19
ATOM     19  O   UNL     1       0.428   3.031  20.155  0.00  0.00    +0.000 OA
ATOM     20  H   UNL     1       0.818   2.699  19.324  0.00  0.00    +0.000 HD
ENDBRANCH  18  19
ENDBRANCH  17  18
ENDBRANCH  16  17
ENDBRANCH   4  16
TORSDOF 6
ENDMDL
MODEL 2
REMARK VINA RESULT:      -6.2      2.336      2.523
REMARK  Name = 
REMARK  6 active torsions:
REMARK  status: ('A' for Active; 'I' for Inactive)
REMARK    1  A    between atoms: N_1  and  S_2
REMARK    2  A    between atoms: S_2  and  C_5
REMARK    3  A    between atoms: C_8  and  S_9
REMARK    4  A    between atoms: S_9  and  C_10
REMARK    5  A    between atoms: C_10  and  C_11
REMARK    6  A    between atoms: C_11  and  O_12
REMARK                            x       y       z     vdW  Elec       q    Type
REMARK                         _______ _______ _______ _____ _____    ______ ____
ROOT
ATOM      1  C   UNL     1       5.302   4.891  16.944  0.00  0.00    +0.000 A 
ATOM      2  C   UNL     1       5.006   3.538  17.211  0.00  0.00    +0.000 A 
ATOM      3  C   UNL     1       3.793   3.134  17.830  0.00  0.00    +0.000 A 
ATOM      4  C   UNL     1       2.789   4.044  18.230  0.00  0.00    +0.000 A 
ATOM      5  C   UNL     1       3.082   5.406  17.971  0.00  0.00    +0.000 A 
ATOM      6  N   UNL     1       2.361   6.510  18.220  0.00  0.00    +0.000 NA
ATOM      7  O   UNL     1       3.113   7.574  17.766  0.00  0.00    +0.000 OA
ATOM      8  N   UNL     1       4.312   7.160  17.223  0.00  0.00    +0.000 NA
ATOM      9  C   UNL     1       4.330   5.824  17.336  0.00  0.00    +0.000 A 
ENDROOT
BRANCH   1  10
ATOM     10  S   UNL     1       6.782   5.380  16.159  0.00  0.00    +0.000 S 
ATOM     11  O   UNL     1       6.478   5.746  14.794  0.00  0.00    +0.000 OA
ATOM     12  O   UNL     1       7.818   4.432  16.484  0.00  0.00    +0.000 OA
BRANCH  10  13
ATOM     13  N   UNL     1       7.161   6.822  16.928  0.00  0.00    +0.000 NA
ATOM     14  H   UNL     1       8.117   6.798  17.284  0.00  0.00    +0.000 HD
ATOM     15  H   UNL     1       6.458   7.049  17.633  0.00  0.00    +0.000 HD
ENDBRANCH  10  13
ENDBRANCH   1  10
BRANCH   4  16
ATOM     16  S   UNL     1       1.228   3.583  18.907  0.00  0.00    +0.000 S 
BRANCH  16  17
ATOM     17  C   UNL     1       1.464   4.033  20.664  0.00  0.00    +0.000 C 
BRANCH  17  18
ATOM     18  C   UNL     1       1.481   2.769  21.524  0.00  0.00    +0.000 C 
BRANCH  18  19
ATOM     19  O   UNL     1       2.795   2.477  21.991  0.00  0.00    +0.000 OA
ATOM     20  H   UNL     1       2.853   2.848  22.892  0.00  0.00    +0.000 HD
ENDBRANCH  18  19
ENDBRANCH  17  18
ENDBRANCH  16  17
ENDBRANCH   4  16
TORSDOF 6
ENDMDL
MODEL 3
REMARK VINA RESULT:      -6.2      2.364      2.649
REMARK  Name = 
REMARK  6 active torsions:
REMARK  status: ('A' for Active; 'I' for Inactive)
REMARK    1  A    between atoms: N_1  and  S_2
REMARK    2  A    between atoms: S_2  and  C_5
REMARK    3  A    between atoms: C_8  and  S_9
REMARK    4  A    between atoms: S_9  and  C_10
REMARK    5  A    between atoms: C_10  and  C_11
REMARK    6  A    between atoms: C_11  and  O_12
REMARK                            x       y       z     vdW  Elec       q    Type
REMARK                         _______ _______ _______ _____ _____    ______ ____
ROOT
ATOM      1  C   UNL     1       5.561   5.203  17.617  0.00  0.00    +0.000 A 
ATOM      2  C   UNL     1       5.488   4.071  18.457  0.00  0.00    +0.000 A 
ATOM      3  C   UNL     1       4.435   3.887  19.393  0.00  0.00    +0.000 A 
ATOM      4  C   UNL     1       3.382   4.813  19.563  0.00  0.00    +0.000 A 
ATOM      5  C   UNL     1       3.452   5.956  18.728  0.00  0.00    +0.000 A 
ATOM      6  N   UNL     1       2.630   7.012  18.635  0.00  0.00    +0.000 NA
ATOM      7  O   UNL     1       3.164   7.833  17.662  0.00  0.00    +0.000 OA
ATOM      8  N   UNL     1       4.322   7.308  17.128  0.00  0.00    +0.000 NA
ATOM      9  C   UNL     1       4.535   6.148  17.766  0.00  0.00    +0.000 A 
ENDROOT
BRANCH   1  10
ATOM     10  S   UNL     1       6.842   5.411  16.451  0.00  0.00    +0.000 S 
ATOM     11  O   UNL     1       6.248   5.575  15.143  0.00  0.00    +0.000 OA
ATOM     12  O   UNL     1       7.871   4.435  16.708  0.00  0.00    +0.000 OA
BRANCH  10  13
ATOM     13  N   UNL     1       7.469   6.917  16.841  0.00  0.00    +0.000 NA
ATOM     14  H   UNL     1       8.351   7.076  16.352  0.00  0.00    +0.000 HD
ATOM     15  H   UNL     1       7.527   7.031  17.854  0.00  0.00    +0.000 HD
ENDBRANCH  10  13
ENDBRANCH   1  10
BRANCH   4  16
ATOM     16  S   UNL     1       2.003   4.579  20.636  0.00  0.00    +0.000 S 
BRANCH  16  17
ATOM     17  C   UNL     1       1.673   2.795  20.396  0.00  0.00    +0.000 C 
BRANCH  17  18
ATOM     18  C   UNL     1       1.018   2.570  19.033  0.00  0.00    +0.000 C 
BRANCH  18  19
ATOM     19  O   UNL     1       1.820   1.735  18.204  0.00  0.00    +0.000 OA
ATOM     20  H   UNL     1       1.592   1.964  17.283  0.00  0.00    +0.000 HD
ENDBRANCH  18  19
ENDBRANCH  17  18
ENDBRANCH  16  17
ENDBRANCH   4  16
TORSDOF 6
ENDMDL
MODEL 4
REMARK VINA RESULT:      -6.2      2.421      2.773
REMARK  Name = 
REMARK  6 active torsions:
REMARK  status: ('A' for Active; 'I' for Inactive)
REMARK    1  A    between atoms: N_1  and  S_2
REMARK    2  A    between atoms: S_2  and  C_5
REMARK    3  A    between atoms: C_8  and  S_9
REMARK    4  A    between atoms: S_9  and  C_10
REMARK    5  A    between atoms: C_10  and  C_11
REMARK    6  A    between atoms: C_11  and  O_12
REMARK                            x       y       z     vdW  Elec       q    Type
REMARK                         _______ _______ _______ _____ _____    ______ ____
ROOT
ATOM      1  C   UNL     1       5.530   5.304  17.596  0.00  0.00    +0.000 A 
ATOM      2  C   UNL     1       5.390   4.235  18.507  0.00  0.00    +0.000 A 
ATOM      3  C   UNL     1       4.309   4.160  19.427  0.00  0.00    +0.000 A 
ATOM      4  C   UNL     1       3.296   5.139  19.510  0.00  0.00    +0.000 A 
ATOM      5  C   UNL     1       3.434   6.219  18.604  0.00  0.00    +0.000 A 
ATOM      6  N   UNL     1       2.661   7.301  18.421  0.00  0.00    +0.000 NA
ATOM      7  O   UNL     1       3.251   8.031  17.409  0.00  0.00    +0.000 OA
ATOM      8  N   UNL     1       4.397   7.423  16.939  0.00  0.00    +0.000 NA
ATOM      9  C   UNL     1       4.544   6.300  17.658  0.00  0.00    +0.000 A 
ENDROOT
BRANCH   1  10
ATOM     10  S   UNL     1       6.844   5.379  16.450  0.00  0.00    +0.000 S 
ATOM     11  O   UNL     1       6.286   5.448  15.118  0.00  0.00    +0.000 OA
ATOM     12  O   UNL     1       7.837   4.399  16.813  0.00  0.00    +0.000 OA
BRANCH  10  13
ATOM     13  N   UNL     1       7.507   6.894  16.730  0.00  0.00    +0.000 NA
ATOM     14  H   UNL     1       8.407   6.810  17.202  0.00  0.00    +0.000 HD
ATOM     15  H   UNL     1       6.837   7.496  17.212  0.00  0.00    +0.000 HD
ENDBRANCH  10  13
ENDBRANCH   1  10
BRANCH   4  16
ATOM     16  S   UNL     1       1.885   5.037  20.563  0.00  0.00    +0.000 S 
BRANCH  16  17
ATOM     17  C   UNL     1       1.357   3.310  20.271  0.00  0.00    +0.000 C 
BRANCH  17  18
ATOM     18  C   UNL     1       1.428   2.519  21.577  0.00  0.00    +0.000 C 
BRANCH  18  19
ATOM     19  O   UNL     1       2.758   2.475  22.084  0.00  0.00    +0.000 OA
ATOM     20  H   UNL     1       3.086   1.572  21.912  0.00  0.00    +0.000 HD
ENDBRANCH  18  19
ENDBRANCH  17  18
ENDBRANCH  16  17
ENDBRANCH   4  16
TORSDOF 6
ENDMDL
MODEL 5
REMARK VINA RESULT:      -6.2      2.296      2.948
REMARK  Name = 
REMARK  6 active torsions:
REMARK  status: ('A' for Active; 'I' for Inactive)
REMARK    1  A    between atoms: N_1  and  S_2
REMARK    2  A    between atoms: S_2  and  C_5
REMARK    3  A    between atoms: C_8  and  S_9
REMARK    4  A    between atoms: S_9  and  C_10
REMARK    5  A    between atoms: C_10  and  C_11
REMARK    6  A    between atoms: C_11  and  O_12
REMARK                            x       y       z     vdW  Elec       q    Type
REMARK                         _______ _______ _______ _____ _____    ______ ____
ROOT
ATOM      1  C   UNL     1       5.745   4.930  17.990  0.00  0.00    +0.000 A 
ATOM      2  C   UNL     1       5.404   3.619  18.386  0.00  0.00    +0.000 A 
ATOM      3  C   UNL     1       4.062   3.230  18.644  0.00  0.00    +0.000 A 
ATOM      4  C   UNL     1       2.966   4.113  18.531  0.00  0.00    +0.000 A 
ATOM      5  C   UNL     1       3.301   5.434  18.141  0.00  0.00    +0.000 A 
ATOM      6  N   UNL     1       2.517   6.504  17.944  0.00  0.00    +0.000 NA
ATOM      7  O   UNL     1       3.357   7.535  17.572  0.00  0.00    +0.000 OA
ATOM      8  N   UNL     1       4.675   7.131  17.526  0.00  0.00    +0.000 NA
ATOM      9  C   UNL     1       4.680   5.837  17.876  0.00  0.00    +0.000 A 
ENDROOT
BRANCH   1  10
ATOM     10  S   UNL     1       7.391   5.396  17.648  0.00  0.00    +0.000 S 
ATOM     11  O   UNL     1       8.147   4.207  17.326  0.00  0.00    +0.000 OA
ATOM     12  O   UNL     1       7.829   6.334  18.652  0.00  0.00    +0.000 OA
BRANCH  10  13
ATOM     13  N   UNL     1       7.255   6.237  16.202  0.00  0.00    +0.000 NA
ATOM     14  H   UNL     1       7.991   5.956  15.554  0.00  0.00    +0.000 HD
ATOM     15  H   UNL     1       7.211   7.243  16.374  0.00  0.00    +0.000 HD
ENDBRANCH  10  13
ENDBRANCH   1  10
BRANCH   4  16
ATOM     16  S   UNL     1       1.277   3.651  18.742  0.00  0.00    +0.000 S 
BRANCH  16  17
ATOM     17  C   UNL     1       1.042   3.995  20.523  0.00  0.00    +0.000 C 
BRANCH  17  18
ATOM     18  C   UNL     1       1.362   2.742  21.339  0.00  0.00    +0.000 C 
BRANCH  18  19
ATOM     19  O   UNL     1       2.480   2.954  22.196  0.00  0.00    +0.000 OA
ATOM     20  H   UNL     1       2.114   3.182  23.071  0.00  0.00    +0.000 HD
ENDBRANCH  18  19
ENDBRANCH  17  18
ENDBRANCH  16  17
ENDBRANCH   4  16
TORSDOF 6
ENDMDL
MODEL 6
REMARK VINA RESULT:      -6.1      2.421      2.821
REMARK  Name = 
REMARK  6 active torsions:
REMARK  status: ('A' for Active; 'I' for Inactive)
REMARK    1  A    between atoms: N_1  and  S_2
REMARK    2  A    between atoms: S_2  and  C_5
REMARK    3  A    between atoms: C_8  and  S_9
REMARK    4  A    between atoms: S_9  and  C_10
REMARK    5  A    between atoms: C_10  and  C_11
REMARK    6  A    between atoms: C_11  and  O_12
REMARK                            x       y       z     vdW  Elec       q    Type
REMARK                         _______ _______ _______ _____ _____    ______ ____
ROOT
ATOM      1  C   UNL     1       5.649   5.302  17.665  0.00  0.00    +0.000 A 
ATOM      2  C   UNL     1       5.638   4.175  18.514  0.00  0.00    +0.000 A 
ATOM      3  C   UNL     1       4.582   3.926  19.432  0.00  0.00    +0.000 A 
ATOM      4  C   UNL     1       3.465   4.778  19.573  0.00  0.00    +0.000 A 
ATOM      5  C   UNL     1       3.471   5.915  18.728  0.00  0.00    +0.000 A 
ATOM      6  N   UNL     1       2.579   6.911  18.609  0.00  0.00    +0.000 NA
ATOM      7  O   UNL     1       3.073   7.759  17.638  0.00  0.00    +0.000 OA
ATOM      8  N   UNL     1       4.276   7.312  17.131  0.00  0.00    +0.000 NA
ATOM      9  C   UNL     1       4.556   6.175  17.785  0.00  0.00    +0.000 A 
ENDROOT
BRANCH   1  10
ATOM     10  S   UNL     1       6.934   5.590  16.521  0.00  0.00    +0.000 S 
ATOM     11  O   UNL     1       7.720   4.383  16.400  0.00  0.00    +0.000 OA
ATOM     12  O   UNL     1       7.535   6.869  16.806  0.00  0.00    +0.000 OA
BRANCH  10  13
ATOM     13  N   UNL     1       6.119   5.733  15.062  0.00  0.00    +0.000 NA
ATOM     14  H   UNL     1       6.683   5.360  14.298  0.00  0.00    +0.000 HD
ATOM     15  H   UNL     1       5.804   6.694  14.918  0.00  0.00    +0.000 HD
ENDBRANCH  10  13
ENDBRANCH   1  10
BRANCH   4  16
ATOM     16  S   UNL     1       2.085   4.457  20.622  0.00  0.00    +0.000 S 
BRANCH  16  17
ATOM     17  C   UNL     1       1.822   2.672  20.316  0.00  0.00    +0.000 C 
BRANCH  17  18
ATOM     18  C   UNL     1       1.163   2.473  18.951  0.00  0.00    +0.000 C 
BRANCH  18  19
ATOM     19  O   UNL     1       2.013   1.750  18.066  0.00  0.00    +0.000 OA
ATOM     20  H   UNL     1       1.971   0.817  18.349  0.00  0.00    +0.000 HD
ENDBRANCH  18  19
ENDBRANCH  17  18
ENDBRANCH  16  17
ENDBRANCH   4  16
TORSDOF 6
ENDMDL
MODEL 7
REMARK VINA RESULT:      -6.0      2.382      2.726
REMARK  Name = 
REMARK  6 active torsions:
REMARK  status: ('A' for Active; 'I' for Inactive)
REMARK    1  A    between atoms: N_1  and  S_2
REMARK    2  A    between atoms: S_2  and  C_5
REMARK    3  A    between atoms: C_8  and  S_9
REMARK    4  A    between atoms: S_9  and  C_10
REMARK    5  A    between atoms: C_10  and  C_11
REMARK    6  A    between atoms: C_11  and  O_12
REMARK                            x       y       z     vdW  Elec       q    Type
REMARK                         _______ _______ _______ _____ _____    ______ ____
ROOT
ATOM      1  C   UNL     1       5.484   5.317  17.628  0.00  0.00    +0.000 A 
ATOM      2  C   UNL     1       5.371   4.292  18.590  0.00  0.00    +0.000 A 
ATOM      3  C   UNL     1       4.297   4.239  19.520  0.00  0.00    +0.000 A 
ATOM      4  C   UNL     1       3.263   5.200  19.562  0.00  0.00    +0.000 A 
ATOM      5  C   UNL     1       3.374   6.237  18.603  0.00  0.00    +0.000 A 
ATOM      6  N   UNL     1       2.577   7.292  18.372  0.00  0.00    +0.000 NA
ATOM      7  O   UNL     1       3.146   7.984  17.322  0.00  0.00    +0.000 OA
ATOM      8  N   UNL     1       4.302   7.377  16.875  0.00  0.00    +0.000 NA
ATOM      9  C   UNL     1       4.477   6.294  17.647  0.00  0.00    +0.000 A 
ENDROOT
BRANCH   1  10
ATOM     10  S   UNL     1       6.789   5.364  16.470  0.00  0.00    +0.000 S 
ATOM     11  O   UNL     1       7.510   6.604  16.642  0.00  0.00    +0.000 OA
ATOM     12  O   UNL     1       6.289   4.941  15.186  0.00  0.00    +0.000 OA
BRANCH  10  13
ATOM     13  N   UNL     1       7.829   4.169  17.022  0.00  0.00    +0.000 NA
ATOM     14  H   UNL     1       8.230   3.653  16.239  0.00  0.00    +0.000 HD
ATOM     15  H   UNL     1       7.364   3.580  17.716  0.00  0.00    +0.000 HD
ENDBRANCH  10  13
ENDBRANCH   1  10
BRANCH   4  16
ATOM     16  S   UNL     1       1.861   5.119  20.628  0.00  0.00    +0.000 S 
BRANCH  16  17
ATOM     17  C   UNL     1       1.223   3.449  20.238  0.00  0.00    +0.000 C 
BRANCH  17  18
ATOM     18  C   UNL     1       1.496   2.506  21.410  0.00  0.00    +0.000 C 
BRANCH  18  19
ATOM     19  O   UNL     1       2.353   3.111  22.374  0.00  0.00    +0.000 OA
ATOM     20  H   UNL     1       3.255   2.795  22.173  0.00  0.00    +0.000 HD
ENDBRANCH  18  19
ENDBRANCH  17  18
ENDBRANCH  16  17
ENDBRANCH   4  16
TORSDOF 6
ENDMDL
MODEL 8
REMARK VINA RESULT:      -6.0      2.338      2.615
REMARK  Name = 
REMARK  6 active torsions:
REMARK  status: ('A' for Active; 'I' for Inactive)
REMARK    1  A    between atoms: N_1  and  S_2
REMARK    2  A    between atoms: S_2  and  C_5
REMARK    3  A    between atoms: C_8  and  S_9
REMARK    4  A    between atoms: S_9  and  C_10
REMARK    5  A    between atoms: C_10  and  C_11
REMARK    6  A    between atoms: C_11  and  O_12
REMARK                            x       y       z     vdW  Elec       q    Type
REMARK                         _______ _______ _______ _____ _____    ______ ____
ROOT
ATOM      1  C   UNL     1       5.528   5.384  17.623  0.00  0.00    +0.000 A 
ATOM      2  C   UNL     1       5.581   4.230  18.434  0.00  0.00    +0.000 A 
ATOM      3  C   UNL     1       4.583   3.936  19.402  0.00  0.00    +0.000 A 
ATOM      4  C   UNL     1       3.465   4.766  19.635  0.00  0.00    +0.000 A 
ATOM      5  C   UNL     1       3.407   5.930  18.829  0.00  0.00    +0.000 A 
ATOM      6  N   UNL     1       2.497   6.916  18.794  0.00  0.00    +0.000 NA
ATOM      7  O   UNL     1       2.923   7.802  17.826  0.00  0.00    +0.000 OA
ATOM      8  N   UNL     1       4.101   7.389  17.236  0.00  0.00    +0.000 NA
ATOM      9  C   UNL     1       4.433   6.236  17.835  0.00  0.00    +0.000 A 
ENDROOT
BRANCH   1  10
ATOM     10  S   UNL     1       6.741   5.727  16.417  0.00  0.00    +0.000 S 
ATOM     11  O   UNL     1       7.518   6.863  16.859  0.00  0.00    +0.000 OA
ATOM     12  O   UNL     1       6.129   5.680  15.113  0.00  0.00    +0.000 OA
BRANCH  10  13
ATOM     13  N   UNL     1       7.776   4.412  16.534  0.00  0.00    +0.000 NA
ATOM     14  H   UNL     1       8.109   4.135  15.611  0.00  0.00    +0.000 HD
ATOM     15  H   UNL     1       7.339   3.657  17.065  0.00  0.00    +0.000 HD
ENDBRANCH  10  13
ENDBRANCH   1  10
BRANCH   4  16
ATOM     16  S   UNL     1       2.152   4.391  20.751  0.00  0.00    +0.000 S 
BRANCH  16  17
ATOM     17  C   UNL     1       1.829   2.639  20.333  0.00  0.00    +0.000 C 
BRANCH  17  18
ATOM     18  C   UNL     1       1.201   2.547  18.943  0.00  0.00    +0.000 C 
BRANCH  18  19
ATOM     19  O   UNL     1       1.999   1.758  18.065  0.00  0.00    +0.000 OA
ATOM     20  H   UNL     1       1.497   0.937  17.903  0.00  0.00    +0.000 HD
ENDBRANCH  18  19
ENDBRANCH  17  18
ENDBRANCH  16  17
ENDBRANCH   4  16
TORSDOF 6
ENDMDL
MODEL 9
REMARK VINA RESULT:      -6.0      2.315      2.599
REMARK  Name = 
REMARK  6 active torsions:
REMARK  status: ('A' for Active; 'I' for Inactive)
REMARK    1  A    between atoms: N_1  and  S_2
REMARK    2  A    between atoms: S_2  and  C_5
REMARK    3  A    between atoms: C_8  and  S_9
REMARK    4  A    between atoms: S_9  and  C_10
REMARK    5  A    between atoms: C_10  and  C_11
REMARK    6  A    between atoms: C_11  and  O_12
REMARK                            x       y       z     vdW  Elec       q    Type
REMARK                         _______ _______ _______ _____ _____    ______ ____
ROOT
ATOM      1  C   UNL     1       5.449   4.980  17.454  0.00  0.00    +0.000 A 
ATOM      2  C   UNL     1       5.225   3.624  17.778  0.00  0.00    +0.000 A 
ATOM      3  C   UNL     1       3.973   3.156  18.261  0.00  0.00    +0.000 A 
ATOM      4  C   UNL     1       2.857   3.999  18.459  0.00  0.00    +0.000 A 
ATOM      5  C   UNL     1       3.076   5.363  18.143  0.00  0.00    +0.000 A 
ATOM      6  N   UNL     1       2.244   6.413  18.215  0.00  0.00    +0.000 NA
ATOM      7  O   UNL     1       2.966   7.509  17.786  0.00  0.00    +0.000 OA
ATOM      8  N   UNL     1       4.256   7.167  17.436  0.00  0.00    +0.000 NA
ATOM      9  C   UNL     1       4.362   5.847  17.647  0.00  0.00    +0.000 A 
ENDROOT
BRANCH   1  10
ATOM     10  S   UNL     1       6.979   5.545  16.836  0.00  0.00    +0.000 S 
ATOM     11  O   UNL     1       7.501   6.540  17.744  0.00  0.00    +0.000 OA
ATOM     12  O   UNL     1       6.848   5.794  15.422  0.00  0.00    +0.000 OA
BRANCH  10  13
ATOM     13  N   UNL     1       7.979   4.211  17.020  0.00  0.00    +0.000 NA
ATOM     14  H   UNL     1       7.860   3.563  16.241  0.00  0.00    +0.000 HD
ATOM     15  H   UNL     1       7.848   3.788  17.940  0.00  0.00    +0.000 HD
ENDBRANCH  10  13
ENDBRANCH   1  10
BRANCH   4  16
ATOM     16  S   UNL     1       1.259   3.448  18.959  0.00  0.00    +0.000 S 
BRANCH  16  17
ATOM     17  C   UNL     1       1.244   3.967  20.713  0.00  0.00    +0.000 C 
BRANCH  17  18
ATOM     18  C   UNL     1       1.437   2.747  21.614  0.00  0.00    +0.000 C 
BRANCH  18  19
ATOM     19  O   UNL     1       2.814   2.542  21.920  0.00  0.00    +0.000 OA
ATOM     20  H   UNL     1       2.976   2.997  22.768  0.00  0.00    +0.000 HD
ENDBRANCH  18  19
ENDBRANCH  17  18
ENDBRANCH  16  17
ENDBRANCH   4  16
TORSDOF 6
ENDMDL
