MODEL 1
REMARK VINA RESULT:      -8.5      0.000      0.000
REMARK  Name = 
REMARK  4 active torsions:
REMARK  status: ('A' for Active; 'I' for Inactive)
REMARK    1  A    between atoms: C_2  and  C_13
REMARK    2  A    between atoms: N_3  and  C_4
REMARK    3  A    between atoms: C_8  and  N_9
REMARK    4  A    between atoms: C_22  and  O_23
REMARK                            x       y       z     vdW  Elec       q    Type
REMARK                         _______ _______ _______ _____ _____    ______ ____
ROOT
ATOM      1  O   UNL     1       2.126   6.298  20.237  0.00  0.00    +0.000 OA
ATOM      2  C   UNL     1       2.237   7.235  19.457  0.00  0.00    +0.000 C 
ATOM      3  N   UNL     1       2.964   7.233  18.280  0.00  0.00    +0.000 N 
ATOM      4  H   UNL     1       3.059   8.137  17.823  0.00  0.00    +0.000 HD
ENDROOT
BRANCH   2   5
ATOM      5  C   UNL     1       1.516   8.496  19.787  0.00  0.00    +0.000 A 
ATOM      6  C   UNL     1       1.016   8.587  21.093  0.00  0.00    +0.000 A 
ATOM      7  C   UNL     1       0.293   9.707  21.506  0.00  0.00    +0.000 A 
ATOM      8  C   UNL     1      -0.395   9.701  22.725  0.00  0.00    +0.000 A 
ATOM      9  C   UNL     1      -1.122  10.819  23.126  0.00  0.00    +0.000 A 
ATOM     10  C   UNL     1      -1.070  11.986  22.371  0.00  0.00    +0.000 A 
ATOM     11  C   UNL     1      -0.398  11.998  21.147  0.00  0.00    +0.000 A 
ATOM     12  C   UNL     1       0.215  10.833  20.661  0.00  0.00    +0.000 A 
ATOM     13  C   UNL     1       0.705  10.736  19.346  0.00  0.00    +0.000 A 
ATOM     14  C   UNL     1       1.294   9.550  18.896  0.00  0.00    +0.000 A 
BRANCH  14  15
ATOM     15  O   UNL     1       1.627   9.425  17.572  0.00  0.00    +0.000 OA
ATOM     16  H   UNL     1       1.866  10.304  17.226  0.00  0.00    +0.000 HD
ENDBRANCH  14  15
ENDBRANCH   2   5
BRANCH   3  17
ATOM     17  C   UNL     1       3.670   6.139  17.741  0.00  0.00    +0.000 A 
ATOM     18  C   UNL     1       3.094   4.881  17.540  0.00  0.00    +0.000 A 
ATOM     19  C   UNL     1       3.843   3.813  17.043  0.00  0.00    +0.000 A 
ATOM     20  C   UNL     1       5.186   3.993  16.734  0.00  0.00    +0.000 A 
ATOM     21  C   UNL     1       5.765   5.257  16.908  0.00  0.00    +0.000 A 
ATOM     22  C   UNL     1       5.010   6.335  17.393  0.00  0.00    +0.000 A 
BRANCH  21  23
ATOM     23  N   UNL     1       7.186   5.445  16.603  0.00  0.00    +0.000 N 
ATOM     24  O   UNL     1       7.914   4.445  16.604  0.00  0.00    +0.000 OA
ATOM     25  O   UNL     1       7.571   6.598  16.356  0.00  0.00    +0.000 OA
ENDBRANCH  21  23
ENDBRANCH   3  17
TORSDOF 4
ENDMDL
MODEL 2
REMARK VINA RESULT:      -8.4      2.447      2.896
REMARK  Name = 
REMARK  4 active torsions:
REMARK  status: ('A' for Active; 'I' for Inactive)
REMARK    1  A    between atoms: C_2  and  C_13
REMARK    2  A    between atoms: N_3  and  C_4
REMARK    3  A    between atoms: C_8  and  N_9
REMARK    4  A    between atoms: C_22  and  O_23
REMARK                            x       y       z     vdW  Elec       q    Type
REMARK                         _______ _______ _______ _____ _____    ______ ____
ROOT
ATOM      1  O   UNL     1       3.289   7.605  18.123  0.00  0.00    +0.000 OA
ATOM      2  C   UNL     1       2.353   7.402  18.884  0.00  0.00    +0.000 C 
ATOM      3  N   UNL     1       1.890   6.165  19.295  0.00  0.00    +0.000 N 
ATOM      4  H   UNL     1       1.019   6.175  19.821  0.00  0.00    +0.000 HD
ENDROOT
BRANCH   2   5
ATOM      5  C   UNL     1       1.646   8.590  19.439  0.00  0.00    +0.000 A 
ATOM      6  C   UNL     1       1.158   8.451  20.746  0.00  0.00    +0.000 A 
ATOM      7  C   UNL     1       0.448   9.486  21.357  0.00  0.00    +0.000 A 
ATOM      8  C   UNL     1      -0.229   9.270  22.563  0.00  0.00    +0.000 A 
ATOM      9  C   UNL     1      -0.943  10.304  23.163  0.00  0.00    +0.000 A 
ATOM     10  C   UNL     1      -0.887  11.587  22.626  0.00  0.00    +0.000 A 
ATOM     11  C   UNL     1      -0.224  11.810  21.418  0.00  0.00    +0.000 A 
ATOM     12  C   UNL     1       0.373  10.745  20.726  0.00  0.00    +0.000 A 
ATOM     13  C   UNL     1       0.852  10.879  19.411  0.00  0.00    +0.000 A 
ATOM     14  C   UNL     1       1.426   9.787  18.751  0.00  0.00    +0.000 A 
BRANCH  14  15
ATOM     15  O   UNL     1       1.746   9.896  17.423  0.00  0.00    +0.000 OA
ATOM     16  H   UNL     1       0.938   9.760  16.895  0.00  0.00    +0.000 HD
ENDBRANCH  14  15
ENDBRANCH   2   5
BRANCH   3  17
ATOM     17  C   UNL     1       2.441   4.915  18.950  0.00  0.00    +0.000 A 
ATOM     18  C   UNL     1       2.363   4.373  17.664  0.00  0.00    +0.000 A 
ATOM     19  C   UNL     1       2.886   3.111  17.377  0.00  0.00    +0.000 A 
ATOM     20  C   UNL     1       3.502   2.371  18.380  0.00  0.00    +0.000 A 
ATOM     21  C   UNL     1       3.608   2.918  19.665  0.00  0.00    +0.000 A 
ATOM     22  C   UNL     1       3.096   4.192  19.952  0.00  0.00    +0.000 A 
BRANCH  21  23
ATOM     23  N   UNL     1       4.238   2.133  20.730  0.00  0.00    +0.000 N 
ATOM     24  O   UNL     1       5.336   1.613  20.492  0.00  0.00    +0.000 OA
ATOM     25  O   UNL     1       3.635   2.043  21.809  0.00  0.00    +0.000 OA
ENDBRANCH  21  23
ENDBRANCH   3  17
TORSDOF 4
ENDMDL
MODEL 3
REMARK VINA RESULT:      -8.2      3.439      5.713
REMARK  Name = 
REMARK  4 active torsions:
REMARK  status: ('A' for Active; 'I' for Inactive)
REMARK    1  A    between atoms: C_2  and  C_13
REMARK    2  A    between atoms: N_3  and  C_4
REMARK    3  A    between atoms: C_8  and  N_9
REMARK    4  A    between atoms: C_22  and  O_23
REMARK                            x       y       z     vdW  Elec       q    Type
REMARK                         _______ _______ _______ _____ _____    ______ ____
ROOT
ATOM      1  O   UNL     1       6.719   4.120  17.229  0.00  0.00    +0.000 OA
ATOM      2  C   UNL     1       5.634   4.593  16.916  0.00  0.00    +0.000 C 
ATOM      3  N   UNL     1       5.199   4.850  15.628  0.00  0.00    +0.000 N 
ATOM      4  H   UNL     1       4.327   5.369  15.555  0.00  0.00    +0.000 HD
ENDROOT
BRANCH   2   5
ATOM      5  C   UNL     1       4.678   4.913  18.013  0.00  0.00    +0.000 A 
ATOM      6  C   UNL     1       3.966   6.111  17.868  0.00  0.00    +0.000 A 
ATOM      7  C   UNL     1       3.068   6.532  18.850  0.00  0.00    +0.000 A 
ATOM      8  C   UNL     1       2.530   7.824  18.817  0.00  0.00    +0.000 A 
ATOM      9  C   UNL     1       1.642   8.240  19.805  0.00  0.00    +0.000 A 
ATOM     10  C   UNL     1       1.195   7.333  20.761  0.00  0.00    +0.000 A 
ATOM     11  C   UNL     1       1.734   6.046  20.810  0.00  0.00    +0.000 A 
ATOM     12  C   UNL     1       2.741   5.662  19.910  0.00  0.00    +0.000 A 
ATOM     13  C   UNL     1       3.465   4.466  20.062  0.00  0.00    +0.000 A 
ATOM     14  C   UNL     1       4.472   4.128  19.151  0.00  0.00    +0.000 A 
BRANCH  14  15
ATOM     15  O   UNL     1       5.266   3.040  19.400  0.00  0.00    +0.000 OA
ATOM     16  H   UNL     1       5.366   2.940  20.365  0.00  0.00    +0.000 HD
ENDBRANCH  14  15
ENDBRANCH   2   5
BRANCH   3  17
ATOM     17  C   UNL     1       5.905   4.570  14.441  0.00  0.00    +0.000 A 
ATOM     18  C   UNL     1       7.097   5.211  14.091  0.00  0.00    +0.000 A 
ATOM     19  C   UNL     1       7.741   4.933  12.884  0.00  0.00    +0.000 A 
ATOM     20  C   UNL     1       7.198   4.001  12.007  0.00  0.00    +0.000 A 
ATOM     21  C   UNL     1       6.017   3.336  12.361  0.00  0.00    +0.000 A 
ATOM     22  C   UNL     1       5.377   3.602  13.581  0.00  0.00    +0.000 A 
BRANCH  21  23
ATOM     23  N   UNL     1       5.431   2.368  11.430  0.00  0.00    +0.000 N 
ATOM     24  O   UNL     1       4.268   2.561  11.053  0.00  0.00    +0.000 OA
ATOM     25  O   UNL     1       6.139   1.416  11.072  0.00  0.00    +0.000 OA
ENDBRANCH  21  23
ENDBRANCH   3  17
TORSDOF 4
ENDMDL
MODEL 4
REMARK VINA RESULT:      -8.2      1.191      1.312
REMARK  Name = 
REMARK  4 active torsions:
REMARK  status: ('A' for Active; 'I' for Inactive)
REMARK    1  A    between atoms: C_2  and  C_13
REMARK    2  A    between atoms: N_3  and  C_4
REMARK    3  A    between atoms: C_8  and  N_9
REMARK    4  A    between atoms: C_22  and  O_23
REMARK                            x       y       z     vdW  Elec       q    Type
REMARK                         _______ _______ _______ _____ _____    ______ ____
ROOT
ATOM      1  O   UNL     1       2.535   8.784  17.132  0.00  0.00    +0.000 OA
ATOM      2  C   UNL     1       2.123   8.238  18.147  0.00  0.00    +0.000 C 
ATOM      3  N   UNL     1       2.448   6.964  18.577  0.00  0.00    +0.000 N 
ATOM      4  H   UNL     1       1.912   6.619  19.370  0.00  0.00    +0.000 HD
ENDROOT
BRANCH   2   5
ATOM      5  C   UNL     1       1.196   9.013  19.019  0.00  0.00    +0.000 A 
ATOM      6  C   UNL     1       1.367   8.835  20.398  0.00  0.00    +0.000 A 
ATOM      7  C   UNL     1       0.533   9.483  21.311  0.00  0.00    +0.000 A 
ATOM      8  C   UNL     1       0.554   9.135  22.667  0.00  0.00    +0.000 A 
ATOM      9  C   UNL     1      -0.287   9.778  23.570  0.00  0.00    +0.000 A 
ATOM     10  C   UNL     1      -1.066  10.851  23.148  0.00  0.00    +0.000 A 
ATOM     11  C   UNL     1      -1.103  11.198  21.797  0.00  0.00    +0.000 A 
ATOM     12  C   UNL     1      -0.373  10.461  20.852  0.00  0.00    +0.000 A 
ATOM     13  C   UNL     1      -0.553  10.630  19.467  0.00  0.00    +0.000 A 
ATOM     14  C   UNL     1       0.184   9.862  18.559  0.00  0.00    +0.000 A 
BRANCH  14  15
ATOM     15  O   UNL     1      -0.113   9.932  17.223  0.00  0.00    +0.000 OA
ATOM     16  H   UNL     1      -0.958   9.472  17.067  0.00  0.00    +0.000 HD
ENDBRANCH  14  15
ENDBRANCH   2   5
BRANCH   3  17
ATOM     17  C   UNL     1       3.349   6.080  17.950  0.00  0.00    +0.000 A 
ATOM     18  C   UNL     1       3.065   4.730  17.727  0.00  0.00    +0.000 A 
ATOM     19  C   UNL     1       4.005   3.880  17.140  0.00  0.00    +0.000 A 
ATOM     20  C   UNL     1       5.248   4.376  16.763  0.00  0.00    +0.000 A 
ATOM     21  C   UNL     1       5.531   5.734  16.959  0.00  0.00    +0.000 A 
ATOM     22  C   UNL     1       4.582   6.592  17.535  0.00  0.00    +0.000 A 
BRANCH  21  23
ATOM     23  N   UNL     1       6.847   6.256  16.582  0.00  0.00    +0.000 N 
ATOM     24  O   UNL     1       7.527   5.591  15.790  0.00  0.00    +0.000 OA
ATOM     25  O   UNL     1       7.197   7.338  17.075  0.00  0.00    +0.000 OA
ENDBRANCH  21  23
ENDBRANCH   3  17
TORSDOF 4
ENDMDL
MODEL 5
REMARK VINA RESULT:      -8.1      1.284      1.390
REMARK  Name = 
REMARK  4 active torsions:
REMARK  status: ('A' for Active; 'I' for Inactive)
REMARK    1  A    between atoms: C_2  and  C_13
REMARK    2  A    between atoms: N_3  and  C_4
REMARK    3  A    between atoms: C_8  and  N_9
REMARK    4  A    between atoms: C_22  and  O_23
REMARK                            x       y       z     vdW  Elec       q    Type
REMARK                         _______ _______ _______ _____ _____    ______ ____
ROOT
ATOM      1  O   UNL     1       2.443   8.359  17.115  0.00  0.00    +0.000 OA
ATOM      2  C   UNL     1       2.234   8.115  18.296  0.00  0.00    +0.000 C 
ATOM      3  N   UNL     1       2.553   6.941  18.955  0.00  0.00    +0.000 N 
ATOM      4  H   UNL     1       2.187   6.855  19.900  0.00  0.00    +0.000 HD
ENDROOT
BRANCH   2   5
ATOM      5  C   UNL     1       1.589   9.178  19.116  0.00  0.00    +0.000 A 
ATOM      6  C   UNL     1       1.048   8.759  20.339  0.00  0.00    +0.000 A 
ATOM      7  C   UNL     1       0.388   9.661  21.176  0.00  0.00    +0.000 A 
ATOM      8  C   UNL     1      -0.344   9.205  22.279  0.00  0.00    +0.000 A 
ATOM      9  C   UNL     1      -1.008  10.109  23.103  0.00  0.00    +0.000 A 
ATOM     10  C   UNL     1      -0.847  11.477  22.902  0.00  0.00    +0.000 A 
ATOM     11  C   UNL     1      -0.130  11.941  21.798  0.00  0.00    +0.000 A 
ATOM     12  C   UNL     1       0.419  11.038  20.874  0.00  0.00    +0.000 A 
ATOM     13  C   UNL     1       0.951  11.456  19.641  0.00  0.00    +0.000 A 
ATOM     14  C   UNL     1       1.473  10.520  18.742  0.00  0.00    +0.000 A 
BRANCH  14  15
ATOM     15  O   UNL     1       1.846  10.929  17.488  0.00  0.00    +0.000 OA
ATOM     16  H   UNL     1       2.744  11.304  17.536  0.00  0.00    +0.000 HD
ENDBRANCH  14  15
ENDBRANCH   2   5
BRANCH   3  17
ATOM     17  C   UNL     1       3.220   5.831  18.399  0.00  0.00    +0.000 A 
ATOM     18  C   UNL     1       2.552   4.757  17.804  0.00  0.00    +0.000 A 
ATOM     19  C   UNL     1       3.251   3.657  17.304  0.00  0.00    +0.000 A 
ATOM     20  C   UNL     1       4.638   3.620  17.390  0.00  0.00    +0.000 A 
ATOM     21  C   UNL     1       5.317   4.704  17.961  0.00  0.00    +0.000 A 
ATOM     22  C   UNL     1       4.617   5.817  18.450  0.00  0.00    +0.000 A 
BRANCH  21  23
ATOM     23  N   UNL     1       6.778   4.659  18.072  0.00  0.00    +0.000 N 
ATOM     24  O   UNL     1       7.425   4.351  17.063  0.00  0.00    +0.000 OA
ATOM     25  O   UNL     1       7.277   4.941  19.171  0.00  0.00    +0.000 OA
ENDBRANCH  21  23
ENDBRANCH   3  17
TORSDOF 4
ENDMDL
MODEL 6
REMARK VINA RESULT:      -8.1      1.526      1.666
REMARK  Name = 
REMARK  4 active torsions:
REMARK  status: ('A' for Active; 'I' for Inactive)
REMARK    1  A    between atoms: C_2  and  C_13
REMARK    2  A    between atoms: N_3  and  C_4
REMARK    3  A    between atoms: C_8  and  N_9
REMARK    4  A    between atoms: C_22  and  O_23
REMARK                            x       y       z     vdW  Elec       q    Type
REMARK                         _______ _______ _______ _____ _____    ______ ____
ROOT
ATOM      1  O   UNL     1       2.458   7.597  17.833  0.00  0.00    +0.000 OA
ATOM      2  C   UNL     1       2.216   7.644  19.032  0.00  0.00    +0.000 C 
ATOM      3  N   UNL     1       2.541   6.677  19.967  0.00  0.00    +0.000 N 
ATOM      4  H   UNL     1       2.146   6.815  20.894  0.00  0.00    +0.000 HD
ENDROOT
BRANCH   2   5
ATOM      5  C   UNL     1       1.522   8.856  19.548  0.00  0.00    +0.000 A 
ATOM      6  C   UNL     1       1.004   8.753  20.846  0.00  0.00    +0.000 A 
ATOM      7  C   UNL     1       0.302   9.813  21.422  0.00  0.00    +0.000 A 
ATOM      8  C   UNL     1      -0.405   9.634  22.617  0.00  0.00    +0.000 A 
ATOM      9  C   UNL     1      -1.111  10.694  23.181  0.00  0.00    +0.000 A 
ATOM     10  C   UNL     1      -1.017  11.964  22.620  0.00  0.00    +0.000 A 
ATOM     11  C   UNL     1      -0.326  12.151  21.422  0.00  0.00    +0.000 A 
ATOM     12  C   UNL     1       0.265  11.060  20.765  0.00  0.00    +0.000 A 
ATOM     13  C   UNL     1       0.774  11.159  19.457  0.00  0.00    +0.000 A 
ATOM     14  C   UNL     1       1.340  10.043  18.832  0.00  0.00    +0.000 A 
BRANCH  14  15
ATOM     15  O   UNL     1       1.691  10.119  17.509  0.00  0.00    +0.000 OA
ATOM     16  H   UNL     1       2.192   9.317  17.273  0.00  0.00    +0.000 HD
ENDBRANCH  14  15
ENDBRANCH   2   5
BRANCH   3  17
ATOM     17  C   UNL     1       3.249   5.485  19.717  0.00  0.00    +0.000 A 
ATOM     18  C   UNL     1       2.795   4.226  20.121  0.00  0.00    +0.000 A 
ATOM     19  C   UNL     1       3.552   3.075  19.891  0.00  0.00    +0.000 A 
ATOM     20  C   UNL     1       4.779   3.170  19.245  0.00  0.00    +0.000 A 
ATOM     21  C   UNL     1       5.230   4.425  18.814  0.00  0.00    +0.000 A 
ATOM     22  C   UNL     1       4.464   5.580  19.031  0.00  0.00    +0.000 A 
BRANCH  21  23
ATOM     23  N   UNL     1       6.533   4.532  18.152  0.00  0.00    +0.000 N 
ATOM     24  O   UNL     1       7.519   4.787  18.855  0.00  0.00    +0.000 OA
ATOM     25  O   UNL     1       6.568   4.353  16.926  0.00  0.00    +0.000 OA
ENDBRANCH  21  23
ENDBRANCH   3  17
TORSDOF 4
ENDMDL
MODEL 7
REMARK VINA RESULT:      -8.1      1.396      1.542
REMARK  Name = 
REMARK  4 active torsions:
REMARK  status: ('A' for Active; 'I' for Inactive)
REMARK    1  A    between atoms: C_2  and  C_13
REMARK    2  A    between atoms: N_3  and  C_4
REMARK    3  A    between atoms: C_8  and  N_9
REMARK    4  A    between atoms: C_22  and  O_23
REMARK                            x       y       z     vdW  Elec       q    Type
REMARK                         _______ _______ _______ _____ _____    ______ ____
ROOT
ATOM      1  O   UNL     1       2.454   6.125  19.011  0.00  0.00    +0.000 OA
ATOM      2  C   UNL     1       2.756   7.282  18.750  0.00  0.00    +0.000 C 
ATOM      3  N   UNL     1       3.830   7.690  17.980  0.00  0.00    +0.000 N 
ATOM      4  H   UNL     1       4.012   8.692  17.977  0.00  0.00    +0.000 HD
ENDROOT
BRANCH   2   5
ATOM      5  C   UNL     1       1.884   8.361  19.294  0.00  0.00    +0.000 A 
ATOM      6  C   UNL     1       1.528   8.233  20.643  0.00  0.00    +0.000 A 
ATOM      7  C   UNL     1       0.687   9.165  21.252  0.00  0.00    +0.000 A 
ATOM      8  C   UNL     1       0.151   8.920  22.522  0.00  0.00    +0.000 A 
ATOM      9  C   UNL     1      -0.695   9.850  23.119  0.00  0.00    +0.000 A 
ATOM     10  C   UNL     1      -0.916  11.079  22.506  0.00  0.00    +0.000 A 
ATOM     11  C   UNL     1      -0.398  11.329  21.234  0.00  0.00    +0.000 A 
ATOM     12  C   UNL     1       0.334  10.340  20.557  0.00  0.00    +0.000 A 
ATOM     13  C   UNL     1       0.681  10.463  19.200  0.00  0.00    +0.000 A 
ATOM     14  C   UNL     1       1.397   9.446  18.558  0.00  0.00    +0.000 A 
BRANCH  14  15
ATOM     15  O   UNL     1       1.593   9.513  17.204  0.00  0.00    +0.000 OA
ATOM     16  H   UNL     1       1.973  10.384  16.986  0.00  0.00    +0.000 HD
ENDBRANCH  14  15
ENDBRANCH   2   5
BRANCH   3  17
ATOM     17  C   UNL     1       4.745   6.848  17.318  0.00  0.00    +0.000 A 
ATOM     18  C   UNL     1       4.637   6.514  15.965  0.00  0.00    +0.000 A 
ATOM     19  C   UNL     1       5.543   5.641  15.360  0.00  0.00    +0.000 A 
ATOM     20  C   UNL     1       6.578   5.089  16.106  0.00  0.00    +0.000 A 
ATOM     21  C   UNL     1       6.710   5.439  17.456  0.00  0.00    +0.000 A 
ATOM     22  C   UNL     1       5.809   6.329  18.062  0.00  0.00    +0.000 A 
BRANCH  21  23
ATOM     23  N   UNL     1       7.788   4.845  18.251  0.00  0.00    +0.000 N 
ATOM     24  O   UNL     1       7.910   5.214  19.426  0.00  0.00    +0.000 OA
ATOM     25  O   UNL     1       8.508   4.001  17.698  0.00  0.00    +0.000 OA
ENDBRANCH  21  23
ENDBRANCH   3  17
TORSDOF 4
ENDMDL
MODEL 8
REMARK VINA RESULT:      -8.0      2.412      2.954
REMARK  Name = 
REMARK  4 active torsions:
REMARK  status: ('A' for Active; 'I' for Inactive)
REMARK    1  A    between atoms: C_2  and  C_13
REMARK    2  A    between atoms: N_3  and  C_4
REMARK    3  A    between atoms: C_8  and  N_9
REMARK    4  A    between atoms: C_22  and  O_23
REMARK                            x       y       z     vdW  Elec       q    Type
REMARK                         _______ _______ _______ _____ _____    ______ ____
ROOT
ATOM      1  O   UNL     1       2.771   7.931  17.767  0.00  0.00    +0.000 OA
ATOM      2  C   UNL     1       2.366   7.815  18.916  0.00  0.00    +0.000 C 
ATOM      3  N   UNL     1       2.607   6.747  19.761  0.00  0.00    +0.000 N 
ATOM      4  H   UNL     1       2.083   6.751  20.634  0.00  0.00    +0.000 HD
ENDROOT
BRANCH   2   5
ATOM      5  C   UNL     1       1.548   8.928  19.475  0.00  0.00    +0.000 A 
ATOM      6  C   UNL     1       1.121   8.763  20.799  0.00  0.00    +0.000 A 
ATOM      7  C   UNL     1       0.320   9.724  21.417  0.00  0.00    +0.000 A 
ATOM      8  C   UNL     1      -0.290   9.459  22.649  0.00  0.00    +0.000 A 
ATOM      9  C   UNL     1      -1.096  10.419  23.255  0.00  0.00    +0.000 A 
ATOM     10  C   UNL     1      -1.201  11.688  22.695  0.00  0.00    +0.000 A 
ATOM     11  C   UNL     1      -0.608  11.959  21.461  0.00  0.00    +0.000 A 
ATOM     12  C   UNL     1       0.083  10.953  20.768  0.00  0.00    +0.000 A 
ATOM     13  C   UNL     1       0.501  11.113  19.434  0.00  0.00    +0.000 A 
ATOM     14  C   UNL     1       1.173  10.078  18.774  0.00  0.00    +0.000 A 
BRANCH  14  15
ATOM     15  O   UNL     1       1.435  10.194  17.434  0.00  0.00    +0.000 OA
ATOM     16  H   UNL     1       1.892  11.041  17.278  0.00  0.00    +0.000 HD
ENDBRANCH  14  15
ENDBRANCH   2   5
BRANCH   3  17
ATOM     17  C   UNL     1       3.402   5.620  19.469  0.00  0.00    +0.000 A 
ATOM     18  C   UNL     1       4.794   5.673  19.360  0.00  0.00    +0.000 A 
ATOM     19  C   UNL     1       5.537   4.539  19.027  0.00  0.00    +0.000 A 
ATOM     20  C   UNL     1       4.892   3.329  18.801  0.00  0.00    +0.000 A 
ATOM     21  C   UNL     1       3.499   3.261  18.935  0.00  0.00    +0.000 A 
ATOM     22  C   UNL     1       2.752   4.395  19.284  0.00  0.00    +0.000 A 
BRANCH  21  23
ATOM     23  N   UNL     1       2.814   1.991  18.678  0.00  0.00    +0.000 N 
ATOM     24  O   UNL     1       1.576   1.994  18.670  0.00  0.00    +0.000 OA
ATOM     25  O   UNL     1       3.518   0.991  18.477  0.00  0.00    +0.000 OA
ENDBRANCH  21  23
ENDBRANCH   3  17
TORSDOF 4
ENDMDL
MODEL 9
REMARK VINA RESULT:      -7.9      3.918      6.051
REMARK  Name = 
REMARK  4 active torsions:
REMARK  status: ('A' for Active; 'I' for Inactive)
REMARK    1  A    between atoms: C_2  and  C_13
REMARK    2  A    between atoms: N_3  and  C_4
REMARK    3  A    between atoms: C_8  and  N_9
REMARK    4  A    between atoms: C_22  and  O_23
REMARK                            x       y       z     vdW  Elec       q    Type
REMARK                         _______ _______ _______ _____ _____    ______ ____
ROOT
ATOM      1  O   UNL     1       5.272   6.789  16.044  0.00  0.00    +0.000 OA
ATOM      2  C   UNL     1       4.876   5.669  16.339  0.00  0.00    +0.000 C 
ATOM      3  N   UNL     1       5.127   4.504  15.635  0.00  0.00    +0.000 N 
ATOM      4  H   UNL     1       4.609   3.685  15.945  0.00  0.00    +0.000 HD
ENDROOT
BRANCH   2   5
ATOM      5  C   UNL     1       4.058   5.530  17.576  0.00  0.00    +0.000 A 
ATOM      6  C   UNL     1       3.907   4.225  18.062  0.00  0.00    +0.000 A 
ATOM      7  C   UNL     1       3.133   3.968  19.195  0.00  0.00    +0.000 A 
ATOM      8  C   UNL     1       2.797   2.655  19.546  0.00  0.00    +0.000 A 
ATOM      9  C   UNL     1       2.017   2.408  20.672  0.00  0.00    +0.000 A 
ATOM     10  C   UNL     1       1.668   3.456  21.518  0.00  0.00    +0.000 A 
ATOM     11  C   UNL     1       1.987   4.770  21.170  0.00  0.00    +0.000 A 
ATOM     12  C   UNL     1       2.645   5.047  19.960  0.00  0.00    +0.000 A 
ATOM     13  C   UNL     1       2.786   6.356  19.466  0.00  0.00    +0.000 A 
ATOM     14  C   UNL     1       3.433   6.586  18.247  0.00  0.00    +0.000 A 
BRANCH  14  15
ATOM     15  O   UNL     1       3.427   7.846  17.710  0.00  0.00    +0.000 OA
ATOM     16  H   UNL     1       3.601   8.490  18.421  0.00  0.00    +0.000 HD
ENDBRANCH  14  15
ENDBRANCH   2   5
BRANCH   3  17
ATOM     17  C   UNL     1       5.923   4.388  14.478  0.00  0.00    +0.000 A 
ATOM     18  C   UNL     1       7.035   5.198  14.230  0.00  0.00    +0.000 A 
ATOM     19  C   UNL     1       7.770   5.076  13.049  0.00  0.00    +0.000 A 
ATOM     20  C   UNL     1       7.401   4.132  12.097  0.00  0.00    +0.000 A 
ATOM     21  C   UNL     1       6.304   3.299  12.350  0.00  0.00    +0.000 A 
ATOM     22  C   UNL     1       5.573   3.410  13.542  0.00  0.00    +0.000 A 
BRANCH  21  23
ATOM     23  N   UNL     1       5.899   2.317  11.340  0.00  0.00    +0.000 N 
ATOM     24  O   UNL     1       4.713   2.308  10.986  0.00  0.00    +0.000 OA
ATOM     25  O   UNL     1       6.774   1.559  10.895  0.00  0.00    +0.000 OA
ENDBRANCH  21  23
ENDBRANCH   3  17
TORSDOF 4
ENDMDL
