MODEL 1
REMARK VINA RESULT:      -8.3      0.000      0.000
REMARK  Name = 
REMARK  5 active torsions:
REMARK  status: ('A' for Active; 'I' for Inactive)
REMARK    1  A    between atoms: C_1  and  N_2
REMARK    2  A    between atoms: N_2  and  C_3
REMARK    3  A    between atoms: C_10  and  C_12
REMARK    4  A    between atoms: C_15  and  N_16
REMARK    5  A    between atoms: C_17  and  C_19
REMARK                            x       y       z     vdW  Elec       q    Type
REMARK                         _______ _______ _______ _____ _____    ______ ____
ROOT
ATOM      1  C   UNL     1      -0.312  10.233  19.238  0.00  0.00    +0.000 A 
ATOM      2  C   UNL     1       0.165   9.484  20.326  0.00  0.00    +0.000 A 
ATOM      3  C   UNL     1       1.277   8.612  20.197  0.00  0.00    +0.000 A 
ATOM      4  C   UNL     1       1.900   8.411  18.966  0.00  0.00    +0.000 A 
ATOM      5  C   UNL     1       1.391   9.127  17.868  0.00  0.00    +0.000 A 
ATOM      6  C   UNL     1       0.298  10.021  18.005  0.00  0.00    +0.000 A 
ENDROOT
BRANCH   1  16
ATOM      7  C   UNL     1       0.036  17.291  23.936  0.00  0.00    +0.000 C 
ATOM      8  N   UNL     1      -0.004  16.061  23.156  0.00  0.00    +0.000 N 
ATOM      9  C   UNL     1       1.181  15.818  22.342  0.00  0.00    +0.000 C 
ATOM     10  C   UNL     1      -1.256  15.488  22.970  0.00  0.00    +0.000 C 
ATOM     11  O   UNL     1      -2.276  16.063  23.388  0.00  0.00    +0.000 OA
ATOM     12  N   UNL     1      -1.367  14.296  22.277  0.00  0.00    +0.000 N 
ATOM     13  C   UNL     1      -2.690  13.828  21.816  0.00  0.00    +0.000 C 
ATOM     14  C   UNL     1      -2.620  13.184  20.394  0.00  0.00    +0.000 C 
ATOM     15  N   UNL     1      -1.431  12.298  20.201  0.00  0.00    +0.000 N 
ATOM     16  C   UNL     1      -1.494  11.178  19.343  0.00  0.00    +0.000 C 
ATOM     17  O   UNL     1      -2.507  10.928  18.681  0.00  0.00    +0.000 OA
ATOM     18  C   UNL     1      -0.192  12.918  20.676  0.00  0.00    +0.000 C 
ATOM     19  C   UNL     1      -0.350  13.257  22.157  0.00  0.00    +0.000 C 
ENDBRANCH   1  16
BRANCH   4  20
ATOM     20  N   UNL     1       3.002   7.529  18.758  0.00  0.00    +0.000 N 
ATOM     21  C   UNL     1       3.115   6.143  18.978  0.00  0.00    +0.000 C 
ATOM     22  O   UNL     1       2.222   5.417  19.405  0.00  0.00    +0.000 OA
ATOM     23  H   UNL     1       3.862   7.931  18.392  0.00  0.00    +0.000 HD
BRANCH  21  24
ATOM     24  C   UNL     1       4.483   5.619  18.656  0.00  0.00    +0.000 A 
ATOM     25  N   UNL     1       5.256   5.152  19.666  0.00  0.00    +0.000 NA
ATOM     26  N   UNL     1       6.363   4.699  19.058  0.00  0.00    +0.000 N 
ATOM     27  C   UNL     1       6.356   4.798  17.698  0.00  0.00    +0.000 A 
ATOM     28  C   UNL     1       7.292   4.360  16.747  0.00  0.00    +0.000 A 
ATOM     29  C   UNL     1       7.049   4.660  15.411  0.00  0.00    +0.000 A 
ATOM     30  C   UNL     1       5.916   5.389  15.052  0.00  0.00    +0.000 A 
ATOM     31  C   UNL     1       4.969   5.794  16.022  0.00  0.00    +0.000 A 
ATOM     32  C   UNL     1       5.176   5.474  17.387  0.00  0.00    +0.000 A 
ATOM     33  H   UNL     1       7.110   4.323  19.630  0.00  0.00    +0.000 HD
ENDBRANCH  21  24
ENDBRANCH   4  20
TORSDOF 3
ENDMDL
MODEL 2
REMARK VINA RESULT:      -8.1      3.026      4.829
REMARK  Name = 
REMARK  5 active torsions:
REMARK  status: ('A' for Active; 'I' for Inactive)
REMARK    1  A    between atoms: C_1  and  N_2
REMARK    2  A    between atoms: N_2  and  C_3
REMARK    3  A    between atoms: C_10  and  C_12
REMARK    4  A    between atoms: C_15  and  N_16
REMARK    5  A    between atoms: C_17  and  C_19
REMARK                            x       y       z     vdW  Elec       q    Type
REMARK                         _______ _______ _______ _____ _____    ______ ____
ROOT
ATOM      1  C   UNL     1      -0.502  11.602  22.214  0.00  0.00    +0.000 A 
ATOM      2  C   UNL     1       0.435  11.727  21.175  0.00  0.00    +0.000 A 
ATOM      3  C   UNL     1       1.130  10.600  20.663  0.00  0.00    +0.000 A 
ATOM      4  C   UNL     1       0.962   9.333  21.219  0.00  0.00    +0.000 A 
ATOM      5  C   UNL     1       0.058   9.219  22.290  0.00  0.00    +0.000 A 
ATOM      6  C   UNL     1      -0.659  10.341  22.781  0.00  0.00    +0.000 A 
ENDROOT
BRANCH   1  16
ATOM      7  C   UNL     1      -7.916  14.097  18.925  0.00  0.00    +0.000 C 
ATOM      8  N   UNL     1      -6.630  13.661  19.455  0.00  0.00    +0.000 N 
ATOM      9  C   UNL     1      -6.496  12.219  19.617  0.00  0.00    +0.000 C 
ATOM     10  C   UNL     1      -5.864  14.631  20.089  0.00  0.00    +0.000 C 
ATOM     11  O   UNL     1      -6.315  15.777  20.253  0.00  0.00    +0.000 OA
ATOM     12  N   UNL     1      -4.613  14.302  20.579  0.00  0.00    +0.000 N 
ATOM     13  C   UNL     1      -3.914  15.218  21.503  0.00  0.00    +0.000 C 
ATOM     14  C   UNL     1      -3.167  14.447  22.638  0.00  0.00    +0.000 C 
ATOM     15  N   UNL     1      -2.454  13.225  22.156  0.00  0.00    +0.000 N 
ATOM     16  C   UNL     1      -1.266  12.785  22.780  0.00  0.00    +0.000 C 
ATOM     17  O   UNL     1      -0.811  13.355  23.778  0.00  0.00    +0.000 OA
ATOM     18  C   UNL     1      -3.290  12.402  21.277  0.00  0.00    +0.000 C 
ATOM     19  C   UNL     1      -3.729  13.250  20.085  0.00  0.00    +0.000 C 
ENDBRANCH   1  16
BRANCH   4  20
ATOM     20  N   UNL     1       1.649   8.163  20.775  0.00  0.00    +0.000 N 
ATOM     21  C   UNL     1       1.999   7.750  19.476  0.00  0.00    +0.000 C 
ATOM     22  O   UNL     1       1.763   8.372  18.445  0.00  0.00    +0.000 OA
ATOM     23  H   UNL     1       1.950   7.499  21.483  0.00  0.00    +0.000 HD
BRANCH  21  24
ATOM     24  C   UNL     1       2.689   6.418  19.463  0.00  0.00    +0.000 A 
ATOM     25  N   UNL     1       3.925   6.330  18.913  0.00  0.00    +0.000 NA
ATOM     26  N   UNL     1       4.292   5.056  19.117  0.00  0.00    +0.000 N 
ATOM     27  C   UNL     1       3.392   4.300  19.810  0.00  0.00    +0.000 A 
ATOM     28  C   UNL     1       3.475   2.975  20.266  0.00  0.00    +0.000 A 
ATOM     29  C   UNL     1       2.360   2.436  20.898  0.00  0.00    +0.000 A 
ATOM     30  C   UNL     1       1.202   3.198  21.046  0.00  0.00    +0.000 A 
ATOM     31  C   UNL     1       1.150   4.541  20.607  0.00  0.00    +0.000 A 
ATOM     32  C   UNL     1       2.282   5.126  19.988  0.00  0.00    +0.000 A 
ATOM     33  H   UNL     1       5.187   4.746  18.757  0.00  0.00    +0.000 HD
ENDBRANCH  21  24
ENDBRANCH   4  20
TORSDOF 3
ENDMDL
MODEL 3
REMARK VINA RESULT:      -8.1      2.799      4.395
REMARK  Name = 
REMARK  5 active torsions:
REMARK  status: ('A' for Active; 'I' for Inactive)
REMARK    1  A    between atoms: C_1  and  N_2
REMARK    2  A    between atoms: N_2  and  C_3
REMARK    3  A    between atoms: C_10  and  C_12
REMARK    4  A    between atoms: C_15  and  N_16
REMARK    5  A    between atoms: C_17  and  C_19
REMARK                            x       y       z     vdW  Elec       q    Type
REMARK                         _______ _______ _______ _____ _____    ______ ____
ROOT
ATOM      1  C   UNL     1      -0.434  11.504  22.249  0.00  0.00    +0.000 A 
ATOM      2  C   UNL     1       0.370  11.409  21.101  0.00  0.00    +0.000 A 
ATOM      3  C   UNL     1       0.926  10.171  20.685  0.00  0.00    +0.000 A 
ATOM      4  C   UNL     1       0.754   9.011  21.438  0.00  0.00    +0.000 A 
ATOM      5  C   UNL     1      -0.012   9.119  22.613  0.00  0.00    +0.000 A 
ATOM      6  C   UNL     1      -0.593  10.351  23.012  0.00  0.00    +0.000 A 
ENDROOT
BRANCH   1  16
ATOM      7  C   UNL     1      -7.916  14.216  19.303  0.00  0.00    +0.000 C 
ATOM      8  N   UNL     1      -6.622  13.738  19.774  0.00  0.00    +0.000 N 
ATOM      9  C   UNL     1      -6.584  12.320  20.112  0.00  0.00    +0.000 C 
ATOM     10  C   UNL     1      -5.726  14.707  20.209  0.00  0.00    +0.000 C 
ATOM     11  O   UNL     1      -6.071  15.900  20.259  0.00  0.00    +0.000 OA
ATOM     12  N   UNL     1      -4.463  14.332  20.630  0.00  0.00    +0.000 N 
ATOM     13  C   UNL     1      -3.612  15.291  21.363  0.00  0.00    +0.000 C 
ATOM     14  C   UNL     1      -2.820  14.603  22.521  0.00  0.00    +0.000 C 
ATOM     15  N   UNL     1      -2.252  13.272  22.144  0.00  0.00    +0.000 N 
ATOM     16  C   UNL     1      -1.048  12.810  22.718  0.00  0.00    +0.000 C 
ATOM     17  O   UNL     1      -0.457  13.457  23.590  0.00  0.00    +0.000 OA
ATOM     18  C   UNL     1      -3.229  12.425  21.456  0.00  0.00    +0.000 C 
ATOM     19  C   UNL     1      -3.714  13.154  20.204  0.00  0.00    +0.000 C 
ENDBRANCH   1  16
BRANCH   4  20
ATOM     20  N   UNL     1       1.308   7.741  21.096  0.00  0.00    +0.000 N 
ATOM     21  C   UNL     1       1.981   7.324  19.932  0.00  0.00    +0.000 C 
ATOM     22  O   UNL     1       2.226   8.033  18.962  0.00  0.00    +0.000 OA
ATOM     23  H   UNL     1       1.221   6.992  21.779  0.00  0.00    +0.000 HD
BRANCH  21  24
ATOM     24  C   UNL     1       2.364   5.874  19.978  0.00  0.00    +0.000 A 
ATOM     25  N   UNL     1       2.091   5.164  21.099  0.00  0.00    +0.000 NA
ATOM     26  N   UNL     1       2.479   3.913  20.806  0.00  0.00    +0.000 N 
ATOM     27  C   UNL     1       2.955   3.739  19.539  0.00  0.00    +0.000 A 
ATOM     28  C   UNL     1       3.368   2.574  18.873  0.00  0.00    +0.000 A 
ATOM     29  C   UNL     1       3.876   2.709  17.585  0.00  0.00    +0.000 A 
ATOM     30  C   UNL     1       3.981   3.971  17.002  0.00  0.00    +0.000 A 
ATOM     31  C   UNL     1       3.531   5.129  17.679  0.00  0.00    +0.000 A 
ATOM     32  C   UNL     1       2.979   5.017  18.979  0.00  0.00    +0.000 A 
ATOM     33  H   UNL     1       2.395   3.200  21.520  0.00  0.00    +0.000 HD
ENDBRANCH  21  24
ENDBRANCH   4  20
TORSDOF 3
ENDMDL
MODEL 4
REMARK VINA RESULT:      -8.0      2.531      3.366
REMARK  Name = 
REMARK  5 active torsions:
REMARK  status: ('A' for Active; 'I' for Inactive)
REMARK    1  A    between atoms: C_1  and  N_2
REMARK    2  A    between atoms: N_2  and  C_3
REMARK    3  A    between atoms: C_10  and  C_12
REMARK    4  A    between atoms: C_15  and  N_16
REMARK    5  A    between atoms: C_17  and  C_19
REMARK                            x       y       z     vdW  Elec       q    Type
REMARK                         _______ _______ _______ _____ _____    ______ ____
ROOT
ATOM      1  C   UNL     1      -0.388  10.593  22.016  0.00  0.00    +0.000 A 
ATOM      2  C   UNL     1      -0.436  10.275  20.649  0.00  0.00    +0.000 A 
ATOM      3  C   UNL     1       0.280   9.171  20.117  0.00  0.00    +0.000 A 
ATOM      4  C   UNL     1       1.117   8.398  20.919  0.00  0.00    +0.000 A 
ATOM      5  C   UNL     1       1.201   8.747  22.279  0.00  0.00    +0.000 A 
ATOM      6  C   UNL     1       0.461   9.832  22.816  0.00  0.00    +0.000 A 
ENDROOT
BRANCH   1  16
ATOM      7  C   UNL     1       1.795  18.628  20.377  0.00  0.00    +0.000 C 
ATOM      8  N   UNL     1       1.457  17.238  20.660  0.00  0.00    +0.000 N 
ATOM      9  C   UNL     1       1.448  16.364  19.493  0.00  0.00    +0.000 C 
ATOM     10  C   UNL     1       0.824  16.992  21.872  0.00  0.00    +0.000 C 
ATOM     11  O   UNL     1       0.503  17.936  22.614  0.00  0.00    +0.000 OA
ATOM     12  N   UNL     1       0.511  15.692  22.228  0.00  0.00    +0.000 N 
ATOM     13  C   UNL     1      -0.410  15.434  23.353  0.00  0.00    +0.000 C 
ATOM     14  C   UNL     1      -1.376  14.242  23.056  0.00  0.00    +0.000 C 
ATOM     15  N   UNL     1      -0.703  13.083  22.392  0.00  0.00    +0.000 N 
ATOM     16  C   UNL     1      -1.146  11.762  22.618  0.00  0.00    +0.000 C 
ATOM     17  O   UNL     1      -2.135  11.522  23.319  0.00  0.00    +0.000 OA
ATOM     18  C   UNL     1       0.149  13.500  21.276  0.00  0.00    +0.000 C 
ATOM     19  C   UNL     1       1.199  14.478  21.799  0.00  0.00    +0.000 C 
ENDBRANCH   1  16
BRANCH   4  20
ATOM     20  N   UNL     1       1.888   7.294  20.446  0.00  0.00    +0.000 N 
ATOM     21  C   UNL     1       2.600   7.128  19.244  0.00  0.00    +0.000 C 
ATOM     22  O   UNL     1       2.688   7.964  18.350  0.00  0.00    +0.000 OA
ATOM     23  H   UNL     1       1.958   6.478  21.049  0.00  0.00    +0.000 HD
BRANCH  21  24
ATOM     24  C   UNL     1       3.245   5.778  19.139  0.00  0.00    +0.000 A 
ATOM     25  N   UNL     1       4.586   5.681  19.309  0.00  0.00    +0.000 NA
ATOM     26  N   UNL     1       4.840   4.366  19.229  0.00  0.00    +0.000 N 
ATOM     27  C   UNL     1       3.741   3.576  19.060  0.00  0.00    +0.000 A 
ATOM     28  C   UNL     1       3.622   2.177  19.016  0.00  0.00    +0.000 A 
ATOM     29  C   UNL     1       2.364   1.642  18.761  0.00  0.00    +0.000 A 
ATOM     30  C   UNL     1       1.275   2.484  18.541  0.00  0.00    +0.000 A 
ATOM     31  C   UNL     1       1.410   3.889  18.620  0.00  0.00    +0.000 A 
ATOM     32  C   UNL     1       2.673   4.462  18.909  0.00  0.00    +0.000 A 
ATOM     33  H   UNL     1       5.800   4.053  19.300  0.00  0.00    +0.000 HD
ENDBRANCH  21  24
ENDBRANCH   4  20
TORSDOF 3
ENDMDL
MODEL 5
REMARK VINA RESULT:      -8.0      1.902      2.489
REMARK  Name = 
REMARK  5 active torsions:
REMARK  status: ('A' for Active; 'I' for Inactive)
REMARK    1  A    between atoms: C_1  and  N_2
REMARK    2  A    between atoms: N_2  and  C_3
REMARK    3  A    between atoms: C_10  and  C_12
REMARK    4  A    between atoms: C_15  and  N_16
REMARK    5  A    between atoms: C_17  and  C_19
REMARK                            x       y       z     vdW  Elec       q    Type
REMARK                         _______ _______ _______ _____ _____    ______ ____
ROOT
ATOM      1  C   UNL     1      -0.008  10.291  21.742  0.00  0.00    +0.000 A 
ATOM      2  C   UNL     1       0.088  10.225  20.342  0.00  0.00    +0.000 A 
ATOM      3  C   UNL     1       0.843   9.212  19.696  0.00  0.00    +0.000 A 
ATOM      4  C   UNL     1       1.578   8.280  20.426  0.00  0.00    +0.000 A 
ATOM      5  C   UNL     1       1.518   8.377  21.828  0.00  0.00    +0.000 A 
ATOM      6  C   UNL     1       0.739   9.371  22.473  0.00  0.00    +0.000 A 
ENDROOT
BRANCH   1  16
ATOM      7  C   UNL     1       1.198  18.554  20.231  0.00  0.00    +0.000 C 
ATOM      8  N   UNL     1       1.028  17.128  20.488  0.00  0.00    +0.000 N 
ATOM      9  C   UNL     1       0.985  16.296  19.292  0.00  0.00    +0.000 C 
ATOM     10  C   UNL     1       0.550  16.781  21.746  0.00  0.00    +0.000 C 
ATOM     11  O   UNL     1       0.216  17.663  22.554  0.00  0.00    +0.000 OA
ATOM     12  N   UNL     1       0.405  15.446  22.077  0.00  0.00    +0.000 N 
ATOM     13  C   UNL     1      -0.367  15.059  23.275  0.00  0.00    +0.000 C 
ATOM     14  C   UNL     1      -1.236  13.785  23.026  0.00  0.00    +0.000 C 
ATOM     15  N   UNL     1      -0.525  12.723  22.251  0.00  0.00    +0.000 N 
ATOM     16  C   UNL     1      -0.810  11.357  22.464  0.00  0.00    +0.000 C 
ATOM     17  O   UNL     1      -1.694  10.996  23.249  0.00  0.00    +0.000 OA
ATOM     18  C   UNL     1       0.163  13.259  21.074  0.00  0.00    +0.000 C 
ATOM     19  C   UNL     1       1.160  14.322  21.531  0.00  0.00    +0.000 C 
ENDBRANCH   1  16
BRANCH   4  20
ATOM     20  N   UNL     1       2.381   7.254  19.843  0.00  0.00    +0.000 N 
ATOM     21  C   UNL     1       2.320   5.856  19.989  0.00  0.00    +0.000 C 
ATOM     22  O   UNL     1       1.508   5.249  20.680  0.00  0.00    +0.000 OA
ATOM     23  H   UNL     1       3.127   7.543  19.215  0.00  0.00    +0.000 HD
BRANCH  21  24
ATOM     24  C   UNL     1       3.394   5.150  19.215  0.00  0.00    +0.000 A 
ATOM     25  N   UNL     1       3.767   3.907  19.604  0.00  0.00    +0.000 NA
ATOM     26  N   UNL     1       4.673   3.528  18.690  0.00  0.00    +0.000 N 
ATOM     27  C   UNL     1       4.893   4.428  17.689  0.00  0.00    +0.000 A 
ATOM     28  C   UNL     1       5.698   4.335  16.541  0.00  0.00    +0.000 A 
ATOM     29  C   UNL     1       5.781   5.453  15.717  0.00  0.00    +0.000 A 
ATOM     30  C   UNL     1       5.097   6.621  16.048  0.00  0.00    +0.000 A 
ATOM     31  C   UNL     1       4.268   6.683  17.192  0.00  0.00    +0.000 A 
ATOM     32  C   UNL     1       4.139   5.550  18.033  0.00  0.00    +0.000 A 
ATOM     33  H   UNL     1       5.120   2.625  18.796  0.00  0.00    +0.000 HD
ENDBRANCH  21  24
ENDBRANCH   4  20
TORSDOF 3
ENDMDL
MODEL 6
REMARK VINA RESULT:      -8.0      2.153      2.533
REMARK  Name = 
REMARK  5 active torsions:
REMARK  status: ('A' for Active; 'I' for Inactive)
REMARK    1  A    between atoms: C_1  and  N_2
REMARK    2  A    between atoms: N_2  and  C_3
REMARK    3  A    between atoms: C_10  and  C_12
REMARK    4  A    between atoms: C_15  and  N_16
REMARK    5  A    between atoms: C_17  and  C_19
REMARK                            x       y       z     vdW  Elec       q    Type
REMARK                         _______ _______ _______ _____ _____    ______ ____
ROOT
ATOM      1  C   UNL     1       0.560  10.429  19.907  0.00  0.00    +0.000 A 
ATOM      2  C   UNL     1       0.932   9.417  20.807  0.00  0.00    +0.000 A 
ATOM      3  C   UNL     1       1.656   8.273  20.380  0.00  0.00    +0.000 A 
ATOM      4  C   UNL     1       1.967   8.074  19.037  0.00  0.00    +0.000 A 
ATOM      5  C   UNL     1       1.553   9.066  18.131  0.00  0.00    +0.000 A 
ATOM      6  C   UNL     1       0.856  10.224  18.562  0.00  0.00    +0.000 A 
ENDROOT
BRANCH   1  16
ATOM      7  C   UNL     1       4.404  17.927  20.917  0.00  0.00    +0.000 C 
ATOM      8  N   UNL     1       3.774  16.622  20.759  0.00  0.00    +0.000 N 
ATOM      9  C   UNL     1       4.175  15.894  19.561  0.00  0.00    +0.000 C 
ATOM     10  C   UNL     1       2.626  16.396  21.509  0.00  0.00    +0.000 C 
ATOM     11  O   UNL     1       2.143  17.307  22.202  0.00  0.00    +0.000 OA
ATOM     12  N   UNL     1       1.998  15.165  21.443  0.00  0.00    +0.000 N 
ATOM     13  C   UNL     1       0.636  14.999  21.989  0.00  0.00    +0.000 C 
ATOM     14  C   UNL     1      -0.248  14.080  21.085  0.00  0.00    +0.000 C 
ATOM     15  N   UNL     1       0.477  12.878  20.572  0.00  0.00    +0.000 N 
ATOM     16  C   UNL     1      -0.208  11.667  20.331  0.00  0.00    +0.000 C 
ATOM     17  O   UNL     1      -1.433  11.577  20.477  0.00  0.00    +0.000 OA
ATOM     18  C   UNL     1       1.798  13.212  20.033  0.00  0.00    +0.000 C 
ATOM     19  C   UNL     1       2.620  13.882  21.132  0.00  0.00    +0.000 C 
ENDBRANCH   1  16
BRANCH   4  20
ATOM     20  N   UNL     1       2.665   6.935  18.534  0.00  0.00    +0.000 N 
ATOM     21  C   UNL     1       2.577   5.578  18.898  0.00  0.00    +0.000 C 
ATOM     22  O   UNL     1       1.830   5.121  19.757  0.00  0.00    +0.000 OA
ATOM     23  H   UNL     1       3.344   7.090  17.793  0.00  0.00    +0.000 HD
BRANCH  21  24
ATOM     24  C   UNL     1       3.533   4.714  18.130  0.00  0.00    +0.000 A 
ATOM     25  N   UNL     1       3.586   3.390  18.413  0.00  0.00    +0.000 NA
ATOM     26  N   UNL     1       4.462   2.893  17.527  0.00  0.00    +0.000 N 
ATOM     27  C   UNL     1       4.964   3.800  16.641  0.00  0.00    +0.000 A 
ATOM     28  C   UNL     1       5.826   3.624  15.547  0.00  0.00    +0.000 A 
ATOM     29  C   UNL     1       6.228   4.759  14.849  0.00  0.00    +0.000 A 
ATOM     30  C   UNL     1       5.792   6.020  15.252  0.00  0.00    +0.000 A 
ATOM     31  C   UNL     1       4.900   6.172  16.338  0.00  0.00    +0.000 A 
ATOM     32  C   UNL     1       4.449   5.032  17.047  0.00  0.00    +0.000 A 
ATOM     33  H   UNL     1       4.687   1.906  17.570  0.00  0.00    +0.000 HD
ENDBRANCH  21  24
ENDBRANCH   4  20
TORSDOF 3
ENDMDL
MODEL 7
REMARK VINA RESULT:      -7.9      1.178      1.262
REMARK  Name = 
REMARK  5 active torsions:
REMARK  status: ('A' for Active; 'I' for Inactive)
REMARK    1  A    between atoms: C_1  and  N_2
REMARK    2  A    between atoms: N_2  and  C_3
REMARK    3  A    between atoms: C_10  and  C_12
REMARK    4  A    between atoms: C_15  and  N_16
REMARK    5  A    between atoms: C_17  and  C_19
REMARK                            x       y       z     vdW  Elec       q    Type
REMARK                         _______ _______ _______ _____ _____    ______ ____
ROOT
ATOM      1  C   UNL     1      -0.030  10.456  19.455  0.00  0.00    +0.000 A 
ATOM      2  C   UNL     1       0.416   9.644  20.511  0.00  0.00    +0.000 A 
ATOM      3  C   UNL     1       1.391   8.633  20.309  0.00  0.00    +0.000 A 
ATOM      4  C   UNL     1       1.896   8.357  19.040  0.00  0.00    +0.000 A 
ATOM      5  C   UNL     1       1.413   9.140  17.976  0.00  0.00    +0.000 A 
ATOM      6  C   UNL     1       0.461  10.171  18.183  0.00  0.00    +0.000 A 
ENDROOT
BRANCH   1  16
ATOM      7  C   UNL     1       2.113  18.219  22.130  0.00  0.00    +0.000 C 
ATOM      8  N   UNL     1       1.770  16.870  21.694  0.00  0.00    +0.000 N 
ATOM      9  C   UNL     1       2.661  16.313  20.684  0.00  0.00    +0.000 C 
ATOM     10  C   UNL     1       0.479  16.441  21.974  0.00  0.00    +0.000 C 
ATOM     11  O   UNL     1      -0.340  17.218  22.494  0.00  0.00    +0.000 OA
ATOM     12  N   UNL     1       0.095  15.158  21.630  0.00  0.00    +0.000 N 
ATOM     13  C   UNL     1      -1.333  14.782  21.646  0.00  0.00    +0.000 C 
ATOM     14  C   UNL     1      -1.709  13.857  20.444  0.00  0.00    +0.000 C 
ATOM     15  N   UNL     1      -0.687  12.802  20.164  0.00  0.00    +0.000 N 
ATOM     16  C   UNL     1      -1.066  11.549  19.637  0.00  0.00    +0.000 C 
ATOM     17  O   UNL     1      -2.239  11.303  19.333  0.00  0.00    +0.000 OA
ATOM     18  C   UNL     1       0.676  13.338  20.148  0.00  0.00    +0.000 C 
ATOM     19  C   UNL     1       0.962  13.991  21.499  0.00  0.00    +0.000 C 
ENDBRANCH   1  16
BRANCH   4  20
ATOM     20  N   UNL     1       2.855   7.337  18.760  0.00  0.00    +0.000 N 
ATOM     21  C   UNL     1       2.968   6.029  19.268  0.00  0.00    +0.000 C 
ATOM     22  O   UNL     1       2.207   5.515  20.081  0.00  0.00    +0.000 OA
ATOM     23  H   UNL     1       3.588   7.554  18.091  0.00  0.00    +0.000 HD
BRANCH  21  24
ATOM     24  C   UNL     1       4.163   5.304  18.724  0.00  0.00    +0.000 A 
ATOM     25  N   UNL     1       4.729   4.327  19.475  0.00  0.00    +0.000 NA
ATOM     26  N   UNL     1       5.707   3.834  18.699  0.00  0.00    +0.000 N 
ATOM     27  C   UNL     1       5.798   4.395  17.459  0.00  0.00    +0.000 A 
ATOM     28  C   UNL     1       6.634   4.079  16.376  0.00  0.00    +0.000 A 
ATOM     29  C   UNL     1       6.550   4.876  15.239  0.00  0.00    +0.000 A 
ATOM     30  C   UNL     1       5.673   5.959  15.206  0.00  0.00    +0.000 A 
ATOM     31  C   UNL     1       4.818   6.241  16.296  0.00  0.00    +0.000 A 
ATOM     32  C   UNL     1       4.859   5.427  17.455  0.00  0.00    +0.000 A 
ATOM     33  H   UNL     1       6.296   3.098  19.071  0.00  0.00    +0.000 HD
ENDBRANCH  21  24
ENDBRANCH   4  20
TORSDOF 3
ENDMDL
MODEL 8
REMARK VINA RESULT:      -7.9      2.330      3.260
REMARK  Name = 
REMARK  5 active torsions:
REMARK  status: ('A' for Active; 'I' for Inactive)
REMARK    1  A    between atoms: C_1  and  N_2
REMARK    2  A    between atoms: N_2  and  C_3
REMARK    3  A    between atoms: C_10  and  C_12
REMARK    4  A    between atoms: C_15  and  N_16
REMARK    5  A    between atoms: C_17  and  C_19
REMARK                            x       y       z     vdW  Elec       q    Type
REMARK                         _______ _______ _______ _____ _____    ______ ____
ROOT
ATOM      1  C   UNL     1       1.469   8.098  19.905  0.00  0.00    +0.000 A 
ATOM      2  C   UNL     1       2.189   6.923  20.178  0.00  0.00    +0.000 A 
ATOM      3  C   UNL     1       3.163   6.423  19.275  0.00  0.00    +0.000 A 
ATOM      4  C   UNL     1       3.395   7.039  18.047  0.00  0.00    +0.000 A 
ATOM      5  C   UNL     1       2.639   8.188  17.756  0.00  0.00    +0.000 A 
ATOM      6  C   UNL     1       1.687   8.705  18.672  0.00  0.00    +0.000 A 
ENDROOT
BRANCH   1  16
ATOM      7  C   UNL     1      -0.583  16.332  19.863  0.00  0.00    +0.000 C 
ATOM      8  N   UNL     1      -0.194  14.927  19.865  0.00  0.00    +0.000 N 
ATOM      9  C   UNL     1      -0.073  14.328  18.541  0.00  0.00    +0.000 C 
ATOM     10  C   UNL     1      -0.363  14.241  21.062  0.00  0.00    +0.000 C 
ATOM     11  O   UNL     1      -0.896  14.802  22.034  0.00  0.00    +0.000 OA
ATOM     12  N   UNL     1       0.024  12.916  21.151  0.00  0.00    +0.000 N 
ATOM     13  C   UNL     1      -0.409  12.094  22.299  0.00  0.00    +0.000 C 
ATOM     14  C   UNL     1      -0.781  10.639  21.868  0.00  0.00    +0.000 C 
ATOM     15  N   UNL     1       0.170  10.051  20.875  0.00  0.00    +0.000 N 
ATOM     16  C   UNL     1       0.425   8.663  20.851  0.00  0.00    +0.000 C 
ATOM     17  O   UNL     1      -0.170   7.883  21.603  0.00  0.00    +0.000 OA
ATOM     18  C   UNL     1       0.474  10.976  19.781  0.00  0.00    +0.000 C 
ATOM     19  C   UNL     1       1.065  12.255  20.370  0.00  0.00    +0.000 C 
ENDBRANCH   1  16
BRANCH   4  20
ATOM     20  N   UNL     1       4.336   6.574  17.080  0.00  0.00    +0.000 N 
ATOM     21  C   UNL     1       4.705   5.264  16.724  0.00  0.00    +0.000 C 
ATOM     22  O   UNL     1       4.242   4.238  17.213  0.00  0.00    +0.000 OA
ATOM     23  H   UNL     1       4.840   7.275  16.542  0.00  0.00    +0.000 HD
BRANCH  21  24
ATOM     24  C   UNL     1       5.775   5.233  15.672  0.00  0.00    +0.000 A 
ATOM     25  N   UNL     1       6.956   5.847  15.927  0.00  0.00    +0.000 NA
ATOM     26  N   UNL     1       7.709   5.585  14.847  0.00  0.00    +0.000 N 
ATOM     27  C   UNL     1       7.113   4.796  13.907  0.00  0.00    +0.000 A 
ATOM     28  C   UNL     1       7.621   4.264  12.710  0.00  0.00    +0.000 A 
ATOM     29  C   UNL     1       6.752   3.536  11.905  0.00  0.00    +0.000 A 
ATOM     30  C   UNL     1       5.420   3.369  12.283  0.00  0.00    +0.000 A 
ATOM     31  C   UNL     1       4.937   3.887  13.507  0.00  0.00    +0.000 A 
ATOM     32  C   UNL     1       5.808   4.606  14.362  0.00  0.00    +0.000 A 
ATOM     33  H   UNL     1       8.642   5.976  14.801  0.00  0.00    +0.000 HD
ENDBRANCH  21  24
ENDBRANCH   4  20
TORSDOF 3
ENDMDL
MODEL 9
REMARK VINA RESULT:      -7.9      3.140      3.887
REMARK  Name = 
REMARK  5 active torsions:
REMARK  status: ('A' for Active; 'I' for Inactive)
REMARK    1  A    between atoms: C_1  and  N_2
REMARK    2  A    between atoms: N_2  and  C_3
REMARK    3  A    between atoms: C_10  and  C_12
REMARK    4  A    between atoms: C_15  and  N_16
REMARK    5  A    between atoms: C_17  and  C_19
REMARK                            x       y       z     vdW  Elec       q    Type
REMARK                         _______ _______ _______ _____ _____    ______ ____
ROOT
ATOM      1  C   UNL     1       0.814  10.953  19.267  0.00  0.00    +0.000 A 
ATOM      2  C   UNL     1       0.834  10.019  20.315  0.00  0.00    +0.000 A 
ATOM      3  C   UNL     1       1.402   8.728  20.149  0.00  0.00    +0.000 A 
ATOM      4  C   UNL     1       1.900   8.310  18.917  0.00  0.00    +0.000 A 
ATOM      5  C   UNL     1       1.836   9.231  17.856  0.00  0.00    +0.000 A 
ATOM      6  C   UNL     1       1.296  10.532  18.031  0.00  0.00    +0.000 A 
ENDROOT
BRANCH   1  16
ATOM      7  C   UNL     1       5.722  17.815  20.185  0.00  0.00    +0.000 C 
ATOM      8  N   UNL     1       4.903  16.616  20.050  0.00  0.00    +0.000 N 
ATOM      9  C   UNL     1       5.356  15.682  19.027  0.00  0.00    +0.000 C 
ATOM     10  C   UNL     1       3.626  16.677  20.596  0.00  0.00    +0.000 C 
ATOM     11  O   UNL     1       3.207  17.736  21.091  0.00  0.00    +0.000 OA
ATOM     12  N   UNL     1       2.807  15.563  20.543  0.00  0.00    +0.000 N 
ATOM     13  C   UNL     1       1.367  15.689  20.845  0.00  0.00    +0.000 C 
ATOM     14  C   UNL     1       0.492  14.810  19.894  0.00  0.00    +0.000 C 
ATOM     15  N   UNL     1       1.063  13.450  19.649  0.00  0.00    +0.000 N 
ATOM     16  C   UNL     1       0.221  12.342  19.413  0.00  0.00    +0.000 C 
ATOM     17  O   UNL     1      -1.007  12.467  19.341  0.00  0.00    +0.000 OA
ATOM     18  C   UNL     1       2.492  13.496  19.330  0.00  0.00    +0.000 C 
ATOM     19  C   UNL     1       3.231  14.168  20.486  0.00  0.00    +0.000 C 
ENDBRANCH   1  16
BRANCH   4  20
ATOM     20  N   UNL     1       2.456   7.019  18.671  0.00  0.00    +0.000 N 
ATOM     21  C   UNL     1       3.596   6.643  17.936  0.00  0.00    +0.000 C 
ATOM     22  O   UNL     1       4.353   7.415  17.356  0.00  0.00    +0.000 OA
ATOM     23  H   UNL     1       1.979   6.218  19.076  0.00  0.00    +0.000 HD
BRANCH  21  24
ATOM     24  C   UNL     1       3.795   5.157  17.904  0.00  0.00    +0.000 A 
ATOM     25  N   UNL     1       5.028   4.670  17.623  0.00  0.00    +0.000 NA
ATOM     26  N   UNL     1       4.897   3.339  17.740  0.00  0.00    +0.000 N 
ATOM     27  C   UNL     1       3.660   2.913  18.125  0.00  0.00    +0.000 A 
ATOM     28  C   UNL     1       3.192   1.622  18.419  0.00  0.00    +0.000 A 
ATOM     29  C   UNL     1       1.843   1.477  18.728  0.00  0.00    +0.000 A 
ATOM     30  C   UNL     1       0.999   2.586  18.721  0.00  0.00    +0.000 A 
ATOM     31  C   UNL     1       1.497   3.882  18.452  0.00  0.00    +0.000 A 
ATOM     32  C   UNL     1       2.872   4.064  18.165  0.00  0.00    +0.000 A 
ATOM     33  H   UNL     1       5.700   2.754  17.542  0.00  0.00    +0.000 HD
ENDBRANCH  21  24
ENDBRANCH   4  20
TORSDOF 3
ENDMDL
