MODEL 1
REMARK VINA RESULT:      -9.1      0.000      0.000
REMARK  Name = 
REMARK  6 active torsions:
REMARK  status: ('A' for Active; 'I' for Inactive)
REMARK    1  A    between atoms: C_1  and  O_2
REMARK    2  A    between atoms: O_2  and  C_3
REMARK    3  A    between atoms: C_6  and  C_7
REMARK    4  A    between atoms: N_8  and  N_9
REMARK    5  A    between atoms: N_9  and  C_10
REMARK    6  A    between atoms: C_18  and  C_19
REMARK                            x       y       z     vdW  Elec       q    Type
REMARK                         _______ _______ _______ _____ _____    ______ ____
ROOT
ATOM      1  C   UNL     1       2.692   8.097  18.035  0.00  0.00    +0.000 C 
ATOM      2  N   UNL     1       1.456   8.487  17.985  0.00  0.00    +0.000 NA
ENDROOT
BRANCH   1   6
ATOM      3  C   UNL     1       3.542   3.943  18.679  0.00  0.00    +0.000 A 
ATOM      4  C   UNL     1       2.626   4.631  19.473  0.00  0.00    +0.000 A 
ATOM      5  C   UNL     1       2.375   5.977  19.239  0.00  0.00    +0.000 A 
ATOM      6  C   UNL     1       3.037   6.663  18.212  0.00  0.00    +0.000 A 
ATOM      7  C   UNL     1       3.987   5.998  17.389  0.00  0.00    +0.000 A 
ATOM      8  C   UNL     1       4.715   6.622  16.342  0.00  0.00    +0.000 A 
ATOM      9  C   UNL     1       5.633   5.923  15.556  0.00  0.00    +0.000 A 
ATOM     10  C   UNL     1       5.853   4.577  15.789  0.00  0.00    +0.000 A 
ATOM     11  C   UNL     1       5.159   3.935  16.813  0.00  0.00    +0.000 A 
ATOM     12  C   UNL     1       4.228   4.615  17.631  0.00  0.00    +0.000 A 
BRANCH   3  14
ATOM     13  C   UNL     1       4.429   2.218  20.082  0.00  0.00    +0.000 C 
ATOM     14  O   UNL     1       3.836   2.609  18.849  0.00  0.00    +0.000 OA
ENDBRANCH   3  14
ENDBRANCH   1   6
BRANCH   2  15
ATOM     15  N   UNL     1       1.272   9.824  17.825  0.00  0.00    +0.000 N 
ATOM     16  H   UNL     1       1.301  10.200  16.882  0.00  0.00    +0.000 HD
BRANCH  15  17
ATOM     17  C   UNL     1       0.294  10.456  18.644  0.00  0.00    +0.000 A 
ATOM     18  C   UNL     1       0.666  11.054  19.852  0.00  0.00    +0.000 A 
ATOM     19  C   UNL     1      -0.289  11.712  20.598  0.00  0.00    +0.000 A 
ATOM     20  N   UNL     1      -1.574  11.841  20.220  0.00  0.00    +0.000 NA
ATOM     21  C   UNL     1      -1.936  11.320  19.040  0.00  0.00    +0.000 A 
ATOM     22  C   UNL     1      -3.248  11.507  18.638  0.00  0.00    +0.000 A 
ATOM     23  C   UNL     1      -3.700  11.036  17.411  0.00  0.00    +0.000 A 
ATOM     24  F   UNL     1      -4.977  11.261  17.065  0.00  0.00    +0.000 F 
ATOM     25  C   UNL     1      -2.855  10.357  16.544  0.00  0.00    +0.000 A 
ATOM     26  C   UNL     1      -3.326   9.872  15.208  0.00  0.00    +0.000 C 
ATOM     27  C   UNL     1      -1.531  10.139  16.947  0.00  0.00    +0.000 A 
ATOM     28  C   UNL     1      -1.046  10.617  18.193  0.00  0.00    +0.000 A 
ENDBRANCH  15  17
ENDBRANCH   2  15
TORSDOF 4
ENDMDL
MODEL 2
REMARK VINA RESULT:      -9.1      4.319      9.059
REMARK  Name = 
REMARK  6 active torsions:
REMARK  status: ('A' for Active; 'I' for Inactive)
REMARK    1  A    between atoms: C_1  and  O_2
REMARK    2  A    between atoms: O_2  and  C_3
REMARK    3  A    between atoms: C_6  and  C_7
REMARK    4  A    between atoms: N_8  and  N_9
REMARK    5  A    between atoms: N_9  and  C_10
REMARK    6  A    between atoms: C_18  and  C_19
REMARK                            x       y       z     vdW  Elec       q    Type
REMARK                         _______ _______ _______ _____ _____    ______ ____
ROOT
ATOM      1  C   UNL     1       2.125   7.674  19.941  0.00  0.00    +0.000 C 
ATOM      2  N   UNL     1       1.696   6.587  20.505  0.00  0.00    +0.000 NA
ENDROOT
BRANCH   1   6
ATOM      3  C   UNL     1      -0.376  11.113  19.380  0.00  0.00    +0.000 A 
ATOM      4  C   UNL     1       0.314  10.532  18.318  0.00  0.00    +0.000 A 
ATOM      5  C   UNL     1       1.118   9.420  18.534  0.00  0.00    +0.000 A 
ATOM      6  C   UNL     1       1.252   8.869  19.815  0.00  0.00    +0.000 A 
ATOM      7  C   UNL     1       0.573   9.440  20.926  0.00  0.00    +0.000 A 
ATOM      8  C   UNL     1       0.668   8.957  22.258  0.00  0.00    +0.000 A 
ATOM      9  C   UNL     1      -0.025   9.550  23.315  0.00  0.00    +0.000 A 
ATOM     10  C   UNL     1      -0.839  10.643  23.076  0.00  0.00    +0.000 A 
ATOM     11  C   UNL     1      -0.951  11.146  21.781  0.00  0.00    +0.000 A 
ATOM     12  C   UNL     1      -0.257  10.574  20.690  0.00  0.00    +0.000 A 
BRANCH   3  14
ATOM     13  C   UNL     1      -0.604  13.412  18.757  0.00  0.00    +0.000 C 
ATOM     14  O   UNL     1      -1.194  12.211  19.239  0.00  0.00    +0.000 OA
ENDBRANCH   3  14
ENDBRANCH   1   6
BRANCH   2  15
ATOM     15  N   UNL     1       2.587   5.563  20.553  0.00  0.00    +0.000 N 
ATOM     16  H   UNL     1       2.615   4.994  21.395  0.00  0.00    +0.000 HD
BRANCH  15  17
ATOM     17  C   UNL     1       2.784   4.804  19.365  0.00  0.00    +0.000 A 
ATOM     18  C   UNL     1       1.691   4.235  18.703  0.00  0.00    +0.000 A 
ATOM     19  C   UNL     1       1.901   3.555  17.523  0.00  0.00    +0.000 A 
ATOM     20  N   UNL     1       3.107   3.421  16.942  0.00  0.00    +0.000 NA
ATOM     21  C   UNL     1       4.158   4.005  17.535  0.00  0.00    +0.000 A 
ATOM     22  C   UNL     1       5.383   3.906  16.899  0.00  0.00    +0.000 A 
ATOM     23  C   UNL     1       6.518   4.516  17.421  0.00  0.00    +0.000 A 
ATOM     24  F   UNL     1       7.676   4.403  16.753  0.00  0.00    +0.000 F 
ATOM     25  C   UNL     1       6.466   5.243  18.603  0.00  0.00    +0.000 A 
ATOM     26  C   UNL     1       7.677   5.926  19.157  0.00  0.00    +0.000 C 
ATOM     27  C   UNL     1       5.238   5.332  19.271  0.00  0.00    +0.000 A 
ATOM     28  C   UNL     1       4.064   4.723  18.752  0.00  0.00    +0.000 A 
ENDBRANCH  15  17
ENDBRANCH   2  15
TORSDOF 4
ENDMDL
MODEL 3
REMARK VINA RESULT:      -9.0      4.058      8.771
REMARK  Name = 
REMARK  6 active torsions:
REMARK  status: ('A' for Active; 'I' for Inactive)
REMARK    1  A    between atoms: C_1  and  O_2
REMARK    2  A    between atoms: O_2  and  C_3
REMARK    3  A    between atoms: C_6  and  C_7
REMARK    4  A    between atoms: N_8  and  N_9
REMARK    5  A    between atoms: N_9  and  C_10
REMARK    6  A    between atoms: C_18  and  C_19
REMARK                            x       y       z     vdW  Elec       q    Type
REMARK                         _______ _______ _______ _____ _____    ______ ____
ROOT
ATOM      1  C   UNL     1       1.854   7.826  20.632  0.00  0.00    +0.000 C 
ATOM      2  N   UNL     1       1.298   6.655  20.625  0.00  0.00    +0.000 NA
ENDROOT
BRANCH   1   6
ATOM      3  C   UNL     1      -0.304  11.299  19.337  0.00  0.00    +0.000 A 
ATOM      4  C   UNL     1       0.511  10.580  18.465  0.00  0.00    +0.000 A 
ATOM      5  C   UNL     1       1.198   9.461  18.917  0.00  0.00    +0.000 A 
ATOM      6  C   UNL     1       1.089   9.041  20.249  0.00  0.00    +0.000 A 
ATOM      7  C   UNL     1       0.277   9.755  21.171  0.00  0.00    +0.000 A 
ATOM      8  C   UNL     1       0.125   9.409  22.540  0.00  0.00    +0.000 A 
ATOM      9  C   UNL     1      -0.691  10.140  23.406  0.00  0.00    +0.000 A 
ATOM     10  C   UNL     1      -1.386  11.238  22.931  0.00  0.00    +0.000 A 
ATOM     11  C   UNL     1      -1.256  11.608  21.594  0.00  0.00    +0.000 A 
ATOM     12  C   UNL     1      -0.432  10.895  20.694  0.00  0.00    +0.000 A 
BRANCH   3  14
ATOM     13  C   UNL     1      -0.303  13.470  18.328  0.00  0.00    +0.000 C 
ATOM     14  O   UNL     1      -1.018  12.413  18.958  0.00  0.00    +0.000 OA
ENDBRANCH   3  14
ENDBRANCH   1   6
BRANCH   2  15
ATOM     15  N   UNL     1       2.104   5.624  20.989  0.00  0.00    +0.000 N 
ATOM     16  H   UNL     1       2.143   5.373  21.974  0.00  0.00    +0.000 HD
BRANCH  15  17
ATOM     17  C   UNL     1       2.157   4.492  20.128  0.00  0.00    +0.000 A 
ATOM     18  C   UNL     1       1.294   3.410  20.331  0.00  0.00    +0.000 A 
ATOM     19  C   UNL     1       1.324   2.352  19.448  0.00  0.00    +0.000 A 
ATOM     20  N   UNL     1       2.126   2.302  18.369  0.00  0.00    +0.000 NA
ATOM     21  C   UNL     1       2.921   3.353  18.129  0.00  0.00    +0.000 A 
ATOM     22  C   UNL     1       3.701   3.313  16.986  0.00  0.00    +0.000 A 
ATOM     23  C   UNL     1       4.525   4.376  16.637  0.00  0.00    +0.000 A 
ATOM     24  F   UNL     1       5.246   4.291  15.509  0.00  0.00    +0.000 F 
ATOM     25  C   UNL     1       4.600   5.518  17.424  0.00  0.00    +0.000 A 
ATOM     26  C   UNL     1       5.464   6.679  17.041  0.00  0.00    +0.000 C 
ATOM     27  C   UNL     1       3.835   5.563  18.597  0.00  0.00    +0.000 A 
ATOM     28  C   UNL     1       2.981   4.491  18.969  0.00  0.00    +0.000 A 
ENDBRANCH  15  17
ENDBRANCH   2  15
TORSDOF 4
ENDMDL
MODEL 4
REMARK VINA RESULT:      -8.8      4.028      8.582
REMARK  Name = 
REMARK  6 active torsions:
REMARK  status: ('A' for Active; 'I' for Inactive)
REMARK    1  A    between atoms: C_1  and  O_2
REMARK    2  A    between atoms: O_2  and  C_3
REMARK    3  A    between atoms: C_6  and  C_7
REMARK    4  A    between atoms: N_8  and  N_9
REMARK    5  A    between atoms: N_9  and  C_10
REMARK    6  A    between atoms: C_18  and  C_19
REMARK                            x       y       z     vdW  Elec       q    Type
REMARK                         _______ _______ _______ _____ _____    ______ ____
ROOT
ATOM      1  C   UNL     1       1.534   8.177  21.439  0.00  0.00    +0.000 C 
ATOM      2  N   UNL     1       1.200   6.976  21.079  0.00  0.00    +0.000 NA
ENDROOT
BRANCH   1   6
ATOM      3  C   UNL     1      -1.408  11.211  22.172  0.00  0.00    +0.000 A 
ATOM      4  C   UNL     1      -0.904  10.419  23.203  0.00  0.00    +0.000 A 
ATOM      5  C   UNL     1       0.047   9.444  22.931  0.00  0.00    +0.000 A 
ATOM      6  C   UNL     1       0.509   9.236  21.625  0.00  0.00    +0.000 A 
ATOM      7  C   UNL     1       0.010  10.015  20.545  0.00  0.00    +0.000 A 
ATOM      8  C   UNL     1       0.409   9.856  19.192  0.00  0.00    +0.000 A 
ATOM      9  C   UNL     1      -0.106  10.652  18.167  0.00  0.00    +0.000 A 
ATOM     10  C   UNL     1      -1.036  11.634  18.461  0.00  0.00    +0.000 A 
ATOM     11  C   UNL     1      -1.453  11.813  19.778  0.00  0.00    +0.000 A 
ATOM     12  C   UNL     1      -0.957  11.020  20.837  0.00  0.00    +0.000 A 
BRANCH   3  14
ATOM     13  C   UNL     1      -1.995  13.277  23.227  0.00  0.00    +0.000 C 
ATOM     14  O   UNL     1      -2.345  12.198  22.368  0.00  0.00    +0.000 OA
ENDBRANCH   3  14
ENDBRANCH   1   6
BRANCH   2  15
ATOM     15  N   UNL     1       2.229   6.102  20.936  0.00  0.00    +0.000 N 
ATOM     16  H   UNL     1       2.792   5.889  21.756  0.00  0.00    +0.000 HD
BRANCH  15  17
ATOM     17  C   UNL     1       2.021   4.969  20.099  0.00  0.00    +0.000 A 
ATOM     18  C   UNL     1       0.960   4.093  20.349  0.00  0.00    +0.000 A 
ATOM     19  C   UNL     1       0.744   3.038  19.489  0.00  0.00    +0.000 A 
ATOM     20  N   UNL     1       1.486   2.804  18.391  0.00  0.00    +0.000 NA
ATOM     21  C   UNL     1       2.474   3.663  18.108  0.00  0.00    +0.000 A 
ATOM     22  C   UNL     1       3.195   3.443  16.946  0.00  0.00    +0.000 A 
ATOM     23  C   UNL     1       4.211   4.306  16.553  0.00  0.00    +0.000 A 
ATOM     24  F   UNL     1       4.864   4.055  15.409  0.00  0.00    +0.000 F 
ATOM     25  C   UNL     1       4.544   5.420  17.313  0.00  0.00    +0.000 A 
ATOM     26  C   UNL     1       5.617   6.371  16.881  0.00  0.00    +0.000 C 
ATOM     27  C   UNL     1       3.839   5.643  18.503  0.00  0.00    +0.000 A 
ATOM     28  C   UNL     1       2.793   4.778  18.920  0.00  0.00    +0.000 A 
ENDBRANCH  15  17
ENDBRANCH   2  15
TORSDOF 4
ENDMDL
MODEL 5
REMARK VINA RESULT:      -8.5      1.328      2.611
REMARK  Name = 
REMARK  6 active torsions:
REMARK  status: ('A' for Active; 'I' for Inactive)
REMARK    1  A    between atoms: C_1  and  O_2
REMARK    2  A    between atoms: O_2  and  C_3
REMARK    3  A    between atoms: C_6  and  C_7
REMARK    4  A    between atoms: N_8  and  N_9
REMARK    5  A    between atoms: N_9  and  C_10
REMARK    6  A    between atoms: C_18  and  C_19
REMARK                            x       y       z     vdW  Elec       q    Type
REMARK                         _______ _______ _______ _____ _____    ______ ____
ROOT
ATOM      1  C   UNL     1       1.949   7.626  17.756  0.00  0.00    +0.000 C 
ATOM      2  N   UNL     1       2.107   8.913  17.717  0.00  0.00    +0.000 NA
ENDROOT
BRANCH   1   6
ATOM      3  C   UNL     1       5.392   5.136  18.335  0.00  0.00    +0.000 A 
ATOM      4  C   UNL     1       5.444   6.278  17.538  0.00  0.00    +0.000 A 
ATOM      5  C   UNL     1       4.310   7.062  17.369  0.00  0.00    +0.000 A 
ATOM      6  C   UNL     1       3.101   6.718  17.989  0.00  0.00    +0.000 A 
ATOM      7  C   UNL     1       3.006   5.554  18.799  0.00  0.00    +0.000 A 
ATOM      8  C   UNL     1       1.817   5.125  19.447  0.00  0.00    +0.000 A 
ATOM      9  C   UNL     1       1.777   3.976  20.239  0.00  0.00    +0.000 A 
ATOM     10  C   UNL     1       2.922   3.220  20.414  0.00  0.00    +0.000 A 
ATOM     11  C   UNL     1       4.105   3.611  19.789  0.00  0.00    +0.000 A 
ATOM     12  C   UNL     1       4.178   4.764  18.974  0.00  0.00    +0.000 A 
BRANCH   3  14
ATOM     13  C   UNL     1       7.672   4.605  17.836  0.00  0.00    +0.000 C 
ATOM     14  O   UNL     1       6.477   4.316  18.551  0.00  0.00    +0.000 OA
ENDBRANCH   3  14
ENDBRANCH   1   6
BRANCH   2  15
ATOM     15  N   UNL     1       0.977   9.633  17.492  0.00  0.00    +0.000 N 
ATOM     16  H   UNL     1       0.275   9.238  16.872  0.00  0.00    +0.000 HD
BRANCH  15  17
ATOM     17  C   UNL     1       0.411  10.334  18.594  0.00  0.00    +0.000 A 
ATOM     18  C   UNL     1       1.208  10.694  19.685  0.00  0.00    +0.000 A 
ATOM     19  C   UNL     1       0.650  11.424  20.713  0.00  0.00    +0.000 A 
ATOM     20  N   UNL     1      -0.628  11.843  20.724  0.00  0.00    +0.000 NA
ATOM     21  C   UNL     1      -1.393  11.552  19.662  0.00  0.00    +0.000 A 
ATOM     22  C   UNL     1      -2.690  12.035  19.660  0.00  0.00    +0.000 A 
ATOM     23  C   UNL     1      -3.540  11.817  18.583  0.00  0.00    +0.000 A 
ATOM     24  F   UNL     1      -4.781  12.323  18.627  0.00  0.00    +0.000 F 
ATOM     25  C   UNL     1      -3.121  11.102  17.468  0.00  0.00    +0.000 A 
ATOM     26  C   UNL     1      -4.021  10.887  16.291  0.00  0.00    +0.000 C 
ATOM     27  C   UNL     1      -1.818  10.587  17.465  0.00  0.00    +0.000 A 
ATOM     28  C   UNL     1      -0.931  10.804  18.552  0.00  0.00    +0.000 A 
ENDBRANCH  15  17
ENDBRANCH   2  15
TORSDOF 4
ENDMDL
MODEL 6
REMARK VINA RESULT:      -8.5      3.835      8.820
REMARK  Name = 
REMARK  6 active torsions:
REMARK  status: ('A' for Active; 'I' for Inactive)
REMARK    1  A    between atoms: C_1  and  O_2
REMARK    2  A    between atoms: O_2  and  C_3
REMARK    3  A    between atoms: C_6  and  C_7
REMARK    4  A    between atoms: N_8  and  N_9
REMARK    5  A    between atoms: N_9  and  C_10
REMARK    6  A    between atoms: C_18  and  C_19
REMARK                            x       y       z     vdW  Elec       q    Type
REMARK                         _______ _______ _______ _____ _____    ______ ____
ROOT
ATOM      1  C   UNL     1       0.953   9.904  18.634  0.00  0.00    +0.000 C 
ATOM      2  N   UNL     1       1.304   8.855  19.311  0.00  0.00    +0.000 NA
ENDROOT
BRANCH   1   6
ATOM      3  C   UNL     1      -2.351  12.324  19.909  0.00  0.00    +0.000 A 
ATOM      4  C   UNL     1      -1.146  12.308  20.609  0.00  0.00    +0.000 A 
ATOM      5  C   UNL     1      -0.096  11.510  20.170  0.00  0.00    +0.000 A 
ATOM      6  C   UNL     1      -0.231  10.711  19.028  0.00  0.00    +0.000 A 
ATOM      7  C   UNL     1      -1.448  10.692  18.294  0.00  0.00    +0.000 A 
ATOM      8  C   UNL     1      -1.674   9.897  17.139  0.00  0.00    +0.000 A 
ATOM      9  C   UNL     1      -2.887   9.919  16.448  0.00  0.00    +0.000 A 
ATOM     10  C   UNL     1      -3.914  10.736  16.887  0.00  0.00    +0.000 A 
ATOM     11  C   UNL     1      -3.727  11.525  18.021  0.00  0.00    +0.000 A 
ATOM     12  C   UNL     1      -2.514  11.521  18.747  0.00  0.00    +0.000 A 
BRANCH   3  14
ATOM     13  C   UNL     1      -3.565  13.411  21.661  0.00  0.00    +0.000 C 
ATOM     14  O   UNL     1      -3.430  13.092  20.281  0.00  0.00    +0.000 OA
ENDBRANCH   3  14
ENDBRANCH   1   6
BRANCH   2  15
ATOM     15  N   UNL     1       2.399   8.199  18.845  0.00  0.00    +0.000 N 
ATOM     16  H   UNL     1       3.276   8.711  18.793  0.00  0.00    +0.000 HD
BRANCH  15  17
ATOM     17  C   UNL     1       2.573   6.843  19.241  0.00  0.00    +0.000 A 
ATOM     18  C   UNL     1       1.866   6.331  20.333  0.00  0.00    +0.000 A 
ATOM     19  C   UNL     1       2.007   4.999  20.659  0.00  0.00    +0.000 A 
ATOM     20  N   UNL     1       2.775   4.137  19.968  0.00  0.00    +0.000 NA
ATOM     21  C   UNL     1       3.418   4.598  18.887  0.00  0.00    +0.000 A 
ATOM     22  C   UNL     1       4.161   3.690  18.152  0.00  0.00    +0.000 A 
ATOM     23  C   UNL     1       4.827   4.072  16.994  0.00  0.00    +0.000 A 
ATOM     24  F   UNL     1       5.518   3.145  16.312  0.00  0.00    +0.000 F 
ATOM     25  C   UNL     1       4.777   5.380  16.532  0.00  0.00    +0.000 A 
ATOM     26  C   UNL     1       5.468   5.793  15.270  0.00  0.00    +0.000 C 
ATOM     27  C   UNL     1       4.049   6.316  17.277  0.00  0.00    +0.000 A 
ATOM     28  C   UNL     1       3.354   5.947  18.460  0.00  0.00    +0.000 A 
ENDBRANCH  15  17
ENDBRANCH   2  15
TORSDOF 4
ENDMDL
MODEL 7
REMARK VINA RESULT:      -8.5      3.870      8.555
REMARK  Name = 
REMARK  6 active torsions:
REMARK  status: ('A' for Active; 'I' for Inactive)
REMARK    1  A    between atoms: C_1  and  O_2
REMARK    2  A    between atoms: O_2  and  C_3
REMARK    3  A    between atoms: C_6  and  C_7
REMARK    4  A    between atoms: N_8  and  N_9
REMARK    5  A    between atoms: N_9  and  C_10
REMARK    6  A    between atoms: C_18  and  C_19
REMARK                            x       y       z     vdW  Elec       q    Type
REMARK                         _______ _______ _______ _____ _____    ______ ____
ROOT
ATOM      1  C   UNL     1       1.411   9.026  20.572  0.00  0.00    +0.000 C 
ATOM      2  N   UNL     1       1.240   7.768  20.838  0.00  0.00    +0.000 NA
ENDROOT
BRANCH   1   6
ATOM      3  C   UNL     1      -1.732  11.879  21.188  0.00  0.00    +0.000 A 
ATOM      4  C   UNL     1      -0.879  11.499  22.223  0.00  0.00    +0.000 A 
ATOM      5  C   UNL     1       0.127  10.570  21.990  0.00  0.00    +0.000 A 
ATOM      6  C   UNL     1       0.299  10.000  20.723  0.00  0.00    +0.000 A 
ATOM      7  C   UNL     1      -0.558  10.354  19.645  0.00  0.00    +0.000 A 
ATOM      8  C   UNL     1      -0.465   9.810  18.336  0.00  0.00    +0.000 A 
ATOM      9  C   UNL     1      -1.328  10.196  17.308  0.00  0.00    +0.000 A 
ATOM     10  C   UNL     1      -2.310  11.139  17.553  0.00  0.00    +0.000 A 
ATOM     11  C   UNL     1      -2.431  11.689  18.827  0.00  0.00    +0.000 A 
ATOM     12  C   UNL     1      -1.580  11.315  19.892  0.00  0.00    +0.000 A 
BRANCH   3  14
ATOM     13  C   UNL     1      -3.679  12.573  22.394  0.00  0.00    +0.000 C 
ATOM     14  O   UNL     1      -2.746  12.796  21.343  0.00  0.00    +0.000 OA
ENDBRANCH   3  14
ENDBRANCH   1   6
BRANCH   2  15
ATOM     15  N   UNL     1       2.331   6.979  20.655  0.00  0.00    +0.000 N 
ATOM     16  H   UNL     1       3.044   6.976  21.379  0.00  0.00    +0.000 HD
BRANCH  15  17
ATOM     17  C   UNL     1       2.127   5.696  20.074  0.00  0.00    +0.000 A 
ATOM     18  C   UNL     1       1.120   4.854  20.559  0.00  0.00    +0.000 A 
ATOM     19  C   UNL     1       0.904   3.641  19.940  0.00  0.00    +0.000 A 
ATOM     20  N   UNL     1       1.593   3.216  18.866  0.00  0.00    +0.000 NA
ATOM     21  C   UNL     1       2.525   4.033  18.356  0.00  0.00    +0.000 A 
ATOM     22  C   UNL     1       3.190   3.607  17.218  0.00  0.00    +0.000 A 
ATOM     23  C   UNL     1       4.142   4.407  16.598  0.00  0.00    +0.000 A 
ATOM     24  F   UNL     1       4.742   3.952  15.487  0.00  0.00    +0.000 F 
ATOM     25  C   UNL     1       4.468   5.660  17.099  0.00  0.00    +0.000 A 
ATOM     26  C   UNL     1       5.473   6.539  16.421  0.00  0.00    +0.000 C 
ATOM     27  C   UNL     1       3.822   6.094  18.264  0.00  0.00    +0.000 A 
ATOM     28  C   UNL     1       2.839   5.297  18.909  0.00  0.00    +0.000 A 
ENDBRANCH  15  17
ENDBRANCH   2  15
TORSDOF 4
ENDMDL
MODEL 8
REMARK VINA RESULT:      -8.5      4.218      8.779
REMARK  Name = 
REMARK  6 active torsions:
REMARK  status: ('A' for Active; 'I' for Inactive)
REMARK    1  A    between atoms: C_1  and  O_2
REMARK    2  A    between atoms: O_2  and  C_3
REMARK    3  A    between atoms: C_6  and  C_7
REMARK    4  A    between atoms: N_8  and  N_9
REMARK    5  A    between atoms: N_9  and  C_10
REMARK    6  A    between atoms: C_18  and  C_19
REMARK                            x       y       z     vdW  Elec       q    Type
REMARK                         _______ _______ _______ _____ _____    ______ ____
ROOT
ATOM      1  C   UNL     1       1.873   7.836  21.195  0.00  0.00    +0.000 C 
ATOM      2  N   UNL     1       1.513   6.610  20.973  0.00  0.00    +0.000 NA
ENDROOT
BRANCH   1   6
ATOM      3  C   UNL     1      -1.007  10.915  21.984  0.00  0.00    +0.000 A 
ATOM      4  C   UNL     1      -0.426  10.179  23.015  0.00  0.00    +0.000 A 
ATOM      5  C   UNL     1       0.502   9.187  22.724  0.00  0.00    +0.000 A 
ATOM      6  C   UNL     1       0.864   8.907  21.400  0.00  0.00    +0.000 A 
ATOM      7  C   UNL     1       0.284   9.629  20.321  0.00  0.00    +0.000 A 
ATOM      8  C   UNL     1       0.581   9.397  18.952  0.00  0.00    +0.000 A 
ATOM      9  C   UNL     1      -0.011  10.139  17.927  0.00  0.00    +0.000 A 
ATOM     10  C   UNL     1      -0.916  11.138  18.237  0.00  0.00    +0.000 A 
ATOM     11  C   UNL     1      -1.233  11.389  19.571  0.00  0.00    +0.000 A 
ATOM     12  C   UNL     1      -0.658  10.651  20.631  0.00  0.00    +0.000 A 
BRANCH   3  14
ATOM     13  C   UNL     1      -1.569  12.960  23.093  0.00  0.00    +0.000 C 
ATOM     14  O   UNL     1      -1.928  11.915  22.197  0.00  0.00    +0.000 OA
ENDBRANCH   3  14
ENDBRANCH   1   6
BRANCH   2  15
ATOM     15  N   UNL     1       2.529   5.727  20.795  0.00  0.00    +0.000 N 
ATOM     16  H   UNL     1       2.851   5.199  21.603  0.00  0.00    +0.000 HD
BRANCH  15  17
ATOM     17  C   UNL     1       2.533   4.959  19.596  0.00  0.00    +0.000 A 
ATOM     18  C   UNL     1       1.337   4.450  19.081  0.00  0.00    +0.000 A 
ATOM     19  C   UNL     1       1.359   3.760  17.888  0.00  0.00    +0.000 A 
ATOM     20  N   UNL     1       2.473   3.563  17.159  0.00  0.00    +0.000 NA
ATOM     21  C   UNL     1       3.619   4.089  17.611  0.00  0.00    +0.000 A 
ATOM     22  C   UNL     1       4.748   3.926  16.826  0.00  0.00    +0.000 A 
ATOM     23  C   UNL     1       5.970   4.473  17.196  0.00  0.00    +0.000 A 
ATOM     24  F   UNL     1       7.026   4.299  16.388  0.00  0.00    +0.000 F 
ATOM     25  C   UNL     1       6.107   5.201  18.371  0.00  0.00    +0.000 A 
ATOM     26  C   UNL     1       7.414   5.818  18.763  0.00  0.00    +0.000 C 
ATOM     27  C   UNL     1       4.980   5.355  19.189  0.00  0.00    +0.000 A 
ATOM     28  C   UNL     1       3.719   4.810  18.826  0.00  0.00    +0.000 A 
ENDBRANCH  15  17
ENDBRANCH   2  15
TORSDOF 4
ENDMDL
MODEL 9
REMARK VINA RESULT:      -8.5      1.854      3.732
REMARK  Name = 
REMARK  6 active torsions:
REMARK  status: ('A' for Active; 'I' for Inactive)
REMARK    1  A    between atoms: C_1  and  O_2
REMARK    2  A    between atoms: O_2  and  C_3
REMARK    3  A    between atoms: C_6  and  C_7
REMARK    4  A    between atoms: N_8  and  N_9
REMARK    5  A    between atoms: N_9  and  C_10
REMARK    6  A    between atoms: C_18  and  C_19
REMARK                            x       y       z     vdW  Elec       q    Type
REMARK                         _______ _______ _______ _____ _____    ______ ____
ROOT
ATOM      1  C   UNL     1       2.198   7.708  18.976  0.00  0.00    +0.000 C 
ATOM      2  N   UNL     1       1.698   8.765  18.415  0.00  0.00    +0.000 NA
ENDROOT
BRANCH   1   6
ATOM      3  C   UNL     1       4.599   5.004  16.670  0.00  0.00    +0.000 A 
ATOM      4  C   UNL     1       4.861   6.373  16.693  0.00  0.00    +0.000 A 
ATOM      5  C   UNL     1       4.062   7.222  17.449  0.00  0.00    +0.000 A 
ATOM      6  C   UNL     1       2.985   6.722  18.191  0.00  0.00    +0.000 A 
ATOM      7  C   UNL     1       2.679   5.334  18.184  0.00  0.00    +0.000 A 
ATOM      8  C   UNL     1       1.596   4.748  18.892  0.00  0.00    +0.000 A 
ATOM      9  C   UNL     1       1.342   3.375  18.857  0.00  0.00    +0.000 A 
ATOM     10  C   UNL     1       2.162   2.543  18.117  0.00  0.00    +0.000 A 
ATOM     11  C   UNL     1       3.231   3.085  17.407  0.00  0.00    +0.000 A 
ATOM     12  C   UNL     1       3.511   4.471  17.414  0.00  0.00    +0.000 A 
BRANCH   3  14
ATOM     13  C   UNL     1       5.699   4.457  14.616  0.00  0.00    +0.000 C 
ATOM     14  O   UNL     1       5.350   4.104  15.949  0.00  0.00    +0.000 OA
ENDBRANCH   3  14
ENDBRANCH   1   6
BRANCH   2  15
ATOM     15  N   UNL     1       0.995   9.586  19.238  0.00  0.00    +0.000 N 
ATOM     16  H   UNL     1       1.515  10.233  19.825  0.00  0.00    +0.000 HD
BRANCH  15  17
ATOM     17  C   UNL     1      -0.215  10.144  18.736  0.00  0.00    +0.000 A 
ATOM     18  C   UNL     1      -0.730   9.720  17.507  0.00  0.00    +0.000 A 
ATOM     19  C   UNL     1      -1.933  10.232  17.070  0.00  0.00    +0.000 A 
ATOM     20  N   UNL     1      -2.671  11.110  17.774  0.00  0.00    +0.000 NA
ATOM     21  C   UNL     1      -2.219  11.487  18.978  0.00  0.00    +0.000 A 
ATOM     22  C   UNL     1      -3.013  12.348  19.716  0.00  0.00    +0.000 A 
ATOM     23  C   UNL     1      -2.642  12.758  20.990  0.00  0.00    +0.000 A 
ATOM     24  F   UNL     1      -3.459  13.579  21.667  0.00  0.00    +0.000 F 
ATOM     25  C   UNL     1      -1.458  12.323  21.571  0.00  0.00    +0.000 A 
ATOM     26  C   UNL     1      -1.065  12.738  22.955  0.00  0.00    +0.000 C 
ATOM     27  C   UNL     1      -0.632  11.471  20.828  0.00  0.00    +0.000 A 
ATOM     28  C   UNL     1      -0.995  11.033  19.526  0.00  0.00    +0.000 A 
ENDBRANCH  15  17
ENDBRANCH   2  15
TORSDOF 4
ENDMDL
