MODEL 1
REMARK VINA RESULT:      -8.7      0.000      0.000
REMARK  Name = 
REMARK  4 active torsions:
REMARK  status: ('A' for Active; 'I' for Inactive)
REMARK    1  A    between atoms: N_1  and  C_2
REMARK    2  A    between atoms: C_5  and  N_6
REMARK    3  A    between atoms: N_6  and  C_7
REMARK    4  A    between atoms: C_9  and  C_10
REMARK                            x       y       z     vdW  Elec       q    Type
REMARK                         _______ _______ _______ _____ _____    ______ ____
ROOT
ATOM      1  C   UNL     1       3.741   5.324  18.636  0.00  0.00    +0.000 A 
ATOM      2  N   UNL     1       3.193   6.555  18.547  0.00  0.00    +0.000 NA
ATOM      3  C   UNL     1       2.263   6.925  19.469  0.00  0.00    +0.000 A 
ATOM      4  C   UNL     1       1.846   6.072  20.480  0.00  0.00    +0.000 A 
ATOM      5  C   UNL     1       2.363   4.791  20.559  0.00  0.00    +0.000 A 
ATOM      6  C   UNL     1       1.931   3.915  21.570  0.00  0.00    +0.000 A 
ATOM      7  C   UNL     1       2.444   2.626  21.666  0.00  0.00    +0.000 A 
ATOM      8  C   UNL     1       3.399   2.197  20.757  0.00  0.00    +0.000 A 
ATOM      9  C   UNL     1       3.832   3.056  19.747  0.00  0.00    +0.000 A 
ATOM     10  C   UNL     1       3.330   4.376  19.617  0.00  0.00    +0.000 A 
ENDROOT
BRANCH   3  11
ATOM     11  C   UNL     1       1.763   8.308  19.365  0.00  0.00    +0.000 A 
ATOM     12  C   UNL     1       1.950   9.066  18.199  0.00  0.00    +0.000 A 
ATOM     13  C   UNL     1       1.534  10.397  18.128  0.00  0.00    +0.000 A 
ATOM     14  C   UNL     1       0.916  10.993  19.225  0.00  0.00    +0.000 A 
ATOM     15  C   UNL     1       0.689  10.254  20.379  0.00  0.00    +0.000 A 
ATOM     16  C   UNL     1       1.104   8.929  20.446  0.00  0.00    +0.000 A 
ENDBRANCH   3  11
BRANCH   1  17
ATOM     17  N   UNL     1       4.718   4.953  17.693  0.00  0.00    +0.000 N 
ATOM     18  H   UNL     1       5.288   4.202  18.055  0.00  0.00    +0.000 HD
BRANCH  17  22
ATOM     19  C   UNL     1       7.086   4.537  14.907  0.00  0.00    +0.000 C 
ATOM     20  C   UNL     1       7.481   4.465  16.387  0.00  0.00    +0.000 C 
ATOM     21  C   UNL     1       7.056   5.710  17.172  0.00  0.00    +0.000 C 
ATOM     22  C   UNL     1       5.545   5.994  17.071  0.00  0.00    +0.000 C 
ATOM     23  C   UNL     1       5.142   6.083  15.581  0.00  0.00    +0.000 C 
ATOM     24  C   UNL     1       5.594   4.863  14.757  0.00  0.00    +0.000 C 
BRANCH  19  25
ATOM     25  N   UNL     1       7.898   5.522  14.191  0.00  0.00    +0.000 NA
ATOM     26  H   UNL     1       8.829   5.142  14.023  0.00  0.00    +0.000 HD
ATOM     27  H   UNL     1       8.036   6.359  14.753  0.00  0.00    +0.000 HD
ENDBRANCH  19  25
ENDBRANCH  17  22
ENDBRANCH   1  17
TORSDOF 4
ENDMDL
MODEL 2
REMARK VINA RESULT:      -8.7      1.799      5.061
REMARK  Name = 
REMARK  4 active torsions:
REMARK  status: ('A' for Active; 'I' for Inactive)
REMARK    1  A    between atoms: N_1  and  C_2
REMARK    2  A    between atoms: C_5  and  N_6
REMARK    3  A    between atoms: N_6  and  C_7
REMARK    4  A    between atoms: C_9  and  C_10
REMARK                            x       y       z     vdW  Elec       q    Type
REMARK                         _______ _______ _______ _____ _____    ______ ____
ROOT
ATOM      1  C   UNL     1       3.097   4.637  17.477  0.00  0.00    +0.000 A 
ATOM      2  N   UNL     1       2.450   5.659  18.076  0.00  0.00    +0.000 NA
ATOM      3  C   UNL     1       3.022   6.894  18.061  0.00  0.00    +0.000 A 
ATOM      4  C   UNL     1       4.255   7.129  17.471  0.00  0.00    +0.000 A 
ATOM      5  C   UNL     1       4.953   6.084  16.893  0.00  0.00    +0.000 A 
ATOM      6  C   UNL     1       6.212   6.310  16.309  0.00  0.00    +0.000 A 
ATOM      7  C   UNL     1       6.925   5.272  15.721  0.00  0.00    +0.000 A 
ATOM      8  C   UNL     1       6.387   3.994  15.701  0.00  0.00    +0.000 A 
ATOM      9  C   UNL     1       5.141   3.755  16.280  0.00  0.00    +0.000 A 
ATOM     10  C   UNL     1       4.387   4.789  16.892  0.00  0.00    +0.000 A 
ENDROOT
BRANCH   3  11
ATOM     11  C   UNL     1       2.229   7.982  18.661  0.00  0.00    +0.000 A 
ATOM     12  C   UNL     1       1.835   7.942  20.008  0.00  0.00    +0.000 A 
ATOM     13  C   UNL     1       1.028   8.942  20.554  0.00  0.00    +0.000 A 
ATOM     14  C   UNL     1       0.604  10.006  19.762  0.00  0.00    +0.000 A 
ATOM     15  C   UNL     1       1.008  10.086  18.434  0.00  0.00    +0.000 A 
ATOM     16  C   UNL     1       1.812   9.089  17.894  0.00  0.00    +0.000 A 
ENDBRANCH   3  11
BRANCH   1  17
ATOM     17  N   UNL     1       2.492   3.365  17.476  0.00  0.00    +0.000 N 
ATOM     18  H   UNL     1       1.491   3.454  17.374  0.00  0.00    +0.000 HD
BRANCH  17  22
ATOM     19  C   UNL     1       1.523   3.543  21.022  0.00  0.00    +0.000 C 
ATOM     20  C   UNL     1       2.841   4.094  20.464  0.00  0.00    +0.000 C 
ATOM     21  C   UNL     1       3.639   3.041  19.688  0.00  0.00    +0.000 C 
ATOM     22  C   UNL     1       2.834   2.409  18.537  0.00  0.00    +0.000 C 
ATOM     23  C   UNL     1       1.510   1.838  19.095  0.00  0.00    +0.000 C 
ATOM     24  C   UNL     1       0.706   2.863  19.916  0.00  0.00    +0.000 C 
BRANCH  19  25
ATOM     25  N   UNL     1       1.765   2.611  22.125  0.00  0.00    +0.000 NA
ATOM     26  H   UNL     1       0.880   2.373  22.572  0.00  0.00    +0.000 HD
ATOM     27  H   UNL     1       2.336   3.043  22.848  0.00  0.00    +0.000 HD
ENDBRANCH  19  25
ENDBRANCH  17  22
ENDBRANCH   1  17
TORSDOF 4
ENDMDL
MODEL 3
REMARK VINA RESULT:      -8.6      1.179      1.613
REMARK  Name = 
REMARK  4 active torsions:
REMARK  status: ('A' for Active; 'I' for Inactive)
REMARK    1  A    between atoms: N_1  and  C_2
REMARK    2  A    between atoms: C_5  and  N_6
REMARK    3  A    between atoms: N_6  and  C_7
REMARK    4  A    between atoms: C_9  and  C_10
REMARK                            x       y       z     vdW  Elec       q    Type
REMARK                         _______ _______ _______ _____ _____    ______ ____
ROOT
ATOM      1  C   UNL     1       3.916   5.446  19.226  0.00  0.00    +0.000 A 
ATOM      2  N   UNL     1       3.387   6.653  19.521  0.00  0.00    +0.000 NA
ATOM      3  C   UNL     1       2.080   6.722  19.893  0.00  0.00    +0.000 A 
ATOM      4  C   UNL     1       1.271   5.597  19.956  0.00  0.00    +0.000 A 
ATOM      5  C   UNL     1       1.784   4.358  19.614  0.00  0.00    +0.000 A 
ATOM      6  C   UNL     1       0.965   3.216  19.658  0.00  0.00    +0.000 A 
ATOM      7  C   UNL     1       1.466   1.964  19.320  0.00  0.00    +0.000 A 
ATOM      8  C   UNL     1       2.794   1.834  18.940  0.00  0.00    +0.000 A 
ATOM      9  C   UNL     1       3.614   2.961  18.888  0.00  0.00    +0.000 A 
ATOM     10  C   UNL     1       3.137   4.253  19.223  0.00  0.00    +0.000 A 
ENDROOT
BRANCH   3  11
ATOM     11  C   UNL     1       1.585   8.055  20.279  0.00  0.00    +0.000 A 
ATOM     12  C   UNL     1       1.245   8.352  21.608  0.00  0.00    +0.000 A 
ATOM     13  C   UNL     1       0.714   9.595  21.958  0.00  0.00    +0.000 A 
ATOM     14  C   UNL     1       0.520  10.569  20.981  0.00  0.00    +0.000 A 
ATOM     15  C   UNL     1       0.881  10.312  19.664  0.00  0.00    +0.000 A 
ATOM     16  C   UNL     1       1.409   9.074  19.320  0.00  0.00    +0.000 A 
ENDBRANCH   3  11
BRANCH   1  17
ATOM     17  N   UNL     1       5.274   5.378  18.862  0.00  0.00    +0.000 N 
ATOM     18  H   UNL     1       5.860   5.416  19.684  0.00  0.00    +0.000 HD
BRANCH  17  22
ATOM     19  C   UNL     1       6.817   4.394  15.670  0.00  0.00    +0.000 C 
ATOM     20  C   UNL     1       7.609   4.702  16.946  0.00  0.00    +0.000 C 
ATOM     21  C   UNL     1       7.281   6.082  17.524  0.00  0.00    +0.000 C 
ATOM     22  C   UNL     1       5.779   6.270  17.810  0.00  0.00    +0.000 C 
ATOM     23  C   UNL     1       4.975   5.974  16.522  0.00  0.00    +0.000 C 
ATOM     24  C   UNL     1       5.315   4.610  15.895  0.00  0.00    +0.000 C 
BRANCH  19  25
ATOM     25  N   UNL     1       7.287   5.206  14.546  0.00  0.00    +0.000 NA
ATOM     26  H   UNL     1       8.203   5.596  14.765  0.00  0.00    +0.000 HD
ATOM     27  H   UNL     1       6.674   6.004  14.392  0.00  0.00    +0.000 HD
ENDBRANCH  19  25
ENDBRANCH  17  22
ENDBRANCH   1  17
TORSDOF 4
ENDMDL
MODEL 4
REMARK VINA RESULT:      -8.4      0.542      1.119
REMARK  Name = 
REMARK  4 active torsions:
REMARK  status: ('A' for Active; 'I' for Inactive)
REMARK    1  A    between atoms: N_1  and  C_2
REMARK    2  A    between atoms: C_5  and  N_6
REMARK    3  A    between atoms: N_6  and  C_7
REMARK    4  A    between atoms: C_9  and  C_10
REMARK                            x       y       z     vdW  Elec       q    Type
REMARK                         _______ _______ _______ _____ _____    ______ ____
ROOT
ATOM      1  C   UNL     1       3.277   5.661  18.383  0.00  0.00    +0.000 A 
ATOM      2  N   UNL     1       2.711   6.882  18.493  0.00  0.00    +0.000 NA
ATOM      3  C   UNL     1       1.978   7.166  19.604  0.00  0.00    +0.000 A 
ATOM      4  C   UNL     1       1.776   6.236  20.612  0.00  0.00    +0.000 A 
ATOM      5  C   UNL     1       2.311   4.965  20.496  0.00  0.00    +0.000 A 
ATOM      6  C   UNL     1       2.095   4.011  21.506  0.00  0.00    +0.000 A 
ATOM      7  C   UNL     1       2.628   2.731  21.405  0.00  0.00    +0.000 A 
ATOM      8  C   UNL     1       3.390   2.388  20.298  0.00  0.00    +0.000 A 
ATOM      9  C   UNL     1       3.607   3.324  19.287  0.00  0.00    +0.000 A 
ATOM     10  C   UNL     1       3.077   4.638  19.354  0.00  0.00    +0.000 A 
ENDROOT
BRANCH   3  11
ATOM     11  C   UNL     1       1.455   8.540  19.700  0.00  0.00    +0.000 A 
ATOM     12  C   UNL     1       0.978   9.057  20.915  0.00  0.00    +0.000 A 
ATOM     13  C   UNL     1       0.422  10.336  20.987  0.00  0.00    +0.000 A 
ATOM     14  C   UNL     1       0.339  11.126  19.842  0.00  0.00    +0.000 A 
ATOM     15  C   UNL     1       0.835  10.650  18.634  0.00  0.00    +0.000 A 
ATOM     16  C   UNL     1       1.388   9.377  18.566  0.00  0.00    +0.000 A 
ENDBRANCH   3  11
BRANCH   1  17
ATOM     17  N   UNL     1       4.052   5.378  17.242  0.00  0.00    +0.000 N 
ATOM     18  H   UNL     1       4.395   4.429  17.277  0.00  0.00    +0.000 HD
BRANCH  17  22
ATOM     19  C   UNL     1       6.905   4.688  15.023  0.00  0.00    +0.000 C 
ATOM     20  C   UNL     1       6.956   4.558  16.551  0.00  0.00    +0.000 C 
ATOM     21  C   UNL     1       6.521   5.842  17.265  0.00  0.00    +0.000 C 
ATOM     22  C   UNL     1       5.115   6.312  16.849  0.00  0.00    +0.000 C 
ATOM     23  C   UNL     1       5.061   6.459  15.310  0.00  0.00    +0.000 C 
ATOM     24  C   UNL     1       5.532   5.197  14.565  0.00  0.00    +0.000 C 
BRANCH  19  25
ATOM     25  N   UNL     1       7.966   5.567  14.532  0.00  0.00    +0.000 NA
ATOM     26  H   UNL     1       8.003   6.412  15.102  0.00  0.00    +0.000 HD
ATOM     27  H   UNL     1       7.770   5.880  13.583  0.00  0.00    +0.000 HD
ENDBRANCH  19  25
ENDBRANCH  17  22
ENDBRANCH   1  17
TORSDOF 4
ENDMDL
MODEL 5
REMARK VINA RESULT:      -8.3      0.916      1.085
REMARK  Name = 
REMARK  4 active torsions:
REMARK  status: ('A' for Active; 'I' for Inactive)
REMARK    1  A    between atoms: N_1  and  C_2
REMARK    2  A    between atoms: C_5  and  N_6
REMARK    3  A    between atoms: N_6  and  C_7
REMARK    4  A    between atoms: C_9  and  C_10
REMARK                            x       y       z     vdW  Elec       q    Type
REMARK                         _______ _______ _______ _____ _____    ______ ____
ROOT
ATOM      1  C   UNL     1       2.970   5.861  18.604  0.00  0.00    +0.000 A 
ATOM      2  N   UNL     1       2.392   7.041  18.917  0.00  0.00    +0.000 NA
ATOM      3  C   UNL     1       1.765   7.163  20.119  0.00  0.00    +0.000 A 
ATOM      4  C   UNL     1       1.682   6.110  21.018  0.00  0.00    +0.000 A 
ATOM      5  C   UNL     1       2.229   4.882  20.695  0.00  0.00    +0.000 A 
ATOM      6  C   UNL     1       2.134   3.805  21.593  0.00  0.00    +0.000 A 
ATOM      7  C   UNL     1       2.681   2.565  21.285  0.00  0.00    +0.000 A 
ATOM      8  C   UNL     1       3.338   2.385  20.076  0.00  0.00    +0.000 A 
ATOM      9  C   UNL     1       3.436   3.444  19.175  0.00  0.00    +0.000 A 
ATOM     10  C   UNL     1       2.887   4.722  19.454  0.00  0.00    +0.000 A 
ENDROOT
BRANCH   3  11
ATOM     11  C   UNL     1       1.224   8.497  20.434  0.00  0.00    +0.000 A 
ATOM     12  C   UNL     1       1.114   9.492  19.450  0.00  0.00    +0.000 A 
ATOM     13  C   UNL     1       0.665  10.775  19.768  0.00  0.00    +0.000 A 
ATOM     14  C   UNL     1       0.310  11.085  21.079  0.00  0.00    +0.000 A 
ATOM     15  C   UNL     1       0.378  10.108  22.064  0.00  0.00    +0.000 A 
ATOM     16  C   UNL     1       0.825   8.832  21.745  0.00  0.00    +0.000 A 
ENDBRANCH   3  11
BRANCH   1  17
ATOM     17  N   UNL     1       3.636   5.746  17.368  0.00  0.00    +0.000 N 
ATOM     18  H   UNL     1       3.731   4.774  17.111  0.00  0.00    +0.000 HD
BRANCH  17  22
ATOM     19  C   UNL     1       6.566   4.618  15.451  0.00  0.00    +0.000 C 
ATOM     20  C   UNL     1       6.401   4.417  16.962  0.00  0.00    +0.000 C 
ATOM     21  C   UNL     1       6.125   5.728  17.704  0.00  0.00    +0.000 C 
ATOM     22  C   UNL     1       4.893   6.476  17.162  0.00  0.00    +0.000 C 
ATOM     23  C   UNL     1       5.060   6.695  15.640  0.00  0.00    +0.000 C 
ATOM     24  C   UNL     1       5.380   5.399  14.872  0.00  0.00    +0.000 C 
BRANCH  19  25
ATOM     25  N   UNL     1       7.825   5.299  15.143  0.00  0.00    +0.000 NA
ATOM     26  H   UNL     1       8.248   5.643  16.004  0.00  0.00    +0.000 HD
ATOM     27  H   UNL     1       7.662   6.121  14.564  0.00  0.00    +0.000 HD
ENDBRANCH  19  25
ENDBRANCH  17  22
ENDBRANCH   1  17
TORSDOF 4
ENDMDL
MODEL 6
REMARK VINA RESULT:      -8.3      1.142      1.388
REMARK  Name = 
REMARK  4 active torsions:
REMARK  status: ('A' for Active; 'I' for Inactive)
REMARK    1  A    between atoms: N_1  and  C_2
REMARK    2  A    between atoms: C_5  and  N_6
REMARK    3  A    between atoms: N_6  and  C_7
REMARK    4  A    between atoms: C_9  and  C_10
REMARK                            x       y       z     vdW  Elec       q    Type
REMARK                         _______ _______ _______ _____ _____    ______ ____
ROOT
ATOM      1  C   UNL     1       3.558   5.824  19.347  0.00  0.00    +0.000 A 
ATOM      2  N   UNL     1       2.984   7.012  19.634  0.00  0.00    +0.000 NA
ATOM      3  C   UNL     1       1.769   7.020  20.247  0.00  0.00    +0.000 A 
ATOM      4  C   UNL     1       1.095   5.851  20.564  0.00  0.00    +0.000 A 
ATOM      5  C   UNL     1       1.648   4.625  20.237  0.00  0.00    +0.000 A 
ATOM      6  C   UNL     1       0.962   3.436  20.540  0.00  0.00    +0.000 A 
ATOM      7  C   UNL     1       1.505   2.196  20.221  0.00  0.00    +0.000 A 
ATOM      8  C   UNL     1       2.744   2.128  19.601  0.00  0.00    +0.000 A 
ATOM      9  C   UNL     1       3.432   3.301  19.292  0.00  0.00    +0.000 A 
ATOM     10  C   UNL     1       2.908   4.582  19.600  0.00  0.00    +0.000 A 
ENDROOT
BRANCH   3  11
ATOM     11  C   UNL     1       1.234   8.346  20.604  0.00  0.00    +0.000 A 
ATOM     12  C   UNL     1       1.110   9.366  19.648  0.00  0.00    +0.000 A 
ATOM     13  C   UNL     1       0.665  10.641  20.005  0.00  0.00    +0.000 A 
ATOM     14  C   UNL     1       0.329  10.916  21.328  0.00  0.00    +0.000 A 
ATOM     15  C   UNL     1       0.410   9.914  22.287  0.00  0.00    +0.000 A 
ATOM     16  C   UNL     1       0.853   8.646  21.928  0.00  0.00    +0.000 A 
ENDBRANCH   3  11
BRANCH   1  17
ATOM     17  N   UNL     1       4.825   5.820  18.732  0.00  0.00    +0.000 N 
ATOM     18  H   UNL     1       5.522   6.192  19.361  0.00  0.00    +0.000 HD
BRANCH  17  22
ATOM     19  C   UNL     1       7.239   4.816  16.143  0.00  0.00    +0.000 C 
ATOM     20  C   UNL     1       7.479   5.952  17.145  0.00  0.00    +0.000 C 
ATOM     21  C   UNL     1       6.360   6.998  17.129  0.00  0.00    +0.000 C 
ATOM     22  C   UNL     1       4.968   6.390  17.386  0.00  0.00    +0.000 C 
ATOM     23  C   UNL     1       4.713   5.254  16.368  0.00  0.00    +0.000 C 
ATOM     24  C   UNL     1       5.843   4.208  16.332  0.00  0.00    +0.000 C 
BRANCH  19  25
ATOM     25  N   UNL     1       7.410   5.282  14.765  0.00  0.00    +0.000 NA
ATOM     26  H   UNL     1       8.383   5.543  14.610  0.00  0.00    +0.000 HD
ATOM     27  H   UNL     1       6.865   6.125  14.596  0.00  0.00    +0.000 HD
ENDBRANCH  19  25
ENDBRANCH  17  22
ENDBRANCH   1  17
TORSDOF 4
ENDMDL
MODEL 7
REMARK VINA RESULT:      -8.2      2.143      4.787
REMARK  Name = 
REMARK  4 active torsions:
REMARK  status: ('A' for Active; 'I' for Inactive)
REMARK    1  A    between atoms: N_1  and  C_2
REMARK    2  A    between atoms: C_5  and  N_6
REMARK    3  A    between atoms: N_6  and  C_7
REMARK    4  A    between atoms: C_9  and  C_10
REMARK                            x       y       z     vdW  Elec       q    Type
REMARK                         _______ _______ _______ _____ _____    ______ ____
ROOT
ATOM      1  C   UNL     1       3.178   5.980  19.619  0.00  0.00    +0.000 A 
ATOM      2  N   UNL     1       2.338   7.009  19.863  0.00  0.00    +0.000 NA
ATOM      3  C   UNL     1       2.223   7.994  18.931  0.00  0.00    +0.000 A 
ATOM      4  C   UNL     1       2.956   7.985  17.753  0.00  0.00    +0.000 A 
ATOM      5  C   UNL     1       3.854   6.962  17.508  0.00  0.00    +0.000 A 
ATOM      6  C   UNL     1       4.614   6.956  16.325  0.00  0.00    +0.000 A 
ATOM      7  C   UNL     1       5.518   5.934  16.061  0.00  0.00    +0.000 A 
ATOM      8  C   UNL     1       5.672   4.900  16.973  0.00  0.00    +0.000 A 
ATOM      9  C   UNL     1       4.928   4.897  18.152  0.00  0.00    +0.000 A 
ATOM     10  C   UNL     1       3.998   5.924  18.455  0.00  0.00    +0.000 A 
ENDROOT
BRANCH   3  11
ATOM     11  C   UNL     1       1.232   9.046  19.220  0.00  0.00    +0.000 A 
ATOM     12  C   UNL     1       0.814   9.315  20.533  0.00  0.00    +0.000 A 
ATOM     13  C   UNL     1      -0.173  10.266  20.796  0.00  0.00    +0.000 A 
ATOM     14  C   UNL     1      -0.759  10.971  19.747  0.00  0.00    +0.000 A 
ATOM     15  C   UNL     1      -0.340  10.747  18.441  0.00  0.00    +0.000 A 
ATOM     16  C   UNL     1       0.644   9.800  18.183  0.00  0.00    +0.000 A 
ENDBRANCH   3  11
BRANCH   1  17
ATOM     17  N   UNL     1       3.278   4.953  20.577  0.00  0.00    +0.000 N 
ATOM     18  H   UNL     1       4.078   4.367  20.380  0.00  0.00    +0.000 HD
BRANCH  17  22
ATOM     19  C   UNL     1       1.756   2.349  18.469  0.00  0.00    +0.000 C 
ATOM     20  C   UNL     1       1.316   3.818  18.468  0.00  0.00    +0.000 C 
ATOM     21  C   UNL     1       0.952   4.324  19.868  0.00  0.00    +0.000 C 
ATOM     22  C   UNL     1       2.092   4.144  20.886  0.00  0.00    +0.000 C 
ATOM     23  C   UNL     1       2.531   2.661  20.903  0.00  0.00    +0.000 C 
ATOM     24  C   UNL     1       2.864   2.112  19.503  0.00  0.00    +0.000 C 
BRANCH  19  25
ATOM     25  N   UNL     1       0.622   1.458  18.723  0.00  0.00    +0.000 NA
ATOM     26  H   UNL     1      -0.236   2.005  18.789  0.00  0.00    +0.000 HD
ATOM     27  H   UNL     1       0.723   0.987  19.620  0.00  0.00    +0.000 HD
ENDBRANCH  19  25
ENDBRANCH  17  22
ENDBRANCH   1  17
TORSDOF 4
ENDMDL
MODEL 8
REMARK VINA RESULT:      -8.0      1.586      6.274
REMARK  Name = 
REMARK  4 active torsions:
REMARK  status: ('A' for Active; 'I' for Inactive)
REMARK    1  A    between atoms: N_1  and  C_2
REMARK    2  A    between atoms: C_5  and  N_6
REMARK    3  A    between atoms: N_6  and  C_7
REMARK    4  A    between atoms: C_9  and  C_10
REMARK                            x       y       z     vdW  Elec       q    Type
REMARK                         _______ _______ _______ _____ _____    ______ ____
ROOT
ATOM      1  C   UNL     1       2.940   6.260  19.723  0.00  0.00    +0.000 A 
ATOM      2  N   UNL     1       3.841   5.726  18.872  0.00  0.00    +0.000 NA
ATOM      3  C   UNL     1       4.158   6.412  17.740  0.00  0.00    +0.000 A 
ATOM      4  C   UNL     1       3.569   7.627  17.424  0.00  0.00    +0.000 A 
ATOM      5  C   UNL     1       2.610   8.167  18.262  0.00  0.00    +0.000 A 
ATOM      6  C   UNL     1       1.995   9.389  17.939  0.00  0.00    +0.000 A 
ATOM      7  C   UNL     1       1.032   9.947  18.772  0.00  0.00    +0.000 A 
ATOM      8  C   UNL     1       0.675   9.295  19.943  0.00  0.00    +0.000 A 
ATOM      9  C   UNL     1       1.274   8.080  20.272  0.00  0.00    +0.000 A 
ATOM     10  C   UNL     1       2.258   7.480  19.445  0.00  0.00    +0.000 A 
ENDROOT
BRANCH   3  11
ATOM     11  C   UNL     1       5.207   5.814  16.894  0.00  0.00    +0.000 A 
ATOM     12  C   UNL     1       5.138   5.875  15.493  0.00  0.00    +0.000 A 
ATOM     13  C   UNL     1       6.098   5.251  14.695  0.00  0.00    +0.000 A 
ATOM     14  C   UNL     1       7.152   4.557  15.286  0.00  0.00    +0.000 A 
ATOM     15  C   UNL     1       7.261   4.511  16.670  0.00  0.00    +0.000 A 
ATOM     16  C   UNL     1       6.304   5.134  17.462  0.00  0.00    +0.000 A 
ENDBRANCH   3  11
BRANCH   1  17
ATOM     17  N   UNL     1       2.630   5.557  20.903  0.00  0.00    +0.000 N 
ATOM     18  H   UNL     1       3.470   5.175  21.314  0.00  0.00    +0.000 HD
BRANCH  17  22
ATOM     19  C   UNL     1       2.606   2.347  19.106  0.00  0.00    +0.000 C 
ATOM     20  C   UNL     1       2.033   3.651  18.539  0.00  0.00    +0.000 C 
ATOM     21  C   UNL     1       1.000   4.294  19.469  0.00  0.00    +0.000 C 
ATOM     22  C   UNL     1       1.550   4.562  20.882  0.00  0.00    +0.000 C 
ATOM     23  C   UNL     1       2.117   3.247  21.466  0.00  0.00    +0.000 C 
ATOM     24  C   UNL     1       3.129   2.556  20.533  0.00  0.00    +0.000 C 
BRANCH  19  25
ATOM     25  N   UNL     1       1.609   1.276  19.079  0.00  0.00    +0.000 NA
ATOM     26  H   UNL     1       0.752   1.593  19.532  0.00  0.00    +0.000 HD
ATOM     27  H   UNL     1       1.925   0.470  19.614  0.00  0.00    +0.000 HD
ENDBRANCH  19  25
ENDBRANCH  17  22
ENDBRANCH   1  17
TORSDOF 4
ENDMDL
MODEL 9
REMARK VINA RESULT:      -7.6      1.728      4.886
REMARK  Name = 
REMARK  4 active torsions:
REMARK  status: ('A' for Active; 'I' for Inactive)
REMARK    1  A    between atoms: N_1  and  C_2
REMARK    2  A    between atoms: C_5  and  N_6
REMARK    3  A    between atoms: N_6  and  C_7
REMARK    4  A    between atoms: C_9  and  C_10
REMARK                            x       y       z     vdW  Elec       q    Type
REMARK                         _______ _______ _______ _____ _____    ______ ____
ROOT
ATOM      1  C   UNL     1       4.361   4.986  18.675  0.00  0.00    +0.000 A 
ATOM      2  N   UNL     1       3.531   5.974  19.072  0.00  0.00    +0.000 NA
ATOM      3  C   UNL     1       3.277   7.000  18.214  0.00  0.00    +0.000 A 
ATOM      4  C   UNL     1       3.859   7.072  16.958  0.00  0.00    +0.000 A 
ATOM      5  C   UNL     1       4.747   6.092  16.551  0.00  0.00    +0.000 A 
ATOM      6  C   UNL     1       5.355   6.168  15.286  0.00  0.00    +0.000 A 
ATOM      7  C   UNL     1       6.247   5.189  14.862  0.00  0.00    +0.000 A 
ATOM      8  C   UNL     1       6.538   4.117  15.693  0.00  0.00    +0.000 A 
ATOM      9  C   UNL     1       5.944   4.033  16.951  0.00  0.00    +0.000 A 
ATOM     10  C   UNL     1       5.033   5.014  17.419  0.00  0.00    +0.000 A 
ENDROOT
BRANCH   3  11
ATOM     11  C   UNL     1       2.302   8.004  18.676  0.00  0.00    +0.000 A 
ATOM     12  C   UNL     1       1.825   9.008  17.819  0.00  0.00    +0.000 A 
ATOM     13  C   UNL     1       0.953   9.997  18.279  0.00  0.00    +0.000 A 
ATOM     14  C   UNL     1       0.536   9.994  19.608  0.00  0.00    +0.000 A 
ATOM     15  C   UNL     1       0.967   8.991  20.468  0.00  0.00    +0.000 A 
ATOM     16  C   UNL     1       1.834   8.009  20.007  0.00  0.00    +0.000 A 
ENDBRANCH   3  11
BRANCH   1  17
ATOM     17  N   UNL     1       4.604   3.917  19.558  0.00  0.00    +0.000 N 
ATOM     18  H   UNL     1       5.590   3.699  19.580  0.00  0.00    +0.000 HD
BRANCH  17  22
ATOM     19  C   UNL     1       0.957   3.633  19.953  0.00  0.00    +0.000 C 
ATOM     20  C   UNL     1       1.963   3.408  21.089  0.00  0.00    +0.000 C 
ATOM     21  C   UNL     1       3.024   2.361  20.737  0.00  0.00    +0.000 C 
ATOM     22  C   UNL     1       3.794   2.697  19.447  0.00  0.00    +0.000 C 
ATOM     23  C   UNL     1       2.786   2.911  18.293  0.00  0.00    +0.000 C 
ATOM     24  C   UNL     1       1.682   3.930  18.634  0.00  0.00    +0.000 C 
BRANCH  19  25
ATOM     25  N   UNL     1       0.068   2.481  19.799  0.00  0.00    +0.000 NA
ATOM     26  H   UNL     1      -0.497   2.593  18.957  0.00  0.00    +0.000 HD
ATOM     27  H   UNL     1      -0.593   2.425  20.572  0.00  0.00    +0.000 HD
ENDBRANCH  19  25
ENDBRANCH  17  22
ENDBRANCH   1  17
TORSDOF 4
ENDMDL
