MODEL 1
REMARK VINA RESULT:      -7.8      0.000      0.000
REMARK  Name = 
REMARK  6 active torsions:
REMARK  status: ('A' for Active; 'I' for Inactive)
REMARK    1  A    between atoms: C_1  and  N_2
REMARK    2  A    between atoms: C_3  and  C_5
REMARK    3  A    between atoms: C_7  and  C_8
REMARK    4  A    between atoms: N_13  and  C_14
REMARK    5  A    between atoms: C_14  and  C_15
REMARK    6  A    between atoms: C_24  and  O_25
REMARK                            x       y       z     vdW  Elec       q    Type
REMARK                         _______ _______ _______ _____ _____    ______ ____
ROOT
ATOM      1  C   UNL     1      -0.967  11.792  20.166  0.00  0.00    +0.000 A 
ATOM      2  N   UNL     1      -0.718  11.298  21.412  0.00  0.00    +0.000 NA
ATOM      3  C   UNL     1       0.051  10.174  21.500  0.00  0.00    +0.000 A 
ATOM      4  C   UNL     1       0.604   9.540  20.384  0.00  0.00    +0.000 A 
ATOM      5  C   UNL     1       1.442   8.314  20.491  0.00  0.00    +0.000 A 
ATOM      6  O   UNL     1       1.542   7.740  21.569  0.00  0.00    +0.000 OA
ATOM      7  N   UNL     1       2.061   7.860  19.321  0.00  0.00    +0.000 N 
ATOM      8  C   UNL     1       1.832   8.445  18.094  0.00  0.00    +0.000 A 
ATOM      9  C   UNL     1       1.020   9.493  17.943  0.00  0.00    +0.000 A 
ATOM     10  C   UNL     1       0.371  10.098  19.111  0.00  0.00    +0.000 A 
ATOM     11  C   UNL     1      -0.430  11.242  19.002  0.00  0.00    +0.000 A 
ENDROOT
BRANCH   1  14
ATOM     12  C   UNL     1      -4.100  13.852  20.670  0.00  0.00    +0.000 C 
ATOM     13  N   UNL     1      -3.147  12.774  20.609  0.00  0.00    +0.000 N 
ATOM     14  C   UNL     1      -1.877  12.985  20.110  0.00  0.00    +0.000 C 
ATOM     15  O   UNL     1      -1.514  14.058  19.640  0.00  0.00    +0.000 OA
ATOM     16  H   UNL     1      -3.404  11.838  20.902  0.00  0.00    +0.000 HD
ENDBRANCH   1  14
BRANCH   3  17
ATOM     17  C   UNL     1       0.257   9.743  22.861  0.00  0.00    +0.000 C 
ATOM     18  N   UNL     1       0.398   9.457  23.981  0.00  0.00    +0.000 NA
ENDBRANCH   3  17
BRANCH  11  19
ATOM     19  O   UNL     1      -0.610  11.871  17.802  0.00  0.00    +0.000 OA
ATOM     20  H   UNL     1       0.125  11.680  17.200  0.00  0.00    +0.000 HD
ENDBRANCH  11  19
BRANCH   7  21
ATOM     21  C   UNL     1       2.896   6.657  19.387  0.00  0.00    +0.000 C 
BRANCH  21  22
ATOM     22  C   UNL     1       2.140   5.353  19.245  0.00  0.00    +0.000 A 
ATOM     23  C   UNL     1       2.024   4.737  17.990  0.00  0.00    +0.000 A 
ATOM     24  C   UNL     1       1.457   3.467  17.868  0.00  0.00    +0.000 A 
ATOM     25  C   UNL     1       0.985   2.803  18.998  0.00  0.00    +0.000 A 
ATOM     26  C   UNL     1       1.049   3.423  20.244  0.00  0.00    +0.000 A 
ATOM     27  C   UNL     1       1.615   4.695  20.368  0.00  0.00    +0.000 A 
ENDBRANCH  21  22
ENDBRANCH   7  21
TORSDOF 5
ENDMDL
MODEL 2
REMARK VINA RESULT:      -7.6      0.641      1.158
REMARK  Name = 
REMARK  6 active torsions:
REMARK  status: ('A' for Active; 'I' for Inactive)
REMARK    1  A    between atoms: C_1  and  N_2
REMARK    2  A    between atoms: C_3  and  C_5
REMARK    3  A    between atoms: C_7  and  C_8
REMARK    4  A    between atoms: N_13  and  C_14
REMARK    5  A    between atoms: C_14  and  C_15
REMARK    6  A    between atoms: C_24  and  O_25
REMARK                            x       y       z     vdW  Elec       q    Type
REMARK                         _______ _______ _______ _____ _____    ______ ____
ROOT
ATOM      1  C   UNL     1      -1.563  11.721  20.071  0.00  0.00    +0.000 A 
ATOM      2  N   UNL     1      -1.218  11.316  21.326  0.00  0.00    +0.000 NA
ATOM      3  C   UNL     1      -0.310  10.301  21.432  0.00  0.00    +0.000 A 
ATOM      4  C   UNL     1       0.284   9.693  20.322  0.00  0.00    +0.000 A 
ATOM      5  C   UNL     1       1.273   8.587  20.448  0.00  0.00    +0.000 A 
ATOM      6  O   UNL     1       1.476   8.077  21.543  0.00  0.00    +0.000 OA
ATOM      7  N   UNL     1       1.908   8.164  19.275  0.00  0.00    +0.000 N 
ATOM      8  C   UNL     1       1.572   8.662  18.035  0.00  0.00    +0.000 A 
ATOM      9  C   UNL     1       0.630   9.593  17.872  0.00  0.00    +0.000 A 
ATOM     10  C   UNL     1      -0.055  10.163  19.037  0.00  0.00    +0.000 A 
ATOM     11  C   UNL     1      -0.997  11.193  18.912  0.00  0.00    +0.000 A 
ENDROOT
BRANCH   1  14
ATOM     12  C   UNL     1      -4.942  13.287  19.407  0.00  0.00    +0.000 C 
ATOM     13  N   UNL     1      -3.827  12.379  19.475  0.00  0.00    +0.000 N 
ATOM     14  C   UNL     1      -2.618  12.788  20.000  0.00  0.00    +0.000 C 
ATOM     15  O   UNL     1      -2.405  13.937  20.371  0.00  0.00    +0.000 OA
ATOM     16  H   UNL     1      -3.904  11.436  19.109  0.00  0.00    +0.000 HD
ENDBRANCH   1  14
BRANCH   3  17
ATOM     17  C   UNL     1      -0.011   9.958  22.800  0.00  0.00    +0.000 C 
ATOM     18  N   UNL     1       0.263   9.622  23.880  0.00  0.00    +0.000 NA
ENDBRANCH   3  17
BRANCH  11  19
ATOM     19  O   UNL     1      -1.290  11.743  17.695  0.00  0.00    +0.000 OA
ATOM     20  H   UNL     1      -2.175  12.136  17.700  0.00  0.00    +0.000 HD
ENDBRANCH  11  19
BRANCH   7  21
ATOM     21  C   UNL     1       2.890   7.078  19.359  0.00  0.00    +0.000 C 
BRANCH  21  22
ATOM     22  C   UNL     1       2.306   5.687  19.235  0.00  0.00    +0.000 A 
ATOM     23  C   UNL     1       1.817   5.021  20.369  0.00  0.00    +0.000 A 
ATOM     24  C   UNL     1       1.146   3.803  20.247  0.00  0.00    +0.000 A 
ATOM     25  C   UNL     1       0.969   3.227  18.991  0.00  0.00    +0.000 A 
ATOM     26  C   UNL     1       1.492   3.852  17.862  0.00  0.00    +0.000 A 
ATOM     27  C   UNL     1       2.165   5.072  17.981  0.00  0.00    +0.000 A 
ENDBRANCH  21  22
ENDBRANCH   7  21
TORSDOF 5
ENDMDL
MODEL 3
REMARK VINA RESULT:      -7.5      4.401      6.453
REMARK  Name = 
REMARK  6 active torsions:
REMARK  status: ('A' for Active; 'I' for Inactive)
REMARK    1  A    between atoms: C_1  and  N_2
REMARK    2  A    between atoms: C_3  and  C_5
REMARK    3  A    between atoms: C_7  and  C_8
REMARK    4  A    between atoms: N_13  and  C_14
REMARK    5  A    between atoms: C_14  and  C_15
REMARK    6  A    between atoms: C_24  and  O_25
REMARK                            x       y       z     vdW  Elec       q    Type
REMARK                         _______ _______ _______ _____ _____    ______ ____
ROOT
ATOM      1  C   UNL     1       2.189   7.383  19.596  0.00  0.00    +0.000 A 
ATOM      2  N   UNL     1       2.218   6.147  20.172  0.00  0.00    +0.000 NA
ATOM      3  C   UNL     1       2.911   5.167  19.522  0.00  0.00    +0.000 A 
ATOM      4  C   UNL     1       3.600   5.387  18.326  0.00  0.00    +0.000 A 
ATOM      5  C   UNL     1       4.352   4.310  17.625  0.00  0.00    +0.000 A 
ATOM      6  O   UNL     1       4.257   3.152  18.013  0.00  0.00    +0.000 OA
ATOM      7  N   UNL     1       5.123   4.687  16.520  0.00  0.00    +0.000 N 
ATOM      8  C   UNL     1       5.116   5.972  16.022  0.00  0.00    +0.000 A 
ATOM      9  C   UNL     1       4.387   6.946  16.571  0.00  0.00    +0.000 A 
ATOM     10  C   UNL     1       3.594   6.684  17.776  0.00  0.00    +0.000 A 
ATOM     11  C   UNL     1       2.873   7.697  18.423  0.00  0.00    +0.000 A 
ENDROOT
BRANCH   1  14
ATOM     12  C   UNL     1       0.709   9.328  22.484  0.00  0.00    +0.000 C 
ATOM     13  N   UNL     1       1.414   8.360  21.684  0.00  0.00    +0.000 N 
ATOM     14  C   UNL     1       1.355   8.411  20.305  0.00  0.00    +0.000 C 
ATOM     15  O   UNL     1       0.667   9.221  19.695  0.00  0.00    +0.000 OA
ATOM     16  H   UNL     1       1.936   7.609  22.120  0.00  0.00    +0.000 HD
ENDBRANCH   1  14
BRANCH   3  17
ATOM     17  C   UNL     1       2.882   3.905  20.220  0.00  0.00    +0.000 C 
ATOM     18  N   UNL     1       2.931   2.889  20.786  0.00  0.00    +0.000 NA
ENDBRANCH   3  17
BRANCH  11  19
ATOM     19  O   UNL     1       2.912   8.990  17.979  0.00  0.00    +0.000 OA
ATOM     20  H   UNL     1       2.364   9.097  17.187  0.00  0.00    +0.000 HD
ENDBRANCH  11  19
BRANCH   7  21
ATOM     21  C   UNL     1       5.881   3.655  15.805  0.00  0.00    +0.000 C 
BRANCH  21  22
ATOM     22  C   UNL     1       6.292   4.033  14.398  0.00  0.00    +0.000 A 
ATOM     23  C   UNL     1       7.368   4.908  14.187  0.00  0.00    +0.000 A 
ATOM     24  C   UNL     1       7.849   5.150  12.899  0.00  0.00    +0.000 A 
ATOM     25  C   UNL     1       7.249   4.533  11.803  0.00  0.00    +0.000 A 
ATOM     26  C   UNL     1       6.148   3.700  11.993  0.00  0.00    +0.000 A 
ATOM     27  C   UNL     1       5.665   3.457  13.282  0.00  0.00    +0.000 A 
ENDBRANCH  21  22
ENDBRANCH   7  21
TORSDOF 5
ENDMDL
MODEL 4
REMARK VINA RESULT:      -7.4      3.152      8.258
REMARK  Name = 
REMARK  6 active torsions:
REMARK  status: ('A' for Active; 'I' for Inactive)
REMARK    1  A    between atoms: C_1  and  N_2
REMARK    2  A    between atoms: C_3  and  C_5
REMARK    3  A    between atoms: C_7  and  C_8
REMARK    4  A    between atoms: N_13  and  C_14
REMARK    5  A    between atoms: C_14  and  C_15
REMARK    6  A    between atoms: C_24  and  O_25
REMARK                            x       y       z     vdW  Elec       q    Type
REMARK                         _______ _______ _______ _____ _____    ______ ____
ROOT
ATOM      1  C   UNL     1       3.626   4.003  19.159  0.00  0.00    +0.000 A 
ATOM      2  N   UNL     1       4.212   4.572  18.068  0.00  0.00    +0.000 NA
ATOM      3  C   UNL     1       3.874   5.860  17.771  0.00  0.00    +0.000 A 
ATOM      4  C   UNL     1       2.985   6.611  18.547  0.00  0.00    +0.000 A 
ATOM      5  C   UNL     1       2.622   8.017  18.215  0.00  0.00    +0.000 A 
ATOM      6  O   UNL     1       2.987   8.503  17.151  0.00  0.00    +0.000 OA
ATOM      7  N   UNL     1       1.843   8.711  19.147  0.00  0.00    +0.000 N 
ATOM      8  C   UNL     1       1.335   8.107  20.277  0.00  0.00    +0.000 A 
ATOM      9  C   UNL     1       1.566   6.825  20.566  0.00  0.00    +0.000 A 
ATOM     10  C   UNL     1       2.429   6.017  19.696  0.00  0.00    +0.000 A 
ATOM     11  C   UNL     1       2.754   4.689  20.005  0.00  0.00    +0.000 A 
ENDROOT
BRANCH   1  14
ATOM     12  C   UNL     1       5.229   1.004  20.816  0.00  0.00    +0.000 C 
ATOM     13  N   UNL     1       4.862   2.343  20.436  0.00  0.00    +0.000 N 
ATOM     14  C   UNL     1       3.969   2.562  19.405  0.00  0.00    +0.000 C 
ATOM     15  O   UNL     1       3.497   1.657  18.727  0.00  0.00    +0.000 OA
ATOM     16  H   UNL     1       5.277   3.145  20.897  0.00  0.00    +0.000 HD
ENDBRANCH   1  14
BRANCH   3  17
ATOM     17  C   UNL     1       4.556   6.365  16.605  0.00  0.00    +0.000 C 
ATOM     18  N   UNL     1       5.139   6.708  15.658  0.00  0.00    +0.000 NA
ENDBRANCH   3  17
BRANCH  11  19
ATOM     19  O   UNL     1       2.312   4.099  21.156  0.00  0.00    +0.000 OA
ATOM     20  H   UNL     1       2.784   4.452  21.926  0.00  0.00    +0.000 HD
ENDBRANCH  11  19
BRANCH   7  21
ATOM     21  C   UNL     1       1.467  10.098  18.857  0.00  0.00    +0.000 C 
BRANCH  21  22
ATOM     22  C   UNL     1      -0.017  10.324  18.661  0.00  0.00    +0.000 A 
ATOM     23  C   UNL     1      -0.706  11.237  19.473  0.00  0.00    +0.000 A 
ATOM     24  C   UNL     1      -2.038  11.562  19.210  0.00  0.00    +0.000 A 
ATOM     25  C   UNL     1      -2.704  10.966  18.141  0.00  0.00    +0.000 A 
ATOM     26  C   UNL     1      -2.047  10.020  17.356  0.00  0.00    +0.000 A 
ATOM     27  C   UNL     1      -0.713   9.693  17.618  0.00  0.00    +0.000 A 
ENDBRANCH  21  22
ENDBRANCH   7  21
TORSDOF 5
ENDMDL
MODEL 5
REMARK VINA RESULT:      -7.2      4.242      6.048
REMARK  Name = 
REMARK  6 active torsions:
REMARK  status: ('A' for Active; 'I' for Inactive)
REMARK    1  A    between atoms: C_1  and  N_2
REMARK    2  A    between atoms: C_3  and  C_5
REMARK    3  A    between atoms: C_7  and  C_8
REMARK    4  A    between atoms: N_13  and  C_14
REMARK    5  A    between atoms: C_14  and  C_15
REMARK    6  A    between atoms: C_24  and  O_25
REMARK                            x       y       z     vdW  Elec       q    Type
REMARK                         _______ _______ _______ _____ _____    ______ ____
ROOT
ATOM      1  C   UNL     1       2.005   7.878  19.379  0.00  0.00    +0.000 A 
ATOM      2  N   UNL     1       2.031   6.694  20.054  0.00  0.00    +0.000 NA
ATOM      3  C   UNL     1       2.763   5.677  19.512  0.00  0.00    +0.000 A 
ATOM      4  C   UNL     1       3.492   5.812  18.327  0.00  0.00    +0.000 A 
ATOM      5  C   UNL     1       4.288   4.697  17.743  0.00  0.00    +0.000 A 
ATOM      6  O   UNL     1       4.196   3.572  18.221  0.00  0.00    +0.000 OA
ATOM      7  N   UNL     1       5.093   4.997  16.639  0.00  0.00    +0.000 N 
ATOM      8  C   UNL     1       5.084   6.237  16.038  0.00  0.00    +0.000 A 
ATOM      9  C   UNL     1       4.320   7.239  16.479  0.00  0.00    +0.000 A 
ATOM     10  C   UNL     1       3.487   7.060  17.673  0.00  0.00    +0.000 A 
ATOM     11  C   UNL     1       2.727   8.109  18.209  0.00  0.00    +0.000 A 
ENDROOT
BRANCH   1  14
ATOM     12  C   UNL     1      -0.577  10.640  19.504  0.00  0.00    +0.000 C 
ATOM     13  N   UNL     1       0.352   9.634  19.061  0.00  0.00    +0.000 N 
ATOM     14  C   UNL     1       1.129   8.945  19.971  0.00  0.00    +0.000 C 
ATOM     15  O   UNL     1       1.124   9.187  21.173  0.00  0.00    +0.000 OA
ATOM     16  H   UNL     1       0.472   9.438  18.074  0.00  0.00    +0.000 HD
ENDBRANCH   1  14
BRANCH   3  17
ATOM     17  C   UNL     1       2.729   4.476  20.309  0.00  0.00    +0.000 C 
ATOM     18  N   UNL     1       2.637   3.527  20.976  0.00  0.00    +0.000 NA
ENDBRANCH   3  17
BRANCH  11  19
ATOM     19  O   UNL     1       2.762   9.362  17.662  0.00  0.00    +0.000 OA
ATOM     20  H   UNL     1       2.116   9.943  18.093  0.00  0.00    +0.000 HD
ENDBRANCH  11  19
BRANCH   7  21
ATOM     21  C   UNL     1       5.893   3.925  16.038  0.00  0.00    +0.000 C 
BRANCH  21  22
ATOM     22  C   UNL     1       6.250   4.142  14.583  0.00  0.00    +0.000 A 
ATOM     23  C   UNL     1       7.354   4.935  14.238  0.00  0.00    +0.000 A 
ATOM     24  C   UNL     1       7.781   5.025  12.911  0.00  0.00    +0.000 A 
ATOM     25  C   UNL     1       7.099   4.335  11.911  0.00  0.00    +0.000 A 
ATOM     26  C   UNL     1       5.970   3.584  12.233  0.00  0.00    +0.000 A 
ATOM     27  C   UNL     1       5.542   3.493  13.560  0.00  0.00    +0.000 A 
ENDBRANCH  21  22
ENDBRANCH   7  21
TORSDOF 5
ENDMDL
MODEL 6
REMARK VINA RESULT:      -7.1      3.876      8.289
REMARK  Name = 
REMARK  6 active torsions:
REMARK  status: ('A' for Active; 'I' for Inactive)
REMARK    1  A    between atoms: C_1  and  N_2
REMARK    2  A    between atoms: C_3  and  C_5
REMARK    3  A    between atoms: C_7  and  C_8
REMARK    4  A    between atoms: N_13  and  C_14
REMARK    5  A    between atoms: C_14  and  C_15
REMARK    6  A    between atoms: C_24  and  O_25
REMARK                            x       y       z     vdW  Elec       q    Type
REMARK                         _______ _______ _______ _____ _____    ______ ____
ROOT
ATOM      1  C   UNL     1       5.325   5.012  16.464  0.00  0.00    +0.000 A 
ATOM      2  N   UNL     1       5.054   4.080  17.422  0.00  0.00    +0.000 NA
ATOM      3  C   UNL     1       4.246   4.457  18.456  0.00  0.00    +0.000 A 
ATOM      4  C   UNL     1       3.677   5.731  18.551  0.00  0.00    +0.000 A 
ATOM      5  C   UNL     1       2.796   6.133  19.683  0.00  0.00    +0.000 A 
ATOM      6  O   UNL     1       2.672   5.389  20.648  0.00  0.00    +0.000 OA
ATOM      7  N   UNL     1       2.168   7.379  19.590  0.00  0.00    +0.000 N 
ATOM      8  C   UNL     1       2.422   8.256  18.557  0.00  0.00    +0.000 A 
ATOM      9  C   UNL     1       3.270   7.968  17.569  0.00  0.00    +0.000 A 
ATOM     10  C   UNL     1       3.934   6.660  17.524  0.00  0.00    +0.000 A 
ATOM     11  C   UNL     1       4.775   6.293  16.465  0.00  0.00    +0.000 A 
ENDROOT
BRANCH   1  14
ATOM     12  C   UNL     1       6.481   3.806  13.070  0.00  0.00    +0.000 C 
ATOM     13  N   UNL     1       5.680   4.186  14.204  0.00  0.00    +0.000 N 
ATOM     14  C   UNL     1       6.277   4.578  15.387  0.00  0.00    +0.000 C 
ATOM     15  O   UNL     1       7.490   4.564  15.559  0.00  0.00    +0.000 OA
ATOM     16  H   UNL     1       4.668   4.143  14.163  0.00  0.00    +0.000 HD
ENDBRANCH   1  14
BRANCH   3  17
ATOM     17  C   UNL     1       4.019   3.396  19.405  0.00  0.00    +0.000 C 
ATOM     18  N   UNL     1       3.888   2.502  20.139  0.00  0.00    +0.000 NA
ENDBRANCH   3  17
BRANCH  11  19
ATOM     19  O   UNL     1       4.982   7.127  15.401  0.00  0.00    +0.000 OA
ATOM     20  H   UNL     1       5.759   6.849  14.893  0.00  0.00    +0.000 HD
ENDBRANCH  11  19
BRANCH   7  21
ATOM     21  C   UNL     1       1.291   7.809  20.684  0.00  0.00    +0.000 C 
BRANCH  21  22
ATOM     22  C   UNL     1       0.663   9.173  20.492  0.00  0.00    +0.000 A 
ATOM     23  C   UNL     1       0.975  10.224  21.368  0.00  0.00    +0.000 A 
ATOM     24  C   UNL     1       0.519  11.519  21.119  0.00  0.00    +0.000 A 
ATOM     25  C   UNL     1      -0.268  11.779  19.999  0.00  0.00    +0.000 A 
ATOM     26  C   UNL     1      -0.627  10.735  19.147  0.00  0.00    +0.000 A 
ATOM     27  C   UNL     1      -0.171   9.437  19.395  0.00  0.00    +0.000 A 
ENDBRANCH  21  22
ENDBRANCH   7  21
TORSDOF 5
ENDMDL
MODEL 7
REMARK VINA RESULT:      -7.1      0.933      1.099
REMARK  Name = 
REMARK  6 active torsions:
REMARK  status: ('A' for Active; 'I' for Inactive)
REMARK    1  A    between atoms: C_1  and  N_2
REMARK    2  A    between atoms: C_3  and  C_5
REMARK    3  A    between atoms: C_7  and  C_8
REMARK    4  A    between atoms: N_13  and  C_14
REMARK    5  A    between atoms: C_14  and  C_15
REMARK    6  A    between atoms: C_24  and  O_25
REMARK                            x       y       z     vdW  Elec       q    Type
REMARK                         _______ _______ _______ _____ _____    ______ ____
ROOT
ATOM      1  C   UNL     1      -1.378  11.361  19.947  0.00  0.00    +0.000 A 
ATOM      2  N   UNL     1      -1.020  10.962  21.200  0.00  0.00    +0.000 NA
ATOM      3  C   UNL     1      -0.079   9.978  21.302  0.00  0.00    +0.000 A 
ATOM      4  C   UNL     1       0.536   9.395  20.190  0.00  0.00    +0.000 A 
ATOM      5  C   UNL     1       1.561   8.322  20.311  0.00  0.00    +0.000 A 
ATOM      6  O   UNL     1       1.781   7.815  21.404  0.00  0.00    +0.000 OA
ATOM      7  N   UNL     1       2.211   7.925  19.137  0.00  0.00    +0.000 N 
ATOM      8  C   UNL     1       1.858   8.417  17.899  0.00  0.00    +0.000 A 
ATOM      9  C   UNL     1       0.885   9.317  17.739  0.00  0.00    +0.000 A 
ATOM     10  C   UNL     1       0.182   9.858  18.907  0.00  0.00    +0.000 A 
ATOM     11  C   UNL     1      -0.794  10.856  18.786  0.00  0.00    +0.000 A 
ENDROOT
BRANCH   1  14
ATOM     12  C   UNL     1      -3.323  14.485  20.825  0.00  0.00    +0.000 C 
ATOM     13  N   UNL     1      -2.376  13.401  20.818  0.00  0.00    +0.000 N 
ATOM     14  C   UNL     1      -2.468  12.392  19.880  0.00  0.00    +0.000 C 
ATOM     15  O   UNL     1      -3.376  12.325  19.058  0.00  0.00    +0.000 OA
ATOM     16  H   UNL     1      -1.647  13.345  21.521  0.00  0.00    +0.000 HD
ENDBRANCH   1  14
BRANCH   3  17
ATOM     17  C   UNL     1       0.231   9.639  22.669  0.00  0.00    +0.000 C 
ATOM     18  N   UNL     1       0.423   9.401  23.792  0.00  0.00    +0.000 NA
ENDBRANCH   3  17
BRANCH  11  19
ATOM     19  O   UNL     1      -1.105  11.401  17.571  0.00  0.00    +0.000 OA
ATOM     20  H   UNL     1      -0.333  11.398  16.985  0.00  0.00    +0.000 HD
ENDBRANCH  11  19
BRANCH   7  21
ATOM     21  C   UNL     1       3.228   6.873  19.217  0.00  0.00    +0.000 C 
BRANCH  21  22
ATOM     22  C   UNL     1       2.847   5.572  18.544  0.00  0.00    +0.000 A 
ATOM     23  C   UNL     1       3.659   5.033  17.535  0.00  0.00    +0.000 A 
ATOM     24  C   UNL     1       3.398   3.767  17.009  0.00  0.00    +0.000 A 
ATOM     25  C   UNL     1       2.312   3.028  17.474  0.00  0.00    +0.000 A 
ATOM     26  C   UNL     1       1.468   3.571  18.441  0.00  0.00    +0.000 A 
ATOM     27  C   UNL     1       1.727   4.839  18.969  0.00  0.00    +0.000 A 
ENDBRANCH  21  22
ENDBRANCH   7  21
TORSDOF 5
ENDMDL
MODEL 8
REMARK VINA RESULT:      -7.1      4.049      8.303
REMARK  Name = 
REMARK  6 active torsions:
REMARK  status: ('A' for Active; 'I' for Inactive)
REMARK    1  A    between atoms: C_1  and  N_2
REMARK    2  A    between atoms: C_3  and  C_5
REMARK    3  A    between atoms: C_7  and  C_8
REMARK    4  A    between atoms: N_13  and  C_14
REMARK    5  A    between atoms: C_14  and  C_15
REMARK    6  A    between atoms: C_24  and  O_25
REMARK                            x       y       z     vdW  Elec       q    Type
REMARK                         _______ _______ _______ _____ _____    ______ ____
ROOT
ATOM      1  C   UNL     1       5.427   5.061  16.195  0.00  0.00    +0.000 A 
ATOM      2  N   UNL     1       5.240   4.021  17.057  0.00  0.00    +0.000 NA
ATOM      3  C   UNL     1       4.459   4.246  18.153  0.00  0.00    +0.000 A 
ATOM      4  C   UNL     1       3.835   5.472  18.405  0.00  0.00    +0.000 A 
ATOM      5  C   UNL     1       2.985   5.707  19.605  0.00  0.00    +0.000 A 
ATOM      6  O   UNL     1       2.935   4.861  20.489  0.00  0.00    +0.000 OA
ATOM      7  N   UNL     1       2.295   6.923  19.668  0.00  0.00    +0.000 N 
ATOM      8  C   UNL     1       2.464   7.915  18.727  0.00  0.00    +0.000 A 
ATOM      9  C   UNL     1       3.283   7.775  17.682  0.00  0.00    +0.000 A 
ATOM     10  C   UNL     1       4.005   6.516  17.474  0.00  0.00    +0.000 A 
ATOM     11  C   UNL     1       4.818   6.305  16.352  0.00  0.00    +0.000 A 
ENDROOT
BRANCH   1  14
ATOM     12  C   UNL     1       6.584   3.714  12.854  0.00  0.00    +0.000 C 
ATOM     13  N   UNL     1       5.824   3.998  14.043  0.00  0.00    +0.000 N 
ATOM     14  C   UNL     1       6.351   4.792  15.043  0.00  0.00    +0.000 C 
ATOM     15  O   UNL     1       7.493   5.237  15.009  0.00  0.00    +0.000 OA
ATOM     16  H   UNL     1       4.904   3.595  14.179  0.00  0.00    +0.000 HD
ENDBRANCH   1  14
BRANCH   3  17
ATOM     17  C   UNL     1       4.322   3.081  18.991  0.00  0.00    +0.000 C 
ATOM     18  N   UNL     1       4.232   2.100  19.613  0.00  0.00    +0.000 NA
ENDBRANCH   3  17
BRANCH  11  19
ATOM     19  O   UNL     1       4.940   7.255  15.376  0.00  0.00    +0.000 OA
ATOM     20  H   UNL     1       4.192   7.870  15.400  0.00  0.00    +0.000 HD
ENDBRANCH  11  19
BRANCH   7  21
ATOM     21  C   UNL     1       1.445   7.190  20.833  0.00  0.00    +0.000 C 
BRANCH  21  22
ATOM     22  C   UNL     1       0.929   8.610  20.927  0.00  0.00    +0.000 A 
ATOM     23  C   UNL     1       0.577   9.312  19.764  0.00  0.00    +0.000 A 
ATOM     24  C   UNL     1      -0.035  10.564  19.845  0.00  0.00    +0.000 A 
ATOM     25  C   UNL     1      -0.289  11.138  21.089  0.00  0.00    +0.000 A 
ATOM     26  C   UNL     1       0.100  10.474  22.251  0.00  0.00    +0.000 A 
ATOM     27  C   UNL     1       0.713   9.220  22.172  0.00  0.00    +0.000 A 
ENDBRANCH  21  22
ENDBRANCH   7  21
TORSDOF 5
ENDMDL
MODEL 9
REMARK VINA RESULT:      -7.1      3.585      8.128
REMARK  Name = 
REMARK  6 active torsions:
REMARK  status: ('A' for Active; 'I' for Inactive)
REMARK    1  A    between atoms: C_1  and  N_2
REMARK    2  A    between atoms: C_3  and  C_5
REMARK    3  A    between atoms: C_7  and  C_8
REMARK    4  A    between atoms: N_13  and  C_14
REMARK    5  A    between atoms: C_14  and  C_15
REMARK    6  A    between atoms: C_24  and  O_25
REMARK                            x       y       z     vdW  Elec       q    Type
REMARK                         _______ _______ _______ _____ _____    ______ ____
ROOT
ATOM      1  C   UNL     1       4.992   5.007  16.870  0.00  0.00    +0.000 A 
ATOM      2  N   UNL     1       4.579   4.147  17.843  0.00  0.00    +0.000 NA
ATOM      3  C   UNL     1       3.739   4.637  18.801  0.00  0.00    +0.000 A 
ATOM      4  C   UNL     1       3.276   5.956  18.804  0.00  0.00    +0.000 A 
ATOM      5  C   UNL     1       2.359   6.481  19.854  0.00  0.00    +0.000 A 
ATOM      6  O   UNL     1       2.107   5.795  20.837  0.00  0.00    +0.000 OA
ATOM      7  N   UNL     1       1.847   7.770  19.666  0.00  0.00    +0.000 N 
ATOM      8  C   UNL     1       2.244   8.574  18.619  0.00  0.00    +0.000 A 
ATOM      9  C   UNL     1       3.129   8.171  17.705  0.00  0.00    +0.000 A 
ATOM     10  C   UNL     1       3.680   6.812  17.761  0.00  0.00    +0.000 A 
ATOM     11  C   UNL     1       4.555   6.328  16.779  0.00  0.00    +0.000 A 
ENDROOT
BRANCH   1  14
ATOM     12  C   UNL     1       6.343   3.834  13.537  0.00  0.00    +0.000 C 
ATOM     13  N   UNL     1       5.488   4.303  14.595  0.00  0.00    +0.000 N 
ATOM     14  C   UNL     1       5.973   4.447  15.880  0.00  0.00    +0.000 C 
ATOM     15  O   UNL     1       7.112   4.131  16.203  0.00  0.00    +0.000 OA
ATOM     16  H   UNL     1       4.510   4.504  14.420  0.00  0.00    +0.000 HD
ENDBRANCH   1  14
BRANCH   3  17
ATOM     17  C   UNL     1       3.359   3.643  19.774  0.00  0.00    +0.000 C 
ATOM     18  N   UNL     1       3.076   2.790  20.515  0.00  0.00    +0.000 NA
ENDBRANCH   3  17
BRANCH  11  19
ATOM     19  O   UNL     1       4.903   7.091  15.700  0.00  0.00    +0.000 OA
ATOM     20  H   UNL     1       5.027   8.017  15.959  0.00  0.00    +0.000 HD
ENDBRANCH  11  19
BRANCH   7  21
ATOM     21  C   UNL     1       0.939   8.320  20.677  0.00  0.00    +0.000 C 
BRANCH  21  22
ATOM     22  C   UNL     1       0.410   9.704  20.365  0.00  0.00    +0.000 A 
ATOM     23  C   UNL     1      -0.643   9.868  19.453  0.00  0.00    +0.000 A 
ATOM     24  C   UNL     1      -1.237  11.118  19.266  0.00  0.00    +0.000 A 
ATOM     25  C   UNL     1      -0.774  12.223  19.977  0.00  0.00    +0.000 A 
ATOM     26  C   UNL     1       0.304  12.085  20.849  0.00  0.00    +0.000 A 
ATOM     27  C   UNL     1       0.899  10.834  21.038  0.00  0.00    +0.000 A 
ENDBRANCH  21  22
ENDBRANCH   7  21
TORSDOF 5
ENDMDL
