MODEL 1
REMARK VINA RESULT:      -9.5      0.000      0.000
REMARK  Name = 
REMARK  3 active torsions:
REMARK  status: ('A' for Active; 'I' for Inactive)
REMARK    1  A    between atoms: C_1  and  O_2
REMARK    2  A    between atoms: O_2  and  C_3
REMARK    3  A    between atoms: C_6  and  C_7
REMARK                            x       y       z     vdW  Elec       q    Type
REMARK                         _______ _______ _______ _____ _____    ______ ____
ROOT
ATOM      1  C   UNL     1       0.627  10.196  20.278  0.00  0.00    +0.000 A 
ATOM      2  C   UNL     1       1.073   8.893  20.612  0.00  0.00    +0.000 A 
ATOM      3  C   UNL     1       1.722   8.145  19.635  0.00  0.00    +0.000 A 
ATOM      4  C   UNL     1       1.918   8.699  18.354  0.00  0.00    +0.000 A 
ATOM      5  C   UNL     1       1.358   9.944  18.090  0.00  0.00    +0.000 A 
ATOM      6  N   UNL     1       0.736  10.686  19.021  0.00  0.00    +0.000 NA
ATOM      7  C   UNL     1       2.725   8.047  17.268  0.00  0.00    +0.000 C 
ATOM      8  C   UNL     1       3.550   6.804  17.645  0.00  0.00    +0.000 C 
ATOM      9  C   UNL     1       3.446   6.437  19.075  0.00  0.00    +0.000 A 
ATOM     10  C   UNL     1       2.434   6.895  19.886  0.00  0.00    +0.000 A 
ATOM     11  N   UNL     1       2.035   5.761  20.599  0.00  0.00    +0.000 N 
ATOM     12  C   UNL     1       2.910   4.752  20.234  0.00  0.00    +0.000 A 
ATOM     13  C   UNL     1       4.052   5.363  19.759  0.00  0.00    +0.000 A 
ATOM     14  C   UNL     1       5.223   4.589  19.412  0.00  0.00    +0.000 C 
ATOM     15  O   UNL     1       6.367   4.927  19.681  0.00  0.00    +0.000 OA
ATOM     16  N   UNL     1       4.913   3.468  18.674  0.00  0.00    +0.000 N 
ATOM     17  C   UNL     1       3.607   2.798  18.814  0.00  0.00    +0.000 C 
ATOM     18  C   UNL     1       3.519   1.318  18.525  0.00  0.00    +0.000 C 
ATOM     19  C   UNL     1       3.052   2.281  17.487  0.00  0.00    +0.000 C 
ATOM     20  C   UNL     1       2.690   3.288  20.007  0.00  0.00    +0.000 C 
ATOM     21  H   UNL     1       1.156   5.648  21.087  0.00  0.00    +0.000 HD
ATOM     22  H   UNL     1       5.105   3.719  17.709  0.00  0.00    +0.000 HD
ENDROOT
BRANCH   1  26
ATOM     23  C   UNL     1      -1.224  12.904  23.097  0.00  0.00    +0.000 A 
ATOM     24  C   UNL     1      -0.390  13.405  22.093  0.00  0.00    +0.000 A 
ATOM     25  C   UNL     1       0.216  12.542  21.166  0.00  0.00    +0.000 A 
ATOM     26  C   UNL     1       0.027  11.155  21.234  0.00  0.00    +0.000 A 
ATOM     27  C   UNL     1      -0.835  10.681  22.247  0.00  0.00    +0.000 A 
ATOM     28  C   UNL     1      -1.449  11.537  23.167  0.00  0.00    +0.000 A 
BRANCH  23  30
ATOM     29  C   UNL     1      -1.085  15.111  23.947  0.00  0.00    +0.000 C 
ATOM     30  O   UNL     1      -1.725  13.840  23.959  0.00  0.00    +0.000 OA
ENDBRANCH  23  30
ENDBRANCH   1  26
TORSDOF 2
ENDMDL
MODEL 2
REMARK VINA RESULT:      -9.4      0.437      1.014
REMARK  Name = 
REMARK  3 active torsions:
REMARK  status: ('A' for Active; 'I' for Inactive)
REMARK    1  A    between atoms: C_1  and  O_2
REMARK    2  A    between atoms: O_2  and  C_3
REMARK    3  A    between atoms: C_6  and  C_7
REMARK                            x       y       z     vdW  Elec       q    Type
REMARK                         _______ _______ _______ _____ _____    ______ ____
ROOT
ATOM      1  C   UNL     1       0.606  10.201  20.275  0.00  0.00    +0.000 A 
ATOM      2  C   UNL     1       1.052   8.900  20.610  0.00  0.00    +0.000 A 
ATOM      3  C   UNL     1       1.705   8.151  19.635  0.00  0.00    +0.000 A 
ATOM      4  C   UNL     1       1.903   8.705  18.355  0.00  0.00    +0.000 A 
ATOM      5  C   UNL     1       1.343   9.949  18.089  0.00  0.00    +0.000 A 
ATOM      6  N   UNL     1       0.718  10.691  19.017  0.00  0.00    +0.000 NA
ATOM      7  C   UNL     1       2.715   8.053  17.271  0.00  0.00    +0.000 C 
ATOM      8  C   UNL     1       3.539   6.811  17.651  0.00  0.00    +0.000 C 
ATOM      9  C   UNL     1       3.433   6.445  19.081  0.00  0.00    +0.000 A 
ATOM     10  C   UNL     1       2.418   6.902  19.889  0.00  0.00    +0.000 A 
ATOM     11  N   UNL     1       2.018   5.768  20.601  0.00  0.00    +0.000 N 
ATOM     12  C   UNL     1       2.894   4.760  20.239  0.00  0.00    +0.000 A 
ATOM     13  C   UNL     1       4.038   5.372  19.767  0.00  0.00    +0.000 A 
ATOM     14  C   UNL     1       5.211   4.599  19.423  0.00  0.00    +0.000 C 
ATOM     15  O   UNL     1       6.353   4.938  19.696  0.00  0.00    +0.000 OA
ATOM     16  N   UNL     1       4.903   3.477  18.685  0.00  0.00    +0.000 N 
ATOM     17  C   UNL     1       3.598   2.806  18.822  0.00  0.00    +0.000 C 
ATOM     18  C   UNL     1       3.512   1.325  18.533  0.00  0.00    +0.000 C 
ATOM     19  C   UNL     1       3.047   2.288  17.494  0.00  0.00    +0.000 C 
ATOM     20  C   UNL     1       2.677   3.295  20.013  0.00  0.00    +0.000 C 
ATOM     21  H   UNL     1       1.137   5.655  21.087  0.00  0.00    +0.000 HD
ATOM     22  H   UNL     1       5.097   3.728  17.720  0.00  0.00    +0.000 HD
ENDROOT
BRANCH   1  26
ATOM     23  C   UNL     1      -1.053  13.091  23.033  0.00  0.00    +0.000 A 
ATOM     24  C   UNL     1      -1.384  11.737  23.156  0.00  0.00    +0.000 A 
ATOM     25  C   UNL     1      -0.852  10.785  22.273  0.00  0.00    +0.000 A 
ATOM     26  C   UNL     1       0.002  11.161  21.229  0.00  0.00    +0.000 A 
ATOM     27  C   UNL     1       0.333  12.530  21.140  0.00  0.00    +0.000 A 
ATOM     28  C   UNL     1      -0.187  13.483  22.022  0.00  0.00    +0.000 A 
BRANCH  23  30
ATOM     29  C   UNL     1      -3.078  13.819  24.021  0.00  0.00    +0.000 C 
ATOM     30  O   UNL     1      -1.662  13.924  23.929  0.00  0.00    +0.000 OA
ENDBRANCH  23  30
ENDBRANCH   1  26
TORSDOF 2
ENDMDL
MODEL 3
REMARK VINA RESULT:      -8.7      1.124      1.389
REMARK  Name = 
REMARK  3 active torsions:
REMARK  status: ('A' for Active; 'I' for Inactive)
REMARK    1  A    between atoms: C_1  and  O_2
REMARK    2  A    between atoms: O_2  and  C_3
REMARK    3  A    between atoms: C_6  and  C_7
REMARK                            x       y       z     vdW  Elec       q    Type
REMARK                         _______ _______ _______ _____ _____    ______ ____
ROOT
ATOM      1  C   UNL     1       0.068  11.205  20.772  0.00  0.00    +0.000 A 
ATOM      2  C   UNL     1       0.474   9.887  21.097  0.00  0.00    +0.000 A 
ATOM      3  C   UNL     1       0.947   9.069  20.075  0.00  0.00    +0.000 A 
ATOM      4  C   UNL     1       1.011   9.571  18.760  0.00  0.00    +0.000 A 
ATOM      5  C   UNL     1       0.499  10.840  18.521  0.00  0.00    +0.000 A 
ATOM      6  N   UNL     1       0.046  11.649  19.492  0.00  0.00    +0.000 NA
ATOM      7  C   UNL     1       1.633   8.835  17.607  0.00  0.00    +0.000 C 
ATOM      8  C   UNL     1       2.422   7.553  17.925  0.00  0.00    +0.000 C 
ATOM      9  C   UNL     1       2.480   7.237  19.370  0.00  0.00    +0.000 A 
ATOM     10  C   UNL     1       1.609   7.784  20.283  0.00  0.00    +0.000 A 
ATOM     11  N   UNL     1       1.236   6.700  21.083  0.00  0.00    +0.000 N 
ATOM     12  C   UNL     1       1.994   5.626  20.650  0.00  0.00    +0.000 A 
ATOM     13  C   UNL     1       3.102   6.147  20.014  0.00  0.00    +0.000 A 
ATOM     14  C   UNL     1       4.170   5.289  19.552  0.00  0.00    +0.000 C 
ATOM     15  O   UNL     1       5.358   5.560  19.663  0.00  0.00    +0.000 OA
ATOM     16  N   UNL     1       3.701   4.168  18.902  0.00  0.00    +0.000 N 
ATOM     17  C   UNL     1       2.386   3.588  19.230  0.00  0.00    +0.000 C 
ATOM     18  C   UNL     1       2.173   2.109  19.012  0.00  0.00    +0.000 C 
ATOM     19  C   UNL     1       1.636   3.069  18.004  0.00  0.00    +0.000 C 
ATOM     20  C   UNL     1       1.660   4.173  20.510  0.00  0.00    +0.000 C 
ATOM     21  H   UNL     1       0.421   6.660  21.682  0.00  0.00    +0.000 HD
ATOM     22  H   UNL     1       3.783   4.377  17.912  0.00  0.00    +0.000 HD
ENDROOT
BRANCH   1  26
ATOM     23  C   UNL     1      -1.258  14.127  23.672  0.00  0.00    +0.000 A 
ATOM     24  C   UNL     1      -0.305  14.480  22.711  0.00  0.00    +0.000 A 
ATOM     25  C   UNL     1       0.134  13.546  21.759  0.00  0.00    +0.000 A 
ATOM     26  C   UNL     1      -0.346  12.230  21.758  0.00  0.00    +0.000 A 
ATOM     27  C   UNL     1      -1.320  11.909  22.728  0.00  0.00    +0.000 A 
ATOM     28  C   UNL     1      -1.768  12.836  23.673  0.00  0.00    +0.000 A 
BRANCH  23  30
ATOM     29  C   UNL     1      -2.912  15.101  25.059  0.00  0.00    +0.000 C 
ATOM     30  O   UNL     1      -1.578  15.111  24.565  0.00  0.00    +0.000 OA
ENDBRANCH  23  30
ENDBRANCH   1  26
TORSDOF 2
ENDMDL
MODEL 4
REMARK VINA RESULT:      -8.7      2.473      9.341
REMARK  Name = 
REMARK  3 active torsions:
REMARK  status: ('A' for Active; 'I' for Inactive)
REMARK    1  A    between atoms: C_1  and  O_2
REMARK    2  A    between atoms: O_2  and  C_3
REMARK    3  A    between atoms: C_6  and  C_7
REMARK                            x       y       z     vdW  Elec       q    Type
REMARK                         _______ _______ _______ _____ _____    ______ ____
ROOT
ATOM      1  C   UNL     1       3.028   6.675  18.322  0.00  0.00    +0.000 A 
ATOM      2  C   UNL     1       2.470   7.966  18.150  0.00  0.00    +0.000 A 
ATOM      3  C   UNL     1       1.744   8.519  19.201  0.00  0.00    +0.000 A 
ATOM      4  C   UNL     1       1.589   7.788  20.396  0.00  0.00    +0.000 A 
ATOM      5  C   UNL     1       2.086   6.491  20.435  0.00  0.00    +0.000 A 
ATOM      6  N   UNL     1       2.797   5.942  19.437  0.00  0.00    +0.000 NA
ATOM      7  C   UNL     1       0.952   8.335  21.642  0.00  0.00    +0.000 C 
ATOM      8  C   UNL     1       0.638   9.841  21.676  0.00  0.00    +0.000 C 
ATOM      9  C   UNL     1       1.048  10.559  20.449  0.00  0.00    +0.000 A 
ATOM     10  C   UNL     1       1.309   9.912  19.264  0.00  0.00    +0.000 A 
ATOM     11  N   UNL     1       0.663  10.696  18.304  0.00  0.00    +0.000 N 
ATOM     12  C   UNL     1       0.166  11.797  18.979  0.00  0.00    +0.000 A 
ATOM     13  C   UNL     1       0.908  11.927  20.135  0.00  0.00    +0.000 A 
ATOM     14  C   UNL     1       0.730  13.063  21.013  0.00  0.00    +0.000 C 
ATOM     15  O   UNL     1       1.652  13.658  21.552  0.00  0.00    +0.000 OA
ATOM     16  N   UNL     1      -0.598  13.352  21.236  0.00  0.00    +0.000 N 
ATOM     17  C   UNL     1      -1.630  13.033  20.232  0.00  0.00    +0.000 C 
ATOM     18  C   UNL     1      -2.884  13.874  20.191  0.00  0.00    +0.000 C 
ATOM     19  C   UNL     1      -2.937  12.537  20.849  0.00  0.00    +0.000 C 
ATOM     20  C   UNL     1      -1.108  12.567  18.812  0.00  0.00    +0.000 C 
ATOM     21  H   UNL     1       0.412  10.399  17.369  0.00  0.00    +0.000 HD
ATOM     22  H   UNL     1      -0.815  12.942  22.140  0.00  0.00    +0.000 HD
ENDROOT
BRANCH   1  26
ATOM     23  C   UNL     1       5.625   4.596  15.558  0.00  0.00    +0.000 A 
ATOM     24  C   UNL     1       5.611   5.994  15.587  0.00  0.00    +0.000 A 
ATOM     25  C   UNL     1       4.779   6.687  16.480  0.00  0.00    +0.000 A 
ATOM     26  C   UNL     1       3.919   6.002  17.349  0.00  0.00    +0.000 A 
ATOM     27  C   UNL     1       3.967   4.592  17.310  0.00  0.00    +0.000 A 
ATOM     28  C   UNL     1       4.801   3.897  16.428  0.00  0.00    +0.000 A 
BRANCH  23  30
ATOM     29  C   UNL     1       5.883   3.824  13.334  0.00  0.00    +0.000 C 
ATOM     30  O   UNL     1       6.450   4.040  14.621  0.00  0.00    +0.000 OA
ENDBRANCH  23  30
ENDBRANCH   1  26
TORSDOF 2
ENDMDL
MODEL 5
REMARK VINA RESULT:      -8.5      2.393      9.344
REMARK  Name = 
REMARK  3 active torsions:
REMARK  status: ('A' for Active; 'I' for Inactive)
REMARK    1  A    between atoms: C_1  and  O_2
REMARK    2  A    between atoms: O_2  and  C_3
REMARK    3  A    between atoms: C_6  and  C_7
REMARK                            x       y       z     vdW  Elec       q    Type
REMARK                         _______ _______ _______ _____ _____    ______ ____
ROOT
ATOM      1  C   UNL     1       2.769   6.703  18.647  0.00  0.00    +0.000 A 
ATOM      2  C   UNL     1       2.249   8.004  18.442  0.00  0.00    +0.000 A 
ATOM      3  C   UNL     1       1.539   8.604  19.478  0.00  0.00    +0.000 A 
ATOM      4  C   UNL     1       1.362   7.908  20.691  0.00  0.00    +0.000 A 
ATOM      5  C   UNL     1       1.822   6.598  20.763  0.00  0.00    +0.000 A 
ATOM      6  N   UNL     1       2.516   6.004  19.779  0.00  0.00    +0.000 NA
ATOM      7  C   UNL     1       0.741   8.504  21.922  0.00  0.00    +0.000 C 
ATOM      8  C   UNL     1       0.471  10.019  21.919  0.00  0.00    +0.000 C 
ATOM      9  C   UNL     1       0.902  10.694  20.675  0.00  0.00    +0.000 A 
ATOM     10  C   UNL     1       1.145  10.010  19.506  0.00  0.00    +0.000 A 
ATOM     11  N   UNL     1       0.522  10.788  18.526  0.00  0.00    +0.000 N 
ATOM     12  C   UNL     1       0.057  11.920  19.174  0.00  0.00    +0.000 A 
ATOM     13  C   UNL     1       0.802  12.057  20.327  0.00  0.00    +0.000 A 
ATOM     14  C   UNL     1       0.657  13.219  21.176  0.00  0.00    +0.000 C 
ATOM     15  O   UNL     1       1.596  13.800  21.702  0.00  0.00    +0.000 OA
ATOM     16  N   UNL     1      -0.662  13.552  21.390  0.00  0.00    +0.000 N 
ATOM     17  C   UNL     1      -1.702  13.239  20.393  0.00  0.00    +0.000 C 
ATOM     18  C   UNL     1      -2.932  14.114  20.330  0.00  0.00    +0.000 C 
ATOM     19  C   UNL     1      -3.023  12.796  21.021  0.00  0.00    +0.000 C 
ATOM     20  C   UNL     1      -1.193  12.722  18.986  0.00  0.00    +0.000 C 
ATOM     21  H   UNL     1       0.263  10.475  17.599  0.00  0.00    +0.000 HD
ATOM     22  H   UNL     1      -0.891  13.171  22.304  0.00  0.00    +0.000 HD
ENDROOT
BRANCH   1  26
ATOM     23  C   UNL     1       5.325   4.710  15.783  0.00  0.00    +0.000 A 
ATOM     24  C   UNL     1       4.450   3.962  16.578  0.00  0.00    +0.000 A 
ATOM     25  C   UNL     1       3.610   4.591  17.510  0.00  0.00    +0.000 A 
ATOM     26  C   UNL     1       3.640   5.980  17.691  0.00  0.00    +0.000 A 
ATOM     27  C   UNL     1       4.519   6.710  16.863  0.00  0.00    +0.000 A 
ATOM     28  C   UNL     1       5.352   6.089  15.926  0.00  0.00    +0.000 A 
BRANCH  23  30
ATOM     29  C   UNL     1       6.935   4.724  14.046  0.00  0.00    +0.000 C 
ATOM     30  O   UNL     1       6.116   3.980  14.941  0.00  0.00    +0.000 OA
ENDBRANCH  23  30
ENDBRANCH   1  26
TORSDOF 2
ENDMDL
MODEL 6
REMARK VINA RESULT:      -8.1      2.760     10.070
REMARK  Name = 
REMARK  3 active torsions:
REMARK  status: ('A' for Active; 'I' for Inactive)
REMARK    1  A    between atoms: C_1  and  O_2
REMARK    2  A    between atoms: O_2  and  C_3
REMARK    3  A    between atoms: C_6  and  C_7
REMARK                            x       y       z     vdW  Elec       q    Type
REMARK                         _______ _______ _______ _____ _____    ______ ____
ROOT
ATOM      1  C   UNL     1       0.162  10.013  19.299  0.00  0.00    +0.000 A 
ATOM      2  C   UNL     1      -0.060  10.669  20.535  0.00  0.00    +0.000 A 
ATOM      3  C   UNL     1      -1.167  11.504  20.652  0.00  0.00    +0.000 A 
ATOM      4  C   UNL     1      -2.028  11.670  19.550  0.00  0.00    +0.000 A 
ATOM      5  C   UNL     1      -1.675  11.065  18.350  0.00  0.00    +0.000 A 
ATOM      6  N   UNL     1      -0.617  10.248  18.217  0.00  0.00    +0.000 NA
ATOM      7  C   UNL     1      -3.325  12.428  19.600  0.00  0.00    +0.000 C 
ATOM      8  C   UNL     1      -3.834  12.873  20.982  0.00  0.00    +0.000 C 
ATOM      9  C   UNL     1      -2.960  12.451  22.099  0.00  0.00    +0.000 A 
ATOM     10  C   UNL     1      -1.654  12.062  21.911  0.00  0.00    +0.000 A 
ATOM     11  N   UNL     1      -0.959  12.712  22.934  0.00  0.00    +0.000 N 
ATOM     12  C   UNL     1      -1.918  13.344  23.707  0.00  0.00    +0.000 A 
ATOM     13  C   UNL     1      -3.111  12.690  23.481  0.00  0.00    +0.000 A 
ATOM     14  C   UNL     1      -4.299  13.020  24.236  0.00  0.00    +0.000 C 
ATOM     15  O   UNL     1      -5.086  12.189  24.666  0.00  0.00    +0.000 OA
ATOM     16  N   UNL     1      -4.488  14.380  24.351  0.00  0.00    +0.000 N 
ATOM     17  C   UNL     1      -3.349  15.315  24.332  0.00  0.00    +0.000 C 
ATOM     18  C   UNL     1      -3.481  16.632  25.059  0.00  0.00    +0.000 C 
ATOM     19  C   UNL     1      -3.646  16.610  23.577  0.00  0.00    +0.000 C 
ATOM     20  C   UNL     1      -1.906  14.667  24.410  0.00  0.00    +0.000 C 
ATOM     21  H   UNL     1       0.040  12.877  22.959  0.00  0.00    +0.000 HD
ATOM     22  H   UNL     1      -5.179  14.616  23.645  0.00  0.00    +0.000 HD
ENDROOT
BRANCH   1  26
ATOM     23  C   UNL     1       3.242   7.099  18.445  0.00  0.00    +0.000 A 
ATOM     24  C   UNL     1       2.571   7.067  19.672  0.00  0.00    +0.000 A 
ATOM     25  C   UNL     1       1.566   8.001  19.965  0.00  0.00    +0.000 A 
ATOM     26  C   UNL     1       1.223   9.008  19.054  0.00  0.00    +0.000 A 
ATOM     27  C   UNL     1       1.904   9.004  17.817  0.00  0.00    +0.000 A 
ATOM     28  C   UNL     1       2.900   8.070  17.516  0.00  0.00    +0.000 A 
BRANCH  23  30
ATOM     29  C   UNL     1       4.321   5.181  19.321  0.00  0.00    +0.000 C 
ATOM     30  O   UNL     1       4.224   6.160  18.293  0.00  0.00    +0.000 OA
ENDBRANCH  23  30
ENDBRANCH   1  26
TORSDOF 2
ENDMDL
MODEL 7
REMARK VINA RESULT:      -7.8      2.864      9.372
REMARK  Name = 
REMARK  3 active torsions:
REMARK  status: ('A' for Active; 'I' for Inactive)
REMARK    1  A    between atoms: C_1  and  O_2
REMARK    2  A    between atoms: O_2  and  C_3
REMARK    3  A    between atoms: C_6  and  C_7
REMARK                            x       y       z     vdW  Elec       q    Type
REMARK                         _______ _______ _______ _____ _____    ______ ____
ROOT
ATOM      1  C   UNL     1       2.613   7.115  18.558  0.00  0.00    +0.000 A 
ATOM      2  C   UNL     1       1.702   8.099  18.102  0.00  0.00    +0.000 A 
ATOM      3  C   UNL     1       0.960   8.803  19.045  0.00  0.00    +0.000 A 
ATOM      4  C   UNL     1       1.137   8.523  20.415  0.00  0.00    +0.000 A 
ATOM      5  C   UNL     1       1.979   7.473  20.762  0.00  0.00    +0.000 A 
ATOM      6  N   UNL     1       2.711   6.787  19.869  0.00  0.00    +0.000 NA
ATOM      7  C   UNL     1       0.501   9.311  21.525  0.00  0.00    +0.000 C 
ATOM      8  C   UNL     1      -0.216  10.618  21.148  0.00  0.00    +0.000 C 
ATOM      9  C   UNL     1      -0.150  10.934  19.704  0.00  0.00    +0.000 A 
ATOM     10  C   UNL     1       0.161   9.990  18.752  0.00  0.00    +0.000 A 
ATOM     11  N   UNL     1      -0.772  10.217  17.737  0.00  0.00    +0.000 N 
ATOM     12  C   UNL     1      -1.487  11.340  18.117  0.00  0.00    +0.000 A 
ATOM     13  C   UNL     1      -0.698  12.034  19.012  0.00  0.00    +0.000 A 
ATOM     14  C   UNL     1      -1.098  13.332  19.508  0.00  0.00    +0.000 C 
ATOM     15  O   UNL     1      -0.330  14.272  19.651  0.00  0.00    +0.000 OA
ATOM     16  N   UNL     1      -2.424  13.368  19.879  0.00  0.00    +0.000 N 
ATOM     17  C   UNL     1      -3.421  12.490  19.239  0.00  0.00    +0.000 C 
ATOM     18  C   UNL     1      -4.858  12.952  19.177  0.00  0.00    +0.000 C 
ATOM     19  C   UNL     1      -4.468  11.956  20.216  0.00  0.00    +0.000 C 
ATOM     20  C   UNL     1      -2.935  11.688  17.963  0.00  0.00    +0.000 C 
ATOM     21  H   UNL     1      -1.023   9.562  17.007  0.00  0.00    +0.000 HD
ATOM     22  H   UNL     1      -2.425  13.263  20.889  0.00  0.00    +0.000 HD
ENDROOT
BRANCH   1  26
ATOM     23  C   UNL     1       5.343   4.819  16.112  0.00  0.00    +0.000 A 
ATOM     24  C   UNL     1       5.393   6.217  16.091  0.00  0.00    +0.000 A 
ATOM     25  C   UNL     1       4.518   6.979  16.881  0.00  0.00    +0.000 A 
ATOM     26  C   UNL     1       3.554   6.367  17.692  0.00  0.00    +0.000 A 
ATOM     27  C   UNL     1       3.539   4.955  17.707  0.00  0.00    +0.000 A 
ATOM     28  C   UNL     1       4.414   4.191  16.929  0.00  0.00    +0.000 A 
BRANCH  23  30
ATOM     29  C   UNL     1       5.858   4.156  13.898  0.00  0.00    +0.000 C 
ATOM     30  O   UNL     1       6.221   4.192  15.273  0.00  0.00    +0.000 OA
ENDBRANCH  23  30
ENDBRANCH   1  26
TORSDOF 2
ENDMDL
MODEL 8
REMARK VINA RESULT:      -7.6      2.133      9.397
REMARK  Name = 
REMARK  3 active torsions:
REMARK  status: ('A' for Active; 'I' for Inactive)
REMARK    1  A    between atoms: C_1  and  O_2
REMARK    2  A    between atoms: O_2  and  C_3
REMARK    3  A    between atoms: C_6  and  C_7
REMARK                            x       y       z     vdW  Elec       q    Type
REMARK                         _______ _______ _______ _____ _____    ______ ____
ROOT
ATOM      1  C   UNL     1       1.881   7.941  19.363  0.00  0.00    +0.000 A 
ATOM      2  C   UNL     1       1.081   8.648  20.294  0.00  0.00    +0.000 A 
ATOM      3  C   UNL     1       0.745   9.968  20.009  0.00  0.00    +0.000 A 
ATOM      4  C   UNL     1       1.204  10.557  18.813  0.00  0.00    +0.000 A 
ATOM      5  C   UNL     1       2.064   9.818  18.011  0.00  0.00    +0.000 A 
ATOM      6  N   UNL     1       2.394   8.540  18.262  0.00  0.00    +0.000 NA
ATOM      7  C   UNL     1       0.790  11.919  18.332  0.00  0.00    +0.000 C 
ATOM      8  C   UNL     1      -0.352  12.622  19.086  0.00  0.00    +0.000 C 
ATOM      9  C   UNL     1      -0.915  11.816  20.192  0.00  0.00    +0.000 A 
ATOM     10  C   UNL     1      -0.248  10.747  20.744  0.00  0.00    +0.000 A 
ATOM     11  N   UNL     1      -0.414  10.921  22.120  0.00  0.00    +0.000 N 
ATOM     12  C   UNL     1      -1.252  12.013  22.270  0.00  0.00    +0.000 A 
ATOM     13  C   UNL     1      -1.953  12.146  21.089  0.00  0.00    +0.000 A 
ATOM     14  C   UNL     1      -3.014  13.119  20.956  0.00  0.00    +0.000 C 
ATOM     15  O   UNL     1      -4.073  12.898  20.386  0.00  0.00    +0.000 OA
ATOM     16  N   UNL     1      -2.669  14.348  21.474  0.00  0.00    +0.000 N 
ATOM     17  C   UNL     1      -1.700  14.468  22.579  0.00  0.00    +0.000 C 
ATOM     18  C   UNL     1      -1.808  15.651  23.511  0.00  0.00    +0.000 C 
ATOM     19  C   UNL     1      -0.773  15.675  22.437  0.00  0.00    +0.000 C 
ATOM     20  C   UNL     1      -1.265  13.117  23.281  0.00  0.00    +0.000 C 
ATOM     21  H   UNL     1       0.149  10.490  22.843  0.00  0.00    +0.000 HD
ATOM     22  H   UNL     1      -2.397  14.911  20.673  0.00  0.00    +0.000 HD
ENDROOT
BRANCH   1  26
ATOM     23  C   UNL     1       2.887   3.737  19.521  0.00  0.00    +0.000 A 
ATOM     24  C   UNL     1       2.275   4.350  20.618  0.00  0.00    +0.000 A 
ATOM     25  C   UNL     1       1.937   5.712  20.584  0.00  0.00    +0.000 A 
ATOM     26  C   UNL     1       2.225   6.503  19.464  0.00  0.00    +0.000 A 
ATOM     27  C   UNL     1       2.827   5.853  18.365  0.00  0.00    +0.000 A 
ATOM     28  C   UNL     1       3.157   4.494  18.390  0.00  0.00    +0.000 A 
BRANCH  23  30
ATOM     29  C   UNL     1       3.425   1.668  18.500  0.00  0.00    +0.000 C 
ATOM     30  O   UNL     1       3.199   2.417  19.689  0.00  0.00    +0.000 OA
ENDBRANCH  23  30
ENDBRANCH   1  26
TORSDOF 2
ENDMDL
MODEL 9
REMARK VINA RESULT:      -7.6      2.160      9.562
REMARK  Name = 
REMARK  3 active torsions:
REMARK  status: ('A' for Active; 'I' for Inactive)
REMARK    1  A    between atoms: C_1  and  O_2
REMARK    2  A    between atoms: O_2  and  C_3
REMARK    3  A    between atoms: C_6  and  C_7
REMARK                            x       y       z     vdW  Elec       q    Type
REMARK                         _______ _______ _______ _____ _____    ______ ____
ROOT
ATOM      1  C   UNL     1       1.478   8.533  19.445  0.00  0.00    +0.000 A 
ATOM      2  C   UNL     1       0.859   9.219  20.520  0.00  0.00    +0.000 A 
ATOM      3  C   UNL     1       0.170  10.396  20.244  0.00  0.00    +0.000 A 
ATOM      4  C   UNL     1       0.104  10.866  18.917  0.00  0.00    +0.000 A 
ATOM      5  C   UNL     1       0.825  10.180  17.947  0.00  0.00    +0.000 A 
ATOM      6  N   UNL     1       1.489   9.038  18.189  0.00  0.00    +0.000 NA
ATOM      7  C   UNL     1      -0.725  12.039  18.479  0.00  0.00    +0.000 C 
ATOM      8  C   UNL     1      -1.714  12.631  19.499  0.00  0.00    +0.000 C 
ATOM      9  C   UNL     1      -1.724  11.917  20.795  0.00  0.00    +0.000 A 
ATOM     10  C   UNL     1      -0.702  11.085  21.191  0.00  0.00    +0.000 A 
ATOM     11  N   UNL     1      -0.480  11.437  22.525  0.00  0.00    +0.000 N 
ATOM     12  C   UNL     1      -1.454  12.369  22.843  0.00  0.00    +0.000 A 
ATOM     13  C   UNL     1      -2.489  12.188  21.949  0.00  0.00    +0.000 A 
ATOM     14  C   UNL     1      -3.729  12.920  22.084  0.00  0.00    +0.000 C 
ATOM     15  O   UNL     1      -4.834  12.425  21.913  0.00  0.00    +0.000 OA
ATOM     16  N   UNL     1      -3.525  14.256  22.349  0.00  0.00    +0.000 N 
ATOM     17  C   UNL     1      -2.319  14.719  23.061  0.00  0.00    +0.000 C 
ATOM     18  C   UNL     1      -2.401  15.993  23.869  0.00  0.00    +0.000 C 
ATOM     19  C   UNL     1      -1.770  16.038  22.519  0.00  0.00    +0.000 C 
ATOM     20  C   UNL     1      -1.406  13.595  23.701  0.00  0.00    +0.000 C 
ATOM     21  H   UNL     1       0.355  11.233  23.060  0.00  0.00    +0.000 HD
ATOM     22  H   UNL     1      -3.638  14.729  21.457  0.00  0.00    +0.000 HD
ENDROOT
BRANCH   1  26
ATOM     23  C   UNL     1       3.459   4.692  19.634  0.00  0.00    +0.000 A 
ATOM     24  C   UNL     1       2.499   5.031  20.593  0.00  0.00    +0.000 A 
ATOM     25  C   UNL     1       1.843   6.271  20.546  0.00  0.00    +0.000 A 
ATOM     26  C   UNL     1       2.145   7.215  19.556  0.00  0.00    +0.000 A 
ATOM     27  C   UNL     1       3.105   6.838  18.591  0.00  0.00    +0.000 A 
ATOM     28  C   UNL     1       3.756   5.601  18.628  0.00  0.00    +0.000 A 
BRANCH  23  30
ATOM     29  C   UNL     1       3.529   2.403  19.030  0.00  0.00    +0.000 C 
ATOM     30  O   UNL     1       4.052   3.474  19.808  0.00  0.00    +0.000 OA
ENDBRANCH  23  30
ENDBRANCH   1  26
TORSDOF 2
ENDMDL
