MODEL 1
REMARK VINA RESULT:      -8.9      0.000      0.000
REMARK  Name = 
REMARK  7 active torsions:
REMARK  status: ('A' for Active; 'I' for Inactive)
REMARK    1  A    between atoms: C_2  and  C_3
REMARK    2  A    between atoms: C_3  and  C_4
REMARK    3  A    between atoms: C_3  and  C_14
REMARK    4  A    between atoms: C_4  and  O_6
REMARK    5  A    between atoms: O_6  and  C_7
REMARK    6  A    between atoms: C_7  and  C_8
REMARK    7  A    between atoms: C_23  and  N_24
REMARK                            x       y       z     vdW  Elec       q    Type
REMARK                         _______ _______ _______ _____ _____    ______ ____
ROOT
ATOM      1  C   UNL     1       3.936   6.029  18.488  0.00  0.00    +0.000 A 
ATOM      2  N   UNL     1       4.007   5.260  19.605  0.00  0.00    +0.000 NA
ATOM      3  C   UNL     1       2.872   4.596  19.904  0.00  0.00    +0.000 A 
ATOM      4  C   UNL     1       2.506   4.140  21.168  0.00  0.00    +0.000 A 
ATOM      5  C   UNL     1       1.410   3.292  21.309  0.00  0.00    +0.000 A 
ATOM      6  C   UNL     1       0.858   2.736  20.162  0.00  0.00    +0.000 A 
ATOM      7  C   UNL     1       1.161   3.304  18.926  0.00  0.00    +0.000 A 
ATOM      8  C   UNL     1       1.944   4.453  18.886  0.00  0.00    +0.000 A 
ATOM      9  N   UNL     1       1.830   5.481  17.993  0.00  0.00    +0.000 NA
ATOM     10  C   UNL     1       2.697   6.494  18.169  0.00  0.00    +0.000 A 
ENDROOT
BRANCH  10  11
ATOM     11  N   UNL     1       2.278   7.705  18.753  0.00  0.00    +0.000 N 
ATOM     12  C   UNL     1       1.885   7.843  20.184  0.00  0.00    +0.000 C 
ATOM     13  C   UNL     1       0.746   8.852  20.453  0.00  0.00    +0.000 C 
ATOM     14  O   UNL     1       0.839  10.039  19.664  0.00  0.00    +0.000 OA
ATOM     15  C   UNL     1       0.875   9.682  18.276  0.00  0.00    +0.000 C 
ATOM     16  C   UNL     1       2.180   8.932  17.954  0.00  0.00    +0.000 C 
ENDBRANCH  10  11
BRANCH   1  17
ATOM     17  C   UNL     1       5.160   6.495  17.764  0.00  0.00    +0.000 C 
BRANCH  17  19
ATOM     18  N   UNL     1       7.179   5.055  19.023  0.00  0.00    +0.000 NA
ATOM     19  C   UNL     1       6.263   5.708  18.452  0.00  0.00    +0.000 C 
ENDBRANCH  17  19
BRANCH  17  20
ATOM     20  C   UNL     1       5.196   6.107  16.321  0.00  0.00    +0.000 C 
ATOM     21  O   UNL     1       5.298   6.914  15.412  0.00  0.00    +0.000 OA
BRANCH  20  22
ATOM     22  O   UNL     1       4.954   4.795  16.097  0.00  0.00    +0.000 OA
BRANCH  22  23
ATOM     23  C   UNL     1       6.111   4.003  15.764  0.00  0.00    +0.000 C 
BRANCH  23  24
ATOM     24  C   UNL     1       6.455   4.150  14.304  0.00  0.00    +0.000 A 
ATOM     25  C   UNL     1       7.483   5.000  13.878  0.00  0.00    +0.000 A 
ATOM     26  C   UNL     1       7.822   5.090  12.532  0.00  0.00    +0.000 A 
ATOM     27  C   UNL     1       7.136   4.311  11.587  0.00  0.00    +0.000 A 
ATOM     28  C   UNL     1       6.113   3.460  11.997  0.00  0.00    +0.000 A 
ATOM     29  C   UNL     1       5.774   3.376  13.350  0.00  0.00    +0.000 A 
ENDBRANCH  23  24
ENDBRANCH  22  23
ENDBRANCH  20  22
ENDBRANCH  17  20
ENDBRANCH   1  17
TORSDOF 7
ENDMDL
MODEL 2
REMARK VINA RESULT:      -8.7      1.009      1.459
REMARK  Name = 
REMARK  7 active torsions:
REMARK  status: ('A' for Active; 'I' for Inactive)
REMARK    1  A    between atoms: C_2  and  C_3
REMARK    2  A    between atoms: C_3  and  C_4
REMARK    3  A    between atoms: C_3  and  C_14
REMARK    4  A    between atoms: C_4  and  O_6
REMARK    5  A    between atoms: O_6  and  C_7
REMARK    6  A    between atoms: C_7  and  C_8
REMARK    7  A    between atoms: C_23  and  N_24
REMARK                            x       y       z     vdW  Elec       q    Type
REMARK                         _______ _______ _______ _____ _____    ______ ____
ROOT
ATOM      1  C   UNL     1       4.447   5.316  18.549  0.00  0.00    +0.000 A 
ATOM      2  N   UNL     1       4.286   4.571  19.672  0.00  0.00    +0.000 NA
ATOM      3  C   UNL     1       3.071   4.003  19.802  0.00  0.00    +0.000 A 
ATOM      4  C   UNL     1       2.482   3.607  21.000  0.00  0.00    +0.000 A 
ATOM      5  C   UNL     1       1.313   2.850  20.981  0.00  0.00    +0.000 A 
ATOM      6  C   UNL     1       0.898   2.311  19.770  0.00  0.00    +0.000 A 
ATOM      7  C   UNL     1       1.430   2.825  18.588  0.00  0.00    +0.000 A 
ATOM      8  C   UNL     1       2.299   3.908  18.655  0.00  0.00    +0.000 A 
ATOM      9  N   UNL     1       2.404   4.921  17.743  0.00  0.00    +0.000 NA
ATOM     10  C   UNL     1       3.312   5.868  18.038  0.00  0.00    +0.000 A 
ENDROOT
BRANCH  10  11
ATOM     11  N   UNL     1       2.907   7.121  18.537  0.00  0.00    +0.000 N 
ATOM     12  C   UNL     1       2.366   7.331  19.909  0.00  0.00    +0.000 C 
ATOM     13  C   UNL     1       1.270   8.415  20.019  0.00  0.00    +0.000 C 
ATOM     14  O   UNL     1       1.525   9.566  19.214  0.00  0.00    +0.000 OA
ATOM     15  C   UNL     1       1.694   9.160  17.849  0.00  0.00    +0.000 C 
ATOM     16  C   UNL     1       2.978   8.324  17.699  0.00  0.00    +0.000 C 
ENDBRANCH  10  11
BRANCH   1  17
ATOM     17  C   UNL     1       5.801   5.669  18.015  0.00  0.00    +0.000 C 
BRANCH  17  19
ATOM     18  N   UNL     1       7.405   5.457  20.277  0.00  0.00    +0.000 NA
ATOM     19  C   UNL     1       6.677   5.554  19.251  0.00  0.00    +0.000 C 
ENDBRANCH  17  19
BRANCH  17  20
ATOM     20  C   UNL     1       6.335   4.690  17.020  0.00  0.00    +0.000 C 
ATOM     21  O   UNL     1       7.519   4.412  16.921  0.00  0.00    +0.000 OA
BRANCH  20  22
ATOM     22  O   UNL     1       5.413   4.248  16.134  0.00  0.00    +0.000 OA
BRANCH  22  23
ATOM     23  C   UNL     1       5.230   5.078  14.969  0.00  0.00    +0.000 C 
BRANCH  23  24
ATOM     24  C   UNL     1       5.819   4.421  13.749  0.00  0.00    +0.000 A 
ATOM     25  C   UNL     1       5.128   3.420  13.054  0.00  0.00    +0.000 A 
ATOM     26  C   UNL     1       5.662   2.855  11.899  0.00  0.00    +0.000 A 
ATOM     27  C   UNL     1       6.903   3.300  11.416  0.00  0.00    +0.000 A 
ATOM     28  C   UNL     1       7.599   4.296  12.096  0.00  0.00    +0.000 A 
ATOM     29  C   UNL     1       7.059   4.857  13.256  0.00  0.00    +0.000 A 
ENDBRANCH  23  24
ENDBRANCH  22  23
ENDBRANCH  20  22
ENDBRANCH  17  20
ENDBRANCH   1  17
TORSDOF 7
ENDMDL
MODEL 3
REMARK VINA RESULT:      -8.7      1.365      1.737
REMARK  Name = 
REMARK  7 active torsions:
REMARK  status: ('A' for Active; 'I' for Inactive)
REMARK    1  A    between atoms: C_2  and  C_3
REMARK    2  A    between atoms: C_3  and  C_4
REMARK    3  A    between atoms: C_3  and  C_14
REMARK    4  A    between atoms: C_4  and  O_6
REMARK    5  A    between atoms: O_6  and  C_7
REMARK    6  A    between atoms: C_7  and  C_8
REMARK    7  A    between atoms: C_23  and  N_24
REMARK                            x       y       z     vdW  Elec       q    Type
REMARK                         _______ _______ _______ _____ _____    ______ ____
ROOT
ATOM      1  C   UNL     1       4.912   5.102  18.331  0.00  0.00    +0.000 A 
ATOM      2  N   UNL     1       4.734   4.281  19.398  0.00  0.00    +0.000 NA
ATOM      3  C   UNL     1       3.544   3.647  19.429  0.00  0.00    +0.000 A 
ATOM      4  C   UNL     1       2.917   3.149  20.567  0.00  0.00    +0.000 A 
ATOM      5  C   UNL     1       1.792   2.338  20.441  0.00  0.00    +0.000 A 
ATOM      6  C   UNL     1       1.469   1.854  19.180  0.00  0.00    +0.000 A 
ATOM      7  C   UNL     1       2.032   2.466  18.061  0.00  0.00    +0.000 A 
ATOM      8  C   UNL     1       2.838   3.585  18.238  0.00  0.00    +0.000 A 
ATOM      9  N   UNL     1       2.936   4.656  17.394  0.00  0.00    +0.000 NA
ATOM     10  C   UNL     1       3.777   5.627  17.793  0.00  0.00    +0.000 A 
ENDROOT
BRANCH  10  11
ATOM     11  N   UNL     1       3.281   6.826  18.343  0.00  0.00    +0.000 N 
ATOM     12  C   UNL     1       2.740   6.941  19.726  0.00  0.00    +0.000 C 
ATOM     13  C   UNL     1       1.564   7.932  19.885  0.00  0.00    +0.000 C 
ATOM     14  O   UNL     1       1.721   9.129  19.122  0.00  0.00    +0.000 OA
ATOM     15  C   UNL     1       1.907   8.788  17.741  0.00  0.00    +0.000 C 
ATOM     16  C   UNL     1       3.249   8.060  17.551  0.00  0.00    +0.000 C 
ENDBRANCH  10  11
BRANCH   1  17
ATOM     17  C   UNL     1       6.270   5.554  17.893  0.00  0.00    +0.000 C 
BRANCH  17  19
ATOM     18  N   UNL     1       7.712   5.491  20.270  0.00  0.00    +0.000 NA
ATOM     19  C   UNL     1       7.058   5.520  19.191  0.00  0.00    +0.000 C 
ENDBRANCH  17  19
BRANCH  17  20
ATOM     20  C   UNL     1       6.951   4.609  16.956  0.00  0.00    +0.000 C 
ATOM     21  O   UNL     1       8.088   4.201  17.123  0.00  0.00    +0.000 OA
BRANCH  20  22
ATOM     22  O   UNL     1       6.254   4.360  15.823  0.00  0.00    +0.000 OA
BRANCH  22  23
ATOM     23  C   UNL     1       6.858   4.849  14.608  0.00  0.00    +0.000 C 
BRANCH  23  24
ATOM     24  C   UNL     1       6.347   4.086  13.415  0.00  0.00    +0.000 A 
ATOM     25  C   UNL     1       7.222   3.445  12.528  0.00  0.00    +0.000 A 
ATOM     26  C   UNL     1       6.734   2.702  11.457  0.00  0.00    +0.000 A 
ATOM     27  C   UNL     1       5.349   2.582  11.266  0.00  0.00    +0.000 A 
ATOM     28  C   UNL     1       4.468   3.212  12.141  0.00  0.00    +0.000 A 
ATOM     29  C   UNL     1       4.963   3.959  13.213  0.00  0.00    +0.000 A 
ENDBRANCH  23  24
ENDBRANCH  22  23
ENDBRANCH  20  22
ENDBRANCH  17  20
ENDBRANCH   1  17
TORSDOF 7
ENDMDL
MODEL 4
REMARK VINA RESULT:      -8.4      0.935      1.349
REMARK  Name = 
REMARK  7 active torsions:
REMARK  status: ('A' for Active; 'I' for Inactive)
REMARK    1  A    between atoms: C_2  and  C_3
REMARK    2  A    between atoms: C_3  and  C_4
REMARK    3  A    between atoms: C_3  and  C_14
REMARK    4  A    between atoms: C_4  and  O_6
REMARK    5  A    between atoms: O_6  and  C_7
REMARK    6  A    between atoms: C_7  and  C_8
REMARK    7  A    between atoms: C_23  and  N_24
REMARK                            x       y       z     vdW  Elec       q    Type
REMARK                         _______ _______ _______ _____ _____    ______ ____
ROOT
ATOM      1  C   UNL     1       4.406   5.704  18.131  0.00  0.00    +0.000 A 
ATOM      2  N   UNL     1       4.492   4.866  19.195  0.00  0.00    +0.000 NA
ATOM      3  C   UNL     1       3.365   4.174  19.459  0.00  0.00    +0.000 A 
ATOM      4  C   UNL     1       3.012   3.635  20.693  0.00  0.00    +0.000 A 
ATOM      5  C   UNL     1       1.924   2.770  20.787  0.00  0.00    +0.000 A 
ATOM      6  C   UNL     1       1.369   2.283  19.611  0.00  0.00    +0.000 A 
ATOM      7  C   UNL     1       1.659   2.931  18.412  0.00  0.00    +0.000 A 
ATOM      8  C   UNL     1       2.431   4.087  18.440  0.00  0.00    +0.000 A 
ATOM      9  N   UNL     1       2.302   5.169  17.614  0.00  0.00    +0.000 NA
ATOM     10  C   UNL     1       3.161   6.177  17.849  0.00  0.00    +0.000 A 
ENDROOT
BRANCH  10  11
ATOM     11  N   UNL     1       2.735   7.345  18.511  0.00  0.00    +0.000 N 
ATOM     12  C   UNL     1       2.211   7.362  19.906  0.00  0.00    +0.000 C 
ATOM     13  C   UNL     1       1.092   8.394  20.170  0.00  0.00    +0.000 C 
ATOM     14  O   UNL     1       1.307   9.646  19.517  0.00  0.00    +0.000 OA
ATOM     15  C   UNL     1       1.464   9.424  18.109  0.00  0.00    +0.000 C 
ATOM     16  C   UNL     1       2.764   8.647  17.836  0.00  0.00    +0.000 C 
ENDBRANCH  10  11
BRANCH   1  17
ATOM     17  C   UNL     1       5.622   6.226  17.429  0.00  0.00    +0.000 C 
BRANCH  17  19
ATOM     18  N   UNL     1       7.612   4.508  18.334  0.00  0.00    +0.000 NA
ATOM     19  C   UNL     1       6.709   5.288  17.923  0.00  0.00    +0.000 C 
ENDBRANCH  17  19
BRANCH  17  20
ATOM     20  C   UNL     1       5.574   6.080  15.943  0.00  0.00    +0.000 C 
ATOM     21  O   UNL     1       5.050   6.898  15.205  0.00  0.00    +0.000 OA
BRANCH  20  22
ATOM     22  O   UNL     1       6.030   4.889  15.492  0.00  0.00    +0.000 OA
BRANCH  22  23
ATOM     23  C   UNL     1       6.837   4.949  14.299  0.00  0.00    +0.000 C 
BRANCH  23  24
ATOM     24  C   UNL     1       6.292   4.028  13.239  0.00  0.00    +0.000 A 
ATOM     25  C   UNL     1       4.923   3.982  12.947  0.00  0.00    +0.000 A 
ATOM     26  C   UNL     1       4.438   3.162  11.932  0.00  0.00    +0.000 A 
ATOM     27  C   UNL     1       5.330   2.380  11.182  0.00  0.00    +0.000 A 
ATOM     28  C   UNL     1       6.694   2.419  11.461  0.00  0.00    +0.000 A 
ATOM     29  C   UNL     1       7.175   3.241  12.483  0.00  0.00    +0.000 A 
ENDBRANCH  23  24
ENDBRANCH  22  23
ENDBRANCH  20  22
ENDBRANCH  17  20
ENDBRANCH   1  17
TORSDOF 7
ENDMDL
MODEL 5
REMARK VINA RESULT:      -8.0      2.015      7.291
REMARK  Name = 
REMARK  7 active torsions:
REMARK  status: ('A' for Active; 'I' for Inactive)
REMARK    1  A    between atoms: C_2  and  C_3
REMARK    2  A    between atoms: C_3  and  C_4
REMARK    3  A    between atoms: C_3  and  C_14
REMARK    4  A    between atoms: C_4  and  O_6
REMARK    5  A    between atoms: O_6  and  C_7
REMARK    6  A    between atoms: C_7  and  C_8
REMARK    7  A    between atoms: C_23  and  N_24
REMARK                            x       y       z     vdW  Elec       q    Type
REMARK                         _______ _______ _______ _____ _____    ______ ____
ROOT
ATOM      1  C   UNL     1       3.445   6.068  18.525  0.00  0.00    +0.000 A 
ATOM      2  N   UNL     1       2.258   5.480  18.229  0.00  0.00    +0.000 NA
ATOM      3  C   UNL     1       1.985   4.371  18.945  0.00  0.00    +0.000 A 
ATOM      4  C   UNL     1       1.129   3.343  18.559  0.00  0.00    +0.000 A 
ATOM      5  C   UNL     1       0.774   2.354  19.474  0.00  0.00    +0.000 A 
ATOM      6  C   UNL     1       1.094   2.552  20.811  0.00  0.00    +0.000 A 
ATOM      7  C   UNL     1       2.048   3.513  21.139  0.00  0.00    +0.000 A 
ATOM      8  C   UNL     1       2.703   4.190  20.116  0.00  0.00    +0.000 A 
ATOM      9  N   UNL     1       4.001   4.618  20.128  0.00  0.00    +0.000 NA
ATOM     10  C   UNL     1       4.412   5.239  19.008  0.00  0.00    +0.000 A 
ENDROOT
BRANCH  10  11
ATOM     11  N   UNL     1       5.234   4.574  18.078  0.00  0.00    +0.000 N 
ATOM     12  C   UNL     1       6.712   4.744  18.008  0.00  0.00    +0.000 C 
ATOM     13  C   UNL     1       7.310   4.682  16.584  0.00  0.00    +0.000 C 
ATOM     14  O   UNL     1       6.708   3.685  15.757  0.00  0.00    +0.000 OA
ATOM     15  C   UNL     1       5.292   3.911  15.699  0.00  0.00    +0.000 C 
ATOM     16  C   UNL     1       4.659   3.665  17.080  0.00  0.00    +0.000 C 
ENDBRANCH  10  11
BRANCH   1  17
ATOM     17  C   UNL     1       3.739   7.492  18.166  0.00  0.00    +0.000 C 
BRANCH  17  19
ATOM     18  N   UNL     1       4.835   7.250  15.622  0.00  0.00    +0.000 NA
ATOM     19  C   UNL     1       4.338   7.359  16.776  0.00  0.00    +0.000 C 
ENDBRANCH  17  19
BRANCH  17  20
ATOM     20  C   UNL     1       2.521   8.346  18.027  0.00  0.00    +0.000 C 
ATOM     21  O   UNL     1       2.213   8.911  16.991  0.00  0.00    +0.000 OA
BRANCH  20  22
ATOM     22  O   UNL     1       1.866   8.565  19.191  0.00  0.00    +0.000 OA
BRANCH  22  23
ATOM     23  C   UNL     1       1.000   9.717  19.203  0.00  0.00    +0.000 C 
BRANCH  23  24
ATOM     24  C   UNL     1       0.374   9.899  20.561  0.00  0.00    +0.000 A 
ATOM     25  C   UNL     1       0.625   9.001  21.606  0.00  0.00    +0.000 A 
ATOM     26  C   UNL     1       0.080   9.207  22.870  0.00  0.00    +0.000 A 
ATOM     27  C   UNL     1      -0.722  10.335  23.107  0.00  0.00    +0.000 A 
ATOM     28  C   UNL     1      -0.977  11.237  22.077  0.00  0.00    +0.000 A 
ATOM     29  C   UNL     1      -0.430  11.023  20.810  0.00  0.00    +0.000 A 
ENDBRANCH  23  24
ENDBRANCH  22  23
ENDBRANCH  20  22
ENDBRANCH  17  20
ENDBRANCH   1  17
TORSDOF 7
ENDMDL
MODEL 6
REMARK VINA RESULT:      -8.0      0.454      1.004
REMARK  Name = 
REMARK  7 active torsions:
REMARK  status: ('A' for Active; 'I' for Inactive)
REMARK    1  A    between atoms: C_2  and  C_3
REMARK    2  A    between atoms: C_3  and  C_4
REMARK    3  A    between atoms: C_3  and  C_14
REMARK    4  A    between atoms: C_4  and  O_6
REMARK    5  A    between atoms: O_6  and  C_7
REMARK    6  A    between atoms: C_7  and  C_8
REMARK    7  A    between atoms: C_23  and  N_24
REMARK                            x       y       z     vdW  Elec       q    Type
REMARK                         _______ _______ _______ _____ _____    ______ ____
ROOT
ATOM      1  C   UNL     1       3.856   5.872  18.617  0.00  0.00    +0.000 A 
ATOM      2  N   UNL     1       3.853   5.157  19.771  0.00  0.00    +0.000 NA
ATOM      3  C   UNL     1       2.781   4.357  19.936  0.00  0.00    +0.000 A 
ATOM      4  C   UNL     1       2.287   3.898  21.154  0.00  0.00    +0.000 A 
ATOM      5  C   UNL     1       1.300   2.916  21.177  0.00  0.00    +0.000 A 
ATOM      6  C   UNL     1       1.007   2.252  19.993  0.00  0.00    +0.000 A 
ATOM      7  C   UNL     1       1.420   2.814  18.787  0.00  0.00    +0.000 A 
ATOM      8  C   UNL     1       2.046   4.056  18.801  0.00  0.00    +0.000 A 
ATOM      9  N   UNL     1       1.939   5.028  17.846  0.00  0.00    +0.000 NA
ATOM     10  C   UNL     1       2.631   6.154  18.093  0.00  0.00    +0.000 A 
ENDROOT
BRANCH  10  11
ATOM     11  N   UNL     1       1.976   7.317  18.544  0.00  0.00    +0.000 N 
ATOM     12  C   UNL     1       1.800   8.543  17.715  0.00  0.00    +0.000 C 
ATOM     13  C   UNL     1       1.865   9.874  18.497  0.00  0.00    +0.000 C 
ATOM     14  O   UNL     1       1.212   9.821  19.766  0.00  0.00    +0.000 OA
ATOM     15  C   UNL     1       1.774   8.754  20.542  0.00  0.00    +0.000 C 
ATOM     16  C   UNL     1       1.433   7.396  19.904  0.00  0.00    +0.000 C 
ENDBRANCH  10  11
BRANCH   1  17
ATOM     17  C   UNL     1       5.107   6.474  18.057  0.00  0.00    +0.000 C 
BRANCH  17  19
ATOM     18  N   UNL     1       7.095   5.073  19.405  0.00  0.00    +0.000 NA
ATOM     19  C   UNL     1       6.194   5.709  18.793  0.00  0.00    +0.000 C 
ENDBRANCH  17  19
BRANCH  17  20
ATOM     20  C   UNL     1       5.310   6.208  16.600  0.00  0.00    +0.000 C 
ATOM     21  O   UNL     1       5.540   7.084  15.784  0.00  0.00    +0.000 OA
BRANCH  20  22
ATOM     22  O   UNL     1       5.067   4.927  16.236  0.00  0.00    +0.000 OA
BRANCH  22  23
ATOM     23  C   UNL     1       6.233   4.151  15.897  0.00  0.00    +0.000 C 
BRANCH  23  24
ATOM     24  C   UNL     1       6.517   4.234  14.420  0.00  0.00    +0.000 A 
ATOM     25  C   UNL     1       7.514   5.077  13.914  0.00  0.00    +0.000 A 
ATOM     26  C   UNL     1       7.799   5.107  12.552  0.00  0.00    +0.000 A 
ATOM     27  C   UNL     1       7.088   4.276  11.673  0.00  0.00    +0.000 A 
ATOM     28  C   UNL     1       6.095   3.432  12.162  0.00  0.00    +0.000 A 
ATOM     29  C   UNL     1       5.811   3.407  13.530  0.00  0.00    +0.000 A 
ENDBRANCH  23  24
ENDBRANCH  22  23
ENDBRANCH  20  22
ENDBRANCH  17  20
ENDBRANCH   1  17
TORSDOF 7
ENDMDL
MODEL 7
REMARK VINA RESULT:      -7.6      4.766      7.643
REMARK  Name = 
REMARK  7 active torsions:
REMARK  status: ('A' for Active; 'I' for Inactive)
REMARK    1  A    between atoms: C_2  and  C_3
REMARK    2  A    between atoms: C_3  and  C_4
REMARK    3  A    between atoms: C_3  and  C_14
REMARK    4  A    between atoms: C_4  and  O_6
REMARK    5  A    between atoms: O_6  and  C_7
REMARK    6  A    between atoms: C_7  and  C_8
REMARK    7  A    between atoms: C_23  and  N_24
REMARK                            x       y       z     vdW  Elec       q    Type
REMARK                         _______ _______ _______ _____ _____    ______ ____
ROOT
ATOM      1  C   UNL     1      -0.222  10.599  20.043  0.00  0.00    +0.000 A 
ATOM      2  N   UNL     1      -1.546  10.898  20.017  0.00  0.00    +0.000 NA
ATOM      3  C   UNL     1      -2.088  10.949  18.784  0.00  0.00    +0.000 A 
ATOM      4  C   UNL     1      -3.232  11.658  18.428  0.00  0.00    +0.000 A 
ATOM      5  C   UNL     1      -3.803  11.468  17.172  0.00  0.00    +0.000 A 
ATOM      6  C   UNL     1      -3.356  10.402  16.401  0.00  0.00    +0.000 A 
ATOM      7  C   UNL     1      -2.142   9.800  16.727  0.00  0.00    +0.000 A 
ATOM      8  C   UNL     1      -1.383  10.331  17.764  0.00  0.00    +0.000 A 
ATOM      9  N   UNL     1      -0.018  10.372  17.832  0.00  0.00    +0.000 NA
ATOM     10  C   UNL     1       0.486  10.954  18.935  0.00  0.00    +0.000 A 
ENDROOT
BRANCH  10  11
ATOM     11  N   UNL     1       1.014  12.258  18.882  0.00  0.00    +0.000 N 
ATOM     12  C   UNL     1       2.297  12.606  18.208  0.00  0.00    +0.000 C 
ATOM     13  C   UNL     1       3.110  13.728  18.892  0.00  0.00    +0.000 C 
ATOM     14  O   UNL     1       2.302  14.794  19.390  0.00  0.00    +0.000 OA
ATOM     15  C   UNL     1       1.322  14.263  20.293  0.00  0.00    +0.000 C 
ATOM     16  C   UNL     1       0.321  13.378  19.528  0.00  0.00    +0.000 C 
ENDBRANCH  10  11
BRANCH   1  17
ATOM     17  C   UNL     1       0.455  10.089  21.277  0.00  0.00    +0.000 C 
BRANCH  17  19
ATOM     18  N   UNL     1      -1.057  11.245  23.304  0.00  0.00    +0.000 NA
ATOM     19  C   UNL     1      -0.371  10.721  22.385  0.00  0.00    +0.000 C 
ENDBRANCH  17  19
BRANCH  17  20
ATOM     20  C   UNL     1       0.352   8.609  21.459  0.00  0.00    +0.000 C 
ATOM     21  O   UNL     1      -0.677   8.044  21.790  0.00  0.00    +0.000 OA
BRANCH  20  22
ATOM     22  O   UNL     1       1.536   7.960  21.372  0.00  0.00    +0.000 OA
BRANCH  22  23
ATOM     23  C   UNL     1       2.000   7.701  20.032  0.00  0.00    +0.000 C 
BRANCH  23  24
ATOM     24  C   UNL     1       1.948   6.227  19.726  0.00  0.00    +0.000 A 
ATOM     25  C   UNL     1       1.544   5.295  20.690  0.00  0.00    +0.000 A 
ATOM     26  C   UNL     1       1.454   3.941  20.380  0.00  0.00    +0.000 A 
ATOM     27  C   UNL     1       1.759   3.502  19.082  0.00  0.00    +0.000 A 
ATOM     28  C   UNL     1       2.160   4.418  18.114  0.00  0.00    +0.000 A 
ATOM     29  C   UNL     1       2.252   5.776  18.431  0.00  0.00    +0.000 A 
ENDBRANCH  23  24
ENDBRANCH  22  23
ENDBRANCH  20  22
ENDBRANCH  17  20
ENDBRANCH   1  17
TORSDOF 7
ENDMDL
MODEL 8
REMARK VINA RESULT:      -7.6      1.342      1.829
REMARK  Name = 
REMARK  7 active torsions:
REMARK  status: ('A' for Active; 'I' for Inactive)
REMARK    1  A    between atoms: C_2  and  C_3
REMARK    2  A    between atoms: C_3  and  C_4
REMARK    3  A    between atoms: C_3  and  C_14
REMARK    4  A    between atoms: C_4  and  O_6
REMARK    5  A    between atoms: O_6  and  C_7
REMARK    6  A    between atoms: C_7  and  C_8
REMARK    7  A    between atoms: C_23  and  N_24
REMARK                            x       y       z     vdW  Elec       q    Type
REMARK                         _______ _______ _______ _____ _____    ______ ____
ROOT
ATOM      1  C   UNL     1       4.107   5.148  17.687  0.00  0.00    +0.000 A 
ATOM      2  N   UNL     1       4.403   4.424  18.796  0.00  0.00    +0.000 NA
ATOM      3  C   UNL     1       3.339   3.861  19.403  0.00  0.00    +0.000 A 
ATOM      4  C   UNL     1       3.269   3.489  20.742  0.00  0.00    +0.000 A 
ATOM      5  C   UNL     1       2.190   2.733  21.197  0.00  0.00    +0.000 A 
ATOM      6  C   UNL     1       1.338   2.172  20.255  0.00  0.00    +0.000 A 
ATOM      7  C   UNL     1       1.361   2.663  18.951  0.00  0.00    +0.000 A 
ATOM      8  C   UNL     1       2.180   3.746  18.652  0.00  0.00    +0.000 A 
ATOM      9  N   UNL     1       1.913   4.741  17.753  0.00  0.00    +0.000 NA
ATOM     10  C   UNL     1       2.859   5.692  17.652  0.00  0.00    +0.000 A 
ENDROOT
BRANCH  10  11
ATOM     11  N   UNL     1       2.675   6.955  18.247  0.00  0.00    +0.000 N 
ATOM     12  C   UNL     1       2.448   7.159  19.706  0.00  0.00    +0.000 C 
ATOM     13  C   UNL     1       1.495   8.323  20.061  0.00  0.00    +0.000 C 
ATOM     14  O   UNL     1       1.676   9.477  19.241  0.00  0.00    +0.000 OA
ATOM     15  C   UNL     1       1.525   9.108  17.864  0.00  0.00    +0.000 C 
ATOM     16  C   UNL     1       2.673   8.177  17.435  0.00  0.00    +0.000 C 
ENDBRANCH  10  11
BRANCH   1  17
ATOM     17  C   UNL     1       5.141   5.489  16.659  0.00  0.00    +0.000 C 
BRANCH  17  19
ATOM     18  N   UNL     1       6.447   7.649  17.825  0.00  0.00    +0.000 NA
ATOM     19  C   UNL     1       5.855   6.669  17.296  0.00  0.00    +0.000 C 
ENDBRANCH  17  19
BRANCH  17  20
ATOM     20  C   UNL     1       6.171   4.425  16.459  0.00  0.00    +0.000 C 
ATOM     21  O   UNL     1       7.159   4.306  17.164  0.00  0.00    +0.000 OA
BRANCH  20  22
ATOM     22  O   UNL     1       5.994   3.692  15.335  0.00  0.00    +0.000 OA
BRANCH  22  23
ATOM     23  C   UNL     1       6.417   4.328  14.112  0.00  0.00    +0.000 C 
BRANCH  23  24
ATOM     24  C   UNL     1       5.872   3.596  12.914  0.00  0.00    +0.000 A 
ATOM     25  C   UNL     1       6.580   2.548  12.314  0.00  0.00    +0.000 A 
ATOM     26  C   UNL     1       6.043   1.847  11.238  0.00  0.00    +0.000 A 
ATOM     27  C   UNL     1       4.770   2.185  10.753  0.00  0.00    +0.000 A 
ATOM     28  C   UNL     1       4.054   3.224  11.342  0.00  0.00    +0.000 A 
ATOM     29  C   UNL     1       4.599   3.926  12.420  0.00  0.00    +0.000 A 
ENDBRANCH  23  24
ENDBRANCH  22  23
ENDBRANCH  20  22
ENDBRANCH  17  20
ENDBRANCH   1  17
TORSDOF 7
ENDMDL
MODEL 9
REMARK VINA RESULT:      -7.6      2.427      7.352
REMARK  Name = 
REMARK  7 active torsions:
REMARK  status: ('A' for Active; 'I' for Inactive)
REMARK    1  A    between atoms: C_2  and  C_3
REMARK    2  A    between atoms: C_3  and  C_4
REMARK    3  A    between atoms: C_3  and  C_14
REMARK    4  A    between atoms: C_4  and  O_6
REMARK    5  A    between atoms: O_6  and  C_7
REMARK    6  A    between atoms: C_7  and  C_8
REMARK    7  A    between atoms: C_23  and  N_24
REMARK                            x       y       z     vdW  Elec       q    Type
REMARK                         _______ _______ _______ _____ _____    ______ ____
ROOT
ATOM      1  C   UNL     1       3.022   6.040  18.316  0.00  0.00    +0.000 A 
ATOM      2  N   UNL     1       4.280   6.330  18.737  0.00  0.00    +0.000 NA
ATOM      3  C   UNL     1       5.248   5.575  18.181  0.00  0.00    +0.000 A 
ATOM      4  C   UNL     1       6.501   5.323  18.733  0.00  0.00    +0.000 A 
ATOM      5  C   UNL     1       7.483   4.697  17.970  0.00  0.00    +0.000 A 
ATOM      6  C   UNL     1       7.263   4.556  16.605  0.00  0.00    +0.000 A 
ATOM      7  C   UNL     1       5.967   4.699  16.115  0.00  0.00    +0.000 A 
ATOM      8  C   UNL     1       4.925   4.904  17.013  0.00  0.00    +0.000 A 
ATOM      9  N   UNL     1       3.645   4.441  16.889  0.00  0.00    +0.000 NA
ATOM     10  C   UNL     1       2.818   4.759  17.901  0.00  0.00    +0.000 A 
ENDROOT
BRANCH  10  11
ATOM     11  N   UNL     1       2.469   3.801  18.872  0.00  0.00    +0.000 N 
ATOM     12  C   UNL     1       1.153   3.771  19.570  0.00  0.00    +0.000 C 
ATOM     13  C   UNL     1       1.206   3.306  21.044  0.00  0.00    +0.000 C 
ATOM     14  O   UNL     1       2.111   2.224  21.266  0.00  0.00    +0.000 OA
ATOM     15  C   UNL     1       3.418   2.598  20.810  0.00  0.00    +0.000 C 
ATOM     16  C   UNL     1       3.419   2.760  19.280  0.00  0.00    +0.000 C 
ENDBRANCH  10  11
BRANCH   1  17
ATOM     17  C   UNL     1       1.887   7.004  18.475  0.00  0.00    +0.000 C 
BRANCH  17  19
ATOM     18  N   UNL     1       1.871   7.454  21.219  0.00  0.00    +0.000 NA
ATOM     19  C   UNL     1       1.879   7.250  19.974  0.00  0.00    +0.000 C 
ENDBRANCH  17  19
BRANCH  17  20
ATOM     20  C   UNL     1       2.121   8.329  17.826  0.00  0.00    +0.000 C 
ATOM     21  O   UNL     1       3.228   8.825  17.693  0.00  0.00    +0.000 OA
BRANCH  20  22
ATOM     22  O   UNL     1       0.987   9.007  17.533  0.00  0.00    +0.000 OA
BRANCH  22  23
ATOM     23  C   UNL     1       0.718  10.149  18.369  0.00  0.00    +0.000 C 
BRANCH  23  24
ATOM     24  C   UNL     1      -0.742  10.516  18.315  0.00  0.00    +0.000 A 
ATOM     25  C   UNL     1      -1.279  11.503  19.152  0.00  0.00    +0.000 A 
ATOM     26  C   UNL     1      -2.619  11.867  19.058  0.00  0.00    +0.000 A 
ATOM     27  C   UNL     1      -3.443  11.248  18.105  0.00  0.00    +0.000 A 
ATOM     28  C   UNL     1      -2.922  10.267  17.265  0.00  0.00    +0.000 A 
ATOM     29  C   UNL     1      -1.577   9.903  17.366  0.00  0.00    +0.000 A 
ENDBRANCH  23  24
ENDBRANCH  22  23
ENDBRANCH  20  22
ENDBRANCH  17  20
ENDBRANCH   1  17
TORSDOF 7
ENDMDL
