MODEL 1
REMARK VINA RESULT:      -8.2      0.000      0.000
REMARK  Name = 
REMARK  4 active torsions:
REMARK  status: ('A' for Active; 'I' for Inactive)
REMARK    1  A    between atoms: C_2  and  C_4
REMARK    2  A    between atoms: C_4  and  C_5
REMARK    3  A    between atoms: C_15  and  C_16
REMARK    4  A    between atoms: C_16  and  C_17
REMARK                            x       y       z     vdW  Elec       q    Type
REMARK                         _______ _______ _______ _____ _____    ______ ____
ROOT
ATOM      1  C   UNL     1       5.917   5.406  17.645  0.00  0.00    +0.000 C 
ATOM      2  C   UNL     1       5.711   6.359  16.452  0.00  0.00    +0.000 C 
ATOM      3  C   UNL     1       6.020   5.706  15.108  0.00  0.00    +0.000 C 
ATOM      4  C   UNL     1       5.225   4.417  14.946  0.00  0.00    +0.000 C 
ATOM      5  C   UNL     1       5.431   3.462  16.122  0.00  0.00    +0.000 C 
ATOM      6  N   UNL     1       5.192   4.145  17.396  0.00  0.00    +0.000 N 
ATOM      7  C   UNL     1       4.178   3.760  18.258  0.00  0.00    +0.000 A 
ATOM      8  C   UNL     1       3.757   2.445  18.342  0.00  0.00    +0.000 A 
ATOM      9  C   UNL     1       2.757   2.147  19.240  0.00  0.00    +0.000 A 
ATOM     10  N   UNL     1       2.164   3.060  20.018  0.00  0.00    +0.000 NA
ATOM     11  C   UNL     1       2.625   4.317  19.897  0.00  0.00    +0.000 A 
ATOM     12  N   UNL     1       3.630   4.687  19.069  0.00  0.00    +0.000 NA
ENDROOT
BRANCH   1  13
ATOM     13  C   UNL     1       7.408   5.143  17.902  0.00  0.00    +0.000 C 
BRANCH  13  15
ATOM     14  N   UNL     1       8.249   5.462  20.203  0.00  0.00    +0.000 N 
ATOM     15  C   UNL     1       8.065   6.000  18.966  0.00  0.00    +0.000 C 
ATOM     16  O   UNL     1       8.333   7.184  18.770  0.00  0.00    +0.000 OA
ATOM     17  H   UNL     1       8.756   6.053  20.849  0.00  0.00    +0.000 HD
ATOM     18  H   UNL     1       8.417   4.467  20.306  0.00  0.00    +0.000 HD
ENDBRANCH  13  15
ENDBRANCH   1  13
BRANCH  11  19
ATOM     19  C   UNL     1       1.931   5.393  20.697  0.00  0.00    +0.000 C 
BRANCH  19  20
ATOM     20  C   UNL     1       1.843   6.734  20.007  0.00  0.00    +0.000 A 
ATOM     21  C   UNL     1       2.253   6.875  18.673  0.00  0.00    +0.000 A 
ATOM     22  C   UNL     1       2.147   8.108  18.028  0.00  0.00    +0.000 A 
ATOM     23  C   UNL     1       1.640   9.213  18.709  0.00  0.00    +0.000 A 
ATOM     24  C   UNL     1       1.242   9.088  20.038  0.00  0.00    +0.000 A 
ATOM     25  C   UNL     1       1.346   7.856  20.687  0.00  0.00    +0.000 A 
ENDBRANCH  19  20
ENDBRANCH  11  19
TORSDOF 4
ENDMDL
MODEL 2
REMARK VINA RESULT:      -8.1      3.156      5.376
REMARK  Name = 
REMARK  4 active torsions:
REMARK  status: ('A' for Active; 'I' for Inactive)
REMARK    1  A    between atoms: C_2  and  C_4
REMARK    2  A    between atoms: C_4  and  C_5
REMARK    3  A    between atoms: C_15  and  C_16
REMARK    4  A    between atoms: C_16  and  C_17
REMARK                            x       y       z     vdW  Elec       q    Type
REMARK                         _______ _______ _______ _____ _____    ______ ____
ROOT
ATOM      1  C   UNL     1       2.758   6.088  18.620  0.00  0.00    +0.000 C 
ATOM      2  C   UNL     1       1.919   5.014  17.901  0.00  0.00    +0.000 C 
ATOM      3  C   UNL     1       1.697   3.766  18.750  0.00  0.00    +0.000 C 
ATOM      4  C   UNL     1       1.102   4.138  20.102  0.00  0.00    +0.000 C 
ATOM      5  C   UNL     1       1.934   5.197  20.825  0.00  0.00    +0.000 C 
ATOM      6  N   UNL     1       2.184   6.348  19.954  0.00  0.00    +0.000 N 
ATOM      7  C   UNL     1       1.715   7.616  20.258  0.00  0.00    +0.000 A 
ATOM      8  C   UNL     1       1.564   8.039  21.567  0.00  0.00    +0.000 A 
ATOM      9  C   UNL     1       1.111   9.322  21.779  0.00  0.00    +0.000 A 
ATOM     10  N   UNL     1       0.797  10.169  20.791  0.00  0.00    +0.000 NA
ATOM     11  C   UNL     1       0.976   9.702  19.544  0.00  0.00    +0.000 A 
ATOM     12  N   UNL     1       1.453   8.470  19.249  0.00  0.00    +0.000 NA
ENDROOT
BRANCH   1  13
ATOM     13  C   UNL     1       4.233   5.669  18.727  0.00  0.00    +0.000 C 
BRANCH  13  15
ATOM     14  N   UNL     1       5.497   3.974  17.451  0.00  0.00    +0.000 N 
ATOM     15  C   UNL     1       4.887   5.191  17.446  0.00  0.00    +0.000 C 
ATOM     16  O   UNL     1       4.968   5.910  16.453  0.00  0.00    +0.000 OA
ATOM     17  H   UNL     1       5.851   3.676  16.551  0.00  0.00    +0.000 HD
ATOM     18  H   UNL     1       5.145   3.230  18.043  0.00  0.00    +0.000 HD
ENDBRANCH  13  15
ENDBRANCH   1  13
BRANCH  11  19
ATOM     19  C   UNL     1       0.558  10.595  18.400  0.00  0.00    +0.000 C 
BRANCH  19  20
ATOM     20  C   UNL     1      -0.935  10.679  18.180  0.00  0.00    +0.000 A 
ATOM     21  C   UNL     1      -1.574   9.800  17.295  0.00  0.00    +0.000 A 
ATOM     22  C   UNL     1      -2.957   9.861  17.112  0.00  0.00    +0.000 A 
ATOM     23  C   UNL     1      -3.713  10.805  17.805  0.00  0.00    +0.000 A 
ATOM     24  C   UNL     1      -3.086  11.693  18.677  0.00  0.00    +0.000 A 
ATOM     25  C   UNL     1      -1.704  11.635  18.862  0.00  0.00    +0.000 A 
ENDBRANCH  19  20
ENDBRANCH  11  19
TORSDOF 4
ENDMDL
MODEL 3
REMARK VINA RESULT:      -8.1      1.979      3.215
REMARK  Name = 
REMARK  4 active torsions:
REMARK  status: ('A' for Active; 'I' for Inactive)
REMARK    1  A    between atoms: C_2  and  C_4
REMARK    2  A    between atoms: C_4  and  C_5
REMARK    3  A    between atoms: C_15  and  C_16
REMARK    4  A    between atoms: C_16  and  C_17
REMARK                            x       y       z     vdW  Elec       q    Type
REMARK                         _______ _______ _______ _____ _____    ______ ____
ROOT
ATOM      1  C   UNL     1       5.719   6.222  16.563  0.00  0.00    +0.000 C 
ATOM      2  C   UNL     1       5.523   5.600  15.167  0.00  0.00    +0.000 C 
ATOM      3  C   UNL     1       5.649   4.079  15.170  0.00  0.00    +0.000 C 
ATOM      4  C   UNL     1       4.707   3.468  16.200  0.00  0.00    +0.000 C 
ATOM      5  C   UNL     1       4.901   4.074  17.589  0.00  0.00    +0.000 C 
ATOM      6  N   UNL     1       4.843   5.537  17.533  0.00  0.00    +0.000 N 
ATOM      7  C   UNL     1       3.866   6.261  18.198  0.00  0.00    +0.000 A 
ATOM      8  C   UNL     1       3.312   5.812  19.383  0.00  0.00    +0.000 A 
ATOM      9  C   UNL     1       2.361   6.604  19.988  0.00  0.00    +0.000 A 
ATOM     10  N   UNL     1       1.937   7.769  19.482  0.00  0.00    +0.000 NA
ATOM     11  C   UNL     1       2.522   8.153  18.335  0.00  0.00    +0.000 A 
ATOM     12  N   UNL     1       3.491   7.455  17.698  0.00  0.00    +0.000 NA
ENDROOT
BRANCH   1  13
ATOM     13  C   UNL     1       7.189   6.156  17.006  0.00  0.00    +0.000 C 
BRANCH  13  15
ATOM     14  N   UNL     1       8.365   7.170  18.926  0.00  0.00    +0.000 N 
ATOM     15  C   UNL     1       7.721   7.368  17.744  0.00  0.00    +0.000 C 
ATOM     16  O   UNL     1       7.495   8.512  17.356  0.00  0.00    +0.000 OA
ATOM     17  H   UNL     1       8.761   8.006  19.337  0.00  0.00    +0.000 HD
ATOM     18  H   UNL     1       8.896   6.321  19.081  0.00  0.00    +0.000 HD
ENDBRANCH  13  15
ENDBRANCH   1  13
BRANCH  11  19
ATOM     19  C   UNL     1       2.017   9.421  17.687  0.00  0.00    +0.000 C 
BRANCH  19  20
ATOM     20  C   UNL     1       0.819  10.042  18.368  0.00  0.00    +0.000 A 
ATOM     21  C   UNL     1       0.987  10.863  19.492  0.00  0.00    +0.000 A 
ATOM     22  C   UNL     1      -0.118  11.456  20.105  0.00  0.00    +0.000 A 
ATOM     23  C   UNL     1      -1.400  11.231  19.607  0.00  0.00    +0.000 A 
ATOM     24  C   UNL     1      -1.579  10.406  18.498  0.00  0.00    +0.000 A 
ATOM     25  C   UNL     1      -0.477   9.810  17.883  0.00  0.00    +0.000 A 
ENDBRANCH  19  20
ENDBRANCH  11  19
TORSDOF 4
ENDMDL
MODEL 4
REMARK VINA RESULT:      -8.1      3.141      5.442
REMARK  Name = 
REMARK  4 active torsions:
REMARK  status: ('A' for Active; 'I' for Inactive)
REMARK    1  A    between atoms: C_2  and  C_4
REMARK    2  A    between atoms: C_4  and  C_5
REMARK    3  A    between atoms: C_15  and  C_16
REMARK    4  A    between atoms: C_16  and  C_17
REMARK                            x       y       z     vdW  Elec       q    Type
REMARK                         _______ _______ _______ _____ _____    ______ ____
ROOT
ATOM      1  C   UNL     1       2.770   6.072  18.620  0.00  0.00    +0.000 C 
ATOM      2  C   UNL     1       1.927   5.001  17.901  0.00  0.00    +0.000 C 
ATOM      3  C   UNL     1       1.709   3.749  18.745  0.00  0.00    +0.000 C 
ATOM      4  C   UNL     1       1.122   4.115  20.102  0.00  0.00    +0.000 C 
ATOM      5  C   UNL     1       1.958   5.171  20.825  0.00  0.00    +0.000 C 
ATOM      6  N   UNL     1       2.203   6.326  19.958  0.00  0.00    +0.000 N 
ATOM      7  C   UNL     1       1.735   7.592  20.271  0.00  0.00    +0.000 A 
ATOM      8  C   UNL     1       1.591   8.009  21.582  0.00  0.00    +0.000 A 
ATOM      9  C   UNL     1       1.140   9.291  21.803  0.00  0.00    +0.000 A 
ATOM     10  N   UNL     1       0.820  10.143  20.820  0.00  0.00    +0.000 NA
ATOM     11  C   UNL     1       0.992   9.681  19.570  0.00  0.00    +0.000 A 
ATOM     12  N   UNL     1       1.468   8.451  19.267  0.00  0.00    +0.000 NA
ENDROOT
BRANCH   1  13
ATOM     13  C   UNL     1       4.245   5.652  18.717  0.00  0.00    +0.000 C 
BRANCH  13  15
ATOM     14  N   UNL     1       5.429   3.923  17.411  0.00  0.00    +0.000 N 
ATOM     15  C   UNL     1       4.890   5.172  17.432  0.00  0.00    +0.000 C 
ATOM     16  O   UNL     1       5.027   5.913  16.461  0.00  0.00    +0.000 OA
ATOM     17  H   UNL     1       5.779   3.630  16.508  0.00  0.00    +0.000 HD
ATOM     18  H   UNL     1       5.026   3.185  17.977  0.00  0.00    +0.000 HD
ENDBRANCH  13  15
ENDBRANCH   1  13
BRANCH  11  19
ATOM     19  C   UNL     1       0.568  10.580  18.432  0.00  0.00    +0.000 C 
BRANCH  19  20
ATOM     20  C   UNL     1      -0.925  10.655  18.213  0.00  0.00    +0.000 A 
ATOM     21  C   UNL     1      -1.699  11.594  18.910  0.00  0.00    +0.000 A 
ATOM     22  C   UNL     1      -3.075  11.680  18.688  0.00  0.00    +0.000 A 
ATOM     23  C   UNL     1      -3.691  10.827  17.774  0.00  0.00    +0.000 A 
ATOM     24  C   UNL     1      -2.934   9.882  17.086  0.00  0.00    +0.000 A 
ATOM     25  C   UNL     1      -1.558   9.792  17.306  0.00  0.00    +0.000 A 
ENDBRANCH  19  20
ENDBRANCH  11  19
TORSDOF 4
ENDMDL
MODEL 5
REMARK VINA RESULT:      -8.1      0.105      1.012
REMARK  Name = 
REMARK  4 active torsions:
REMARK  status: ('A' for Active; 'I' for Inactive)
REMARK    1  A    between atoms: C_2  and  C_4
REMARK    2  A    between atoms: C_4  and  C_5
REMARK    3  A    between atoms: C_15  and  C_16
REMARK    4  A    between atoms: C_16  and  C_17
REMARK                            x       y       z     vdW  Elec       q    Type
REMARK                         _______ _______ _______ _____ _____    ______ ____
ROOT
ATOM      1  C   UNL     1       5.921   5.456  17.636  0.00  0.00    +0.000 C 
ATOM      2  C   UNL     1       5.694   6.369  16.416  0.00  0.00    +0.000 C 
ATOM      3  C   UNL     1       5.983   5.673  15.089  0.00  0.00    +0.000 C 
ATOM      4  C   UNL     1       5.189   4.378  14.983  0.00  0.00    +0.000 C 
ATOM      5  C   UNL     1       5.415   3.462  16.186  0.00  0.00    +0.000 C 
ATOM      6  N   UNL     1       5.195   4.186  17.440  0.00  0.00    +0.000 N 
ATOM      7  C   UNL     1       4.196   3.829  18.331  0.00  0.00    +0.000 A 
ATOM      8  C   UNL     1       3.779   2.516  18.465  0.00  0.00    +0.000 A 
ATOM      9  C   UNL     1       2.794   2.246  19.388  0.00  0.00    +0.000 A 
ATOM     10  N   UNL     1       2.212   3.184  20.145  0.00  0.00    +0.000 NA
ATOM     11  C   UNL     1       2.668   4.437  19.975  0.00  0.00    +0.000 A 
ATOM     12  N   UNL     1       3.659   4.781  19.119  0.00  0.00    +0.000 NA
ENDROOT
BRANCH   1  13
ATOM     13  C   UNL     1       7.417   5.204  17.878  0.00  0.00    +0.000 C 
BRANCH  13  15
ATOM     14  N   UNL     1       8.248   5.485  20.187  0.00  0.00    +0.000 N 
ATOM     15  C   UNL     1       8.071   6.043  18.958  0.00  0.00    +0.000 C 
ATOM     16  O   UNL     1       8.342   7.229  18.782  0.00  0.00    +0.000 OA
ATOM     17  H   UNL     1       8.754   6.064  20.845  0.00  0.00    +0.000 HD
ATOM     18  H   UNL     1       8.413   4.488  20.275  0.00  0.00    +0.000 HD
ENDBRANCH  13  15
ENDBRANCH   1  13
BRANCH  11  19
ATOM     19  C   UNL     1       1.984   5.537  20.751  0.00  0.00    +0.000 C 
BRANCH  19  20
ATOM     20  C   UNL     1       1.848   6.843  20.003  0.00  0.00    +0.000 A 
ATOM     21  C   UNL     1       1.322   7.976  20.641  0.00  0.00    +0.000 A 
ATOM     22  C   UNL     1       1.220   9.189  19.956  0.00  0.00    +0.000 A 
ATOM     23  C   UNL     1       1.635   9.281  18.629  0.00  0.00    +0.000 A 
ATOM     24  C   UNL     1       2.148   8.158  17.982  0.00  0.00    +0.000 A 
ATOM     25  C   UNL     1       2.250   6.943  18.663  0.00  0.00    +0.000 A 
ENDBRANCH  19  20
ENDBRANCH  11  19
TORSDOF 4
ENDMDL
MODEL 6
REMARK VINA RESULT:      -8.0      2.408      3.926
REMARK  Name = 
REMARK  4 active torsions:
REMARK  status: ('A' for Active; 'I' for Inactive)
REMARK    1  A    between atoms: C_2  and  C_4
REMARK    2  A    between atoms: C_4  and  C_5
REMARK    3  A    between atoms: C_15  and  C_16
REMARK    4  A    between atoms: C_16  and  C_17
REMARK                            x       y       z     vdW  Elec       q    Type
REMARK                         _______ _______ _______ _____ _____    ______ ____
ROOT
ATOM      1  C   UNL     1       4.649   5.773  17.903  0.00  0.00    +0.000 C 
ATOM      2  C   UNL     1       4.363   4.845  16.707  0.00  0.00    +0.000 C 
ATOM      3  C   UNL     1       4.237   3.378  17.109  0.00  0.00    +0.000 C 
ATOM      4  C   UNL     1       3.201   3.215  18.214  0.00  0.00    +0.000 C 
ATOM      5  C   UNL     1       3.483   4.127  19.408  0.00  0.00    +0.000 C 
ATOM      6  N   UNL     1       3.665   5.513  18.972  0.00  0.00    +0.000 N 
ATOM      7  C   UNL     1       2.816   6.530  19.378  0.00  0.00    +0.000 A 
ATOM      8  C   UNL     1       2.187   6.502  20.610  0.00  0.00    +0.000 A 
ATOM      9  C   UNL     1       1.375   7.563  20.941  0.00  0.00    +0.000 A 
ATOM     10  N   UNL     1       1.151   8.605  20.131  0.00  0.00    +0.000 NA
ATOM     11  C   UNL     1       1.799   8.578  18.954  0.00  0.00    +0.000 A 
ATOM     12  N   UNL     1       2.645   7.594  18.568  0.00  0.00    +0.000 NA
ENDROOT
BRANCH   1  13
ATOM     13  C   UNL     1       6.085   5.597  18.420  0.00  0.00    +0.000 C 
BRANCH  13  15
ATOM     14  N   UNL     1       7.879   4.357  17.261  0.00  0.00    +0.000 N 
ATOM     15  C   UNL     1       7.170   5.514  17.366  0.00  0.00    +0.000 C 
ATOM     16  O   UNL     1       7.489   6.488  16.686  0.00  0.00    +0.000 OA
ATOM     17  H   UNL     1       8.538   4.333  16.494  0.00  0.00    +0.000 HD
ATOM     18  H   UNL     1       7.440   3.469  17.479  0.00  0.00    +0.000 HD
ENDBRANCH  13  15
ENDBRANCH   1  13
BRANCH  11  19
ATOM     19  C   UNL     1       1.513   9.693  17.977  0.00  0.00    +0.000 C 
BRANCH  19  20
ATOM     20  C   UNL     1       0.173  10.366  18.164  0.00  0.00    +0.000 A 
ATOM     21  C   UNL     1      -0.990   9.795  17.628  0.00  0.00    +0.000 A 
ATOM     22  C   UNL     1      -2.231  10.404  17.823  0.00  0.00    +0.000 A 
ATOM     23  C   UNL     1      -2.322  11.590  18.549  0.00  0.00    +0.000 A 
ATOM     24  C   UNL     1      -1.171  12.173  19.076  0.00  0.00    +0.000 A 
ATOM     25  C   UNL     1       0.072  11.568  18.881  0.00  0.00    +0.000 A 
ENDBRANCH  19  20
ENDBRANCH  11  19
TORSDOF 4
ENDMDL
MODEL 7
REMARK VINA RESULT:      -8.0      2.411      3.994
REMARK  Name = 
REMARK  4 active torsions:
REMARK  status: ('A' for Active; 'I' for Inactive)
REMARK    1  A    between atoms: C_2  and  C_4
REMARK    2  A    between atoms: C_4  and  C_5
REMARK    3  A    between atoms: C_15  and  C_16
REMARK    4  A    between atoms: C_16  and  C_17
REMARK                            x       y       z     vdW  Elec       q    Type
REMARK                         _______ _______ _______ _____ _____    ______ ____
ROOT
ATOM      1  C   UNL     1       4.667   5.777  17.897  0.00  0.00    +0.000 C 
ATOM      2  C   UNL     1       4.386   4.833  16.713  0.00  0.00    +0.000 C 
ATOM      3  C   UNL     1       4.279   3.369  17.131  0.00  0.00    +0.000 C 
ATOM      4  C   UNL     1       3.251   3.206  18.243  0.00  0.00    +0.000 C 
ATOM      5  C   UNL     1       3.529   4.133  19.425  0.00  0.00    +0.000 C 
ATOM      6  N   UNL     1       3.693   5.517  18.974  0.00  0.00    +0.000 N 
ATOM      7  C   UNL     1       2.834   6.528  19.374  0.00  0.00    +0.000 A 
ATOM      8  C   UNL     1       2.213   6.506  20.610  0.00  0.00    +0.000 A 
ATOM      9  C   UNL     1       1.390   7.562  20.935  0.00  0.00    +0.000 A 
ATOM     10  N   UNL     1       1.150   8.592  20.116  0.00  0.00    +0.000 NA
ATOM     11  C   UNL     1       1.792   8.560  18.935  0.00  0.00    +0.000 A 
ATOM     12  N   UNL     1       2.646   7.582  18.555  0.00  0.00    +0.000 NA
ENDROOT
BRANCH   1  13
ATOM     13  C   UNL     1       6.108   5.623  18.408  0.00  0.00    +0.000 C 
BRANCH  13  15
ATOM     14  N   UNL     1       7.905   4.365  17.273  0.00  0.00    +0.000 N 
ATOM     15  C   UNL     1       7.186   5.518  17.348  0.00  0.00    +0.000 C 
ATOM     16  O   UNL     1       7.490   6.474  16.637  0.00  0.00    +0.000 OA
ATOM     17  H   UNL     1       8.559   4.325  16.501  0.00  0.00    +0.000 HD
ATOM     18  H   UNL     1       7.476   3.481  17.521  0.00  0.00    +0.000 HD
ENDBRANCH  13  15
ENDBRANCH   1  13
BRANCH  11  19
ATOM     19  C   UNL     1       1.487   9.662  17.948  0.00  0.00    +0.000 C 
BRANCH  19  20
ATOM     20  C   UNL     1       0.168  10.363  18.174  0.00  0.00    +0.000 A 
ATOM     21  C   UNL     1       0.117  11.567  18.892  0.00  0.00    +0.000 A 
ATOM     22  C   UNL     1      -1.099  12.227  19.078  0.00  0.00    +0.000 A 
ATOM     23  C   UNL     1      -2.274  11.690  18.557  0.00  0.00    +0.000 A 
ATOM     24  C   UNL     1      -2.237  10.488  17.854  0.00  0.00    +0.000 A 
ATOM     25  C   UNL     1      -1.023   9.824  17.666  0.00  0.00    +0.000 A 
ENDBRANCH  19  20
ENDBRANCH  11  19
TORSDOF 4
ENDMDL
MODEL 8
REMARK VINA RESULT:      -8.0      1.043      1.149
REMARK  Name = 
REMARK  4 active torsions:
REMARK  status: ('A' for Active; 'I' for Inactive)
REMARK    1  A    between atoms: C_2  and  C_4
REMARK    2  A    between atoms: C_4  and  C_5
REMARK    3  A    between atoms: C_15  and  C_16
REMARK    4  A    between atoms: C_16  and  C_17
REMARK                            x       y       z     vdW  Elec       q    Type
REMARK                         _______ _______ _______ _____ _____    ______ ____
ROOT
ATOM      1  C   UNL     1       5.681   5.569  17.933  0.00  0.00    +0.000 C 
ATOM      2  C   UNL     1       5.688   6.412  16.643  0.00  0.00    +0.000 C 
ATOM      3  C   UNL     1       5.873   5.571  15.383  0.00  0.00    +0.000 C 
ATOM      4  C   UNL     1       4.833   4.459  15.327  0.00  0.00    +0.000 C 
ATOM      5  C   UNL     1       4.826   3.613  16.600  0.00  0.00    +0.000 C 
ATOM      6  N   UNL     1       4.716   4.461  17.789  0.00  0.00    +0.000 N 
ATOM      7  C   UNL     1       3.635   4.383  18.652  0.00  0.00    +0.000 A 
ATOM      8  C   UNL     1       2.953   3.197  18.855  0.00  0.00    +0.000 A 
ATOM      9  C   UNL     1       1.902   3.204  19.746  0.00  0.00    +0.000 A 
ATOM     10  N   UNL     1       1.500   4.296  20.407  0.00  0.00    +0.000 NA
ATOM     11  C   UNL     1       2.210   5.413  20.174  0.00  0.00    +0.000 A 
ATOM     12  N   UNL     1       3.279   5.482  19.346  0.00  0.00    +0.000 NA
ENDROOT
BRANCH   1  13
ATOM     13  C   UNL     1       7.084   5.039  18.265  0.00  0.00    +0.000 C 
BRANCH  13  15
ATOM     14  N   UNL     1       8.428   6.945  19.076  0.00  0.00    +0.000 N 
ATOM     15  C   UNL     1       7.827   5.761  19.372  0.00  0.00    +0.000 C 
ATOM     16  O   UNL     1       7.984   5.257  20.482  0.00  0.00    +0.000 OA
ATOM     17  H   UNL     1       8.846   7.416  19.869  0.00  0.00    +0.000 HD
ATOM     18  H   UNL     1       8.031   7.557  18.372  0.00  0.00    +0.000 HD
ENDBRANCH  13  15
ENDBRANCH   1  13
BRANCH  11  19
ATOM     19  C   UNL     1       1.741   6.686  20.837  0.00  0.00    +0.000 C 
BRANCH  19  20
ATOM     20  C   UNL     1       1.655   7.882  19.916  0.00  0.00    +0.000 A 
ATOM     21  C   UNL     1       2.188   7.821  18.621  0.00  0.00    +0.000 A 
ATOM     22  C   UNL     1       2.085   8.917  17.762  0.00  0.00    +0.000 A 
ATOM     23  C   UNL     1       1.458  10.085  18.190  0.00  0.00    +0.000 A 
ATOM     24  C   UNL     1       0.937  10.161  19.481  0.00  0.00    +0.000 A 
ATOM     25  C   UNL     1       1.038   9.067  20.342  0.00  0.00    +0.000 A 
ENDBRANCH  19  20
ENDBRANCH  11  19
TORSDOF 4
ENDMDL
MODEL 9
REMARK VINA RESULT:      -7.9      2.149      4.122
REMARK  Name = 
REMARK  4 active torsions:
REMARK  status: ('A' for Active; 'I' for Inactive)
REMARK    1  A    between atoms: C_2  and  C_4
REMARK    2  A    between atoms: C_4  and  C_5
REMARK    3  A    between atoms: C_15  and  C_16
REMARK    4  A    between atoms: C_16  and  C_17
REMARK                            x       y       z     vdW  Elec       q    Type
REMARK                         _______ _______ _______ _____ _____    ______ ____
ROOT
ATOM      1  C   UNL     1       3.644   4.335  18.129  0.00  0.00    +0.000 C 
ATOM      2  C   UNL     1       2.952   3.464  17.063  0.00  0.00    +0.000 C 
ATOM      3  C   UNL     1       2.387   2.165  17.632  0.00  0.00    +0.000 C 
ATOM      4  C   UNL     1       1.467   2.456  18.811  0.00  0.00    +0.000 C 
ATOM      5  C   UNL     1       2.149   3.313  19.877  0.00  0.00    +0.000 C 
ATOM      6  N   UNL     1       2.739   4.515  19.280  0.00  0.00    +0.000 N 
ATOM      7  C   UNL     1       2.318   5.789  19.624  0.00  0.00    +0.000 A 
ATOM      8  C   UNL     1       1.838   6.078  20.889  0.00  0.00    +0.000 A 
ATOM      9  C   UNL     1       1.460   7.376  21.152  0.00  0.00    +0.000 A 
ATOM     10  N   UNL     1       1.517   8.361  20.247  0.00  0.00    +0.000 NA
ATOM     11  C   UNL     1       2.003   8.018  19.042  0.00  0.00    +0.000 A 
ATOM     12  N   UNL     1       2.432   6.777  18.714  0.00  0.00    +0.000 NA
ENDROOT
BRANCH   1  13
ATOM     13  C   UNL     1       4.984   3.725  18.571  0.00  0.00    +0.000 C 
BRANCH  13  15
ATOM     14  N   UNL     1       7.331   4.329  18.102  0.00  0.00    +0.000 N 
ATOM     15  C   UNL     1       6.152   4.684  18.680  0.00  0.00    +0.000 C 
ATOM     16  O   UNL     1       6.088   5.708  19.358  0.00  0.00    +0.000 OA
ATOM     17  H   UNL     1       8.053   5.038  18.144  0.00  0.00    +0.000 HD
ATOM     18  H   UNL     1       7.337   3.759  17.264  0.00  0.00    +0.000 HD
ENDBRANCH  13  15
ENDBRANCH   1  13
BRANCH  11  19
ATOM     19  C   UNL     1       2.010   9.080  17.967  0.00  0.00    +0.000 C 
BRANCH  19  20
ATOM     20  C   UNL     1       1.001  10.187  18.169  0.00  0.00    +0.000 A 
ATOM     21  C   UNL     1       1.417  11.461  18.582  0.00  0.00    +0.000 A 
ATOM     22  C   UNL     1       0.487  12.490  18.743  0.00  0.00    +0.000 A 
ATOM     23  C   UNL     1      -0.865  12.255  18.501  0.00  0.00    +0.000 A 
ATOM     24  C   UNL     1      -1.291  10.989  18.104  0.00  0.00    +0.000 A 
ATOM     25  C   UNL     1      -0.364   9.958  17.942  0.00  0.00    +0.000 A 
ENDBRANCH  19  20
ENDBRANCH  11  19
TORSDOF 4
ENDMDL
