MODEL 1
REMARK VINA RESULT:      -7.6      0.000      0.000
REMARK  Name = 
REMARK  8 active torsions:
REMARK  status: ('A' for Active; 'I' for Inactive)
REMARK    1  A    between atoms: C_1  and  C_2
REMARK    2  A    between atoms: C_2  and  C_3
REMARK    3  A    between atoms: C_3  and  C_4
REMARK    4  A    between atoms: C_4  and  C_5
REMARK    5  A    between atoms: C_5  and  O_7
REMARK    6  A    between atoms: O_7  and  C_8
REMARK    7  A    between atoms: C_8  and  C_9
REMARK    8  A    between atoms: C_10  and  C_11
REMARK                            x       y       z     vdW  Elec       q    Type
REMARK                         _______ _______ _______ _____ _____    ______ ____
ROOT
ATOM      1  C   UNL     1       4.044   4.127  18.161  0.00  0.00    +0.000 A 
ATOM      2  C   UNL     1       4.497   5.341  18.738  0.00  0.00    +0.000 A 
ATOM      3  N   UNL     1       3.796   5.969  19.719  0.00  0.00    +0.000 NA
ATOM      4  C   UNL     1       2.629   5.420  20.126  0.00  0.00    +0.000 A 
ATOM      5  C   UNL     1       2.078   4.254  19.609  0.00  0.00    +0.000 A 
ATOM      6  C   UNL     1       0.843   3.755  20.077  0.00  0.00    +0.000 A 
ATOM      7  C   UNL     1       0.295   2.588  19.555  0.00  0.00    +0.000 A 
ATOM      8  C   UNL     1       0.977   1.900  18.564  0.00  0.00    +0.000 A 
ATOM      9  C   UNL     1       2.205   2.382  18.106  0.00  0.00    +0.000 A 
ATOM     10  C   UNL     1       2.795   3.575  18.604  0.00  0.00    +0.000 A 
ENDROOT
BRANCH   2  11
ATOM     11  C   UNL     1       5.783   6.022  18.409  0.00  0.00    +0.000 A 
ATOM     12  C   UNL     1       6.994   5.715  19.053  0.00  0.00    +0.000 A 
ATOM     13  C   UNL     1       8.142   6.493  18.885  0.00  0.00    +0.000 A 
ATOM     14  C   UNL     1       8.143   7.534  17.966  0.00  0.00    +0.000 A 
ATOM     15  C   UNL     1       7.005   7.775  17.204  0.00  0.00    +0.000 A 
ATOM     16  C   UNL     1       5.837   7.035  17.432  0.00  0.00    +0.000 A 
ENDBRANCH   2  11
BRANCH   1  17
ATOM     17  C   UNL     1       4.865   3.387  17.125  0.00  0.00    +0.000 C 
BRANCH  17  18
ATOM     18  O   UNL     1       4.674   3.974  15.834  0.00  0.00    +0.000 OA
BRANCH  18  19
ATOM     19  C   UNL     1       5.795   4.176  15.097  0.00  0.00    +0.000 C 
ATOM     20  O   UNL     1       6.937   4.223  15.534  0.00  0.00    +0.000 OA
BRANCH  19  21
ATOM     21  C   UNL     1       5.455   4.308  13.636  0.00  0.00    +0.000 C 
BRANCH  21  22
ATOM     22  C   UNL     1       6.353   3.468  12.733  0.00  0.00    +0.000 C 
BRANCH  22  24
ATOM     23  C   UNL     1       4.203   3.261  11.434  0.00  0.00    +0.000 C 
ATOM     24  C   UNL     1       5.565   2.646  11.712  0.00  0.00    +0.000 C 
ENDBRANCH  22  24
ENDBRANCH  21  22
ENDBRANCH  19  21
ENDBRANCH  18  19
ENDBRANCH  17  18
ENDBRANCH   1  17
TORSDOF 7
ENDMDL
MODEL 2
REMARK VINA RESULT:      -7.5      3.015      5.390
REMARK  Name = 
REMARK  8 active torsions:
REMARK  status: ('A' for Active; 'I' for Inactive)
REMARK    1  A    between atoms: C_1  and  C_2
REMARK    2  A    between atoms: C_2  and  C_3
REMARK    3  A    between atoms: C_3  and  C_4
REMARK    4  A    between atoms: C_4  and  C_5
REMARK    5  A    between atoms: C_5  and  O_7
REMARK    6  A    between atoms: O_7  and  C_8
REMARK    7  A    between atoms: C_8  and  C_9
REMARK    8  A    between atoms: C_10  and  C_11
REMARK                            x       y       z     vdW  Elec       q    Type
REMARK                         _______ _______ _______ _____ _____    ______ ____
ROOT
ATOM      1  C   UNL     1       2.733   6.560  19.551  0.00  0.00    +0.000 A 
ATOM      2  C   UNL     1       3.429   6.702  18.324  0.00  0.00    +0.000 A 
ATOM      3  N   UNL     1       3.268   7.798  17.536  0.00  0.00    +0.000 NA
ATOM      4  C   UNL     1       2.401   8.755  17.936  0.00  0.00    +0.000 A 
ATOM      5  C   UNL     1       1.645   8.704  19.101  0.00  0.00    +0.000 A 
ATOM      6  C   UNL     1       0.746   9.738  19.440  0.00  0.00    +0.000 A 
ATOM      7  C   UNL     1      -0.009   9.680  20.607  0.00  0.00    +0.000 A 
ATOM      8  C   UNL     1       0.129   8.593  21.454  0.00  0.00    +0.000 A 
ATOM      9  C   UNL     1       1.026   7.572  21.130  0.00  0.00    +0.000 A 
ATOM     10  C   UNL     1       1.808   7.586  19.944  0.00  0.00    +0.000 A 
ENDROOT
BRANCH   2  11
ATOM     11  C   UNL     1       4.441   5.743  17.793  0.00  0.00    +0.000 A 
ATOM     12  C   UNL     1       5.667   5.498  18.435  0.00  0.00    +0.000 A 
ATOM     13  C   UNL     1       6.687   4.758  17.829  0.00  0.00    +0.000 A 
ATOM     14  C   UNL     1       6.459   4.137  16.609  0.00  0.00    +0.000 A 
ATOM     15  C   UNL     1       5.206   4.238  16.014  0.00  0.00    +0.000 A 
ATOM     16  C   UNL     1       4.214   5.041  16.594  0.00  0.00    +0.000 A 
ENDBRANCH   2  11
BRANCH   1  17
ATOM     17  C   UNL     1       2.972   5.377  20.466  0.00  0.00    +0.000 C 
BRANCH  17  18
ATOM     18  O   UNL     1       1.813   4.539  20.502  0.00  0.00    +0.000 OA
BRANCH  18  19
ATOM     19  C   UNL     1       1.962   3.338  21.113  0.00  0.00    +0.000 C 
ATOM     20  O   UNL     1       2.291   3.166  22.280  0.00  0.00    +0.000 OA
BRANCH  19  21
ATOM     21  C   UNL     1       1.638   2.213  20.164  0.00  0.00    +0.000 C 
BRANCH  21  22
ATOM     22  C   UNL     1       1.258   2.698  18.768  0.00  0.00    +0.000 C 
BRANCH  22  24
ATOM     23  C   UNL     1       3.561   1.762  18.350  0.00  0.00    +0.000 C 
ATOM     24  C   UNL     1       2.319   2.369  17.717  0.00  0.00    +0.000 C 
ENDBRANCH  22  24
ENDBRANCH  21  22
ENDBRANCH  19  21
ENDBRANCH  18  19
ENDBRANCH  17  18
ENDBRANCH   1  17
TORSDOF 7
ENDMDL
MODEL 3
REMARK VINA RESULT:      -7.4      3.008      5.471
REMARK  Name = 
REMARK  8 active torsions:
REMARK  status: ('A' for Active; 'I' for Inactive)
REMARK    1  A    between atoms: C_1  and  C_2
REMARK    2  A    between atoms: C_2  and  C_3
REMARK    3  A    between atoms: C_3  and  C_4
REMARK    4  A    between atoms: C_4  and  C_5
REMARK    5  A    between atoms: C_5  and  O_7
REMARK    6  A    between atoms: O_7  and  C_8
REMARK    7  A    between atoms: C_8  and  C_9
REMARK    8  A    between atoms: C_10  and  C_11
REMARK                            x       y       z     vdW  Elec       q    Type
REMARK                         _______ _______ _______ _____ _____    ______ ____
ROOT
ATOM      1  C   UNL     1       2.916   6.660  19.231  0.00  0.00    +0.000 A 
ATOM      2  C   UNL     1       3.499   6.926  17.966  0.00  0.00    +0.000 A 
ATOM      3  N   UNL     1       3.204   8.055  17.268  0.00  0.00    +0.000 NA
ATOM      4  C   UNL     1       2.313   8.923  17.798  0.00  0.00    +0.000 A 
ATOM      5  C   UNL     1       1.660   8.747  19.012  0.00  0.00    +0.000 A 
ATOM      6  C   UNL     1       0.727   9.694  19.488  0.00  0.00    +0.000 A 
ATOM      7  C   UNL     1       0.076   9.512  20.704  0.00  0.00    +0.000 A 
ATOM      8  C   UNL     1       0.352   8.387  21.462  0.00  0.00    +0.000 A 
ATOM      9  C   UNL     1       1.283   7.452  21.002  0.00  0.00    +0.000 A 
ATOM     10  C   UNL     1       1.963   7.594  19.762  0.00  0.00    +0.000 A 
ENDROOT
BRANCH   2  11
ATOM     11  C   UNL     1       4.524   6.073  17.295  0.00  0.00    +0.000 A 
ATOM     12  C   UNL     1       4.206   4.860  16.662  0.00  0.00    +0.000 A 
ATOM     13  C   UNL     1       5.193   3.974  16.219  0.00  0.00    +0.000 A 
ATOM     14  C   UNL     1       6.531   4.340  16.288  0.00  0.00    +0.000 A 
ATOM     15  C   UNL     1       6.872   5.596  16.775  0.00  0.00    +0.000 A 
ATOM     16  C   UNL     1       5.881   6.447  17.283  0.00  0.00    +0.000 A 
ENDBRANCH   2  11
BRANCH   1  17
ATOM     17  C   UNL     1       3.304   5.443  20.043  0.00  0.00    +0.000 C 
BRANCH  17  18
ATOM     18  O   UNL     1       2.306   5.169  21.031  0.00  0.00    +0.000 OA
BRANCH  18  19
ATOM     19  C   UNL     1       1.874   3.886  21.106  0.00  0.00    +0.000 C 
ATOM     20  O   UNL     1       2.193   3.074  21.965  0.00  0.00    +0.000 OA
BRANCH  19  21
ATOM     21  C   UNL     1       0.908   3.583  19.990  0.00  0.00    +0.000 C 
BRANCH  21  22
ATOM     22  C   UNL     1       1.142   2.218  19.349  0.00  0.00    +0.000 C 
BRANCH  22  24
ATOM     23  C   UNL     1       3.463   1.678  18.530  0.00  0.00    +0.000 C 
ATOM     24  C   UNL     1       2.113   2.276  18.169  0.00  0.00    +0.000 C 
ENDBRANCH  22  24
ENDBRANCH  21  22
ENDBRANCH  19  21
ENDBRANCH  18  19
ENDBRANCH  17  18
ENDBRANCH   1  17
TORSDOF 7
ENDMDL
MODEL 4
REMARK VINA RESULT:      -7.2      2.935      5.377
REMARK  Name = 
REMARK  8 active torsions:
REMARK  status: ('A' for Active; 'I' for Inactive)
REMARK    1  A    between atoms: C_1  and  C_2
REMARK    2  A    between atoms: C_2  and  C_3
REMARK    3  A    between atoms: C_3  and  C_4
REMARK    4  A    between atoms: C_4  and  C_5
REMARK    5  A    between atoms: C_5  and  O_7
REMARK    6  A    between atoms: O_7  and  C_8
REMARK    7  A    between atoms: C_8  and  C_9
REMARK    8  A    between atoms: C_10  and  C_11
REMARK                            x       y       z     vdW  Elec       q    Type
REMARK                         _______ _______ _______ _____ _____    ______ ____
ROOT
ATOM      1  C   UNL     1       2.524   7.328  18.445  0.00  0.00    +0.000 A 
ATOM      2  C   UNL     1       2.432   6.193  19.291  0.00  0.00    +0.000 A 
ATOM      3  N   UNL     1       1.804   6.251  20.496  0.00  0.00    +0.000 NA
ATOM      4  C   UNL     1       1.281   7.433  20.891  0.00  0.00    +0.000 A 
ATOM      5  C   UNL     1       1.341   8.613  20.158  0.00  0.00    +0.000 A 
ATOM      6  C   UNL     1       0.785   9.813  20.650  0.00  0.00    +0.000 A 
ATOM      7  C   UNL     1       0.850  10.990  19.911  0.00  0.00    +0.000 A 
ATOM      8  C   UNL     1       1.464  10.983  18.670  0.00  0.00    +0.000 A 
ATOM      9  C   UNL     1       2.006   9.795  18.173  0.00  0.00    +0.000 A 
ATOM     10  C   UNL     1       1.971   8.573  18.898  0.00  0.00    +0.000 A 
ENDROOT
BRANCH   2  11
ATOM     11  C   UNL     1       2.927   4.827  18.954  0.00  0.00    +0.000 A 
ATOM     12  C   UNL     1       2.328   4.021  17.970  0.00  0.00    +0.000 A 
ATOM     13  C   UNL     1       2.668   2.676  17.805  0.00  0.00    +0.000 A 
ATOM     14  C   UNL     1       3.711   2.131  18.543  0.00  0.00    +0.000 A 
ATOM     15  C   UNL     1       4.422   2.939  19.422  0.00  0.00    +0.000 A 
ATOM     16  C   UNL     1       4.027   4.268  19.632  0.00  0.00    +0.000 A 
ENDBRANCH   2  11
BRANCH   1  17
ATOM     17  C   UNL     1       3.153   7.243  17.071  0.00  0.00    +0.000 C 
BRANCH  17  18
ATOM     18  O   UNL     1       4.536   6.891  17.182  0.00  0.00    +0.000 OA
BRANCH  18  19
ATOM     19  C   UNL     1       5.110   6.363  16.073  0.00  0.00    +0.000 C 
ATOM     20  O   UNL     1       5.267   6.943  15.006  0.00  0.00    +0.000 OA
BRANCH  19  21
ATOM     21  C   UNL     1       5.569   4.952  16.330  0.00  0.00    +0.000 C 
BRANCH  21  22
ATOM     22  C   UNL     1       7.063   4.851  16.622  0.00  0.00    +0.000 C 
BRANCH  22  24
ATOM     23  C   UNL     1       7.721   6.169  18.667  0.00  0.00    +0.000 C 
ATOM     24  C   UNL     1       7.373   4.795  18.119  0.00  0.00    +0.000 C 
ENDBRANCH  22  24
ENDBRANCH  21  22
ENDBRANCH  19  21
ENDBRANCH  18  19
ENDBRANCH  17  18
ENDBRANCH   1  17
TORSDOF 7
ENDMDL
MODEL 5
REMARK VINA RESULT:      -7.1      2.912      4.955
REMARK  Name = 
REMARK  8 active torsions:
REMARK  status: ('A' for Active; 'I' for Inactive)
REMARK    1  A    between atoms: C_1  and  C_2
REMARK    2  A    between atoms: C_2  and  C_3
REMARK    3  A    between atoms: C_3  and  C_4
REMARK    4  A    between atoms: C_4  and  C_5
REMARK    5  A    between atoms: C_5  and  O_7
REMARK    6  A    between atoms: O_7  and  C_8
REMARK    7  A    between atoms: C_8  and  C_9
REMARK    8  A    between atoms: C_10  and  C_11
REMARK                            x       y       z     vdW  Elec       q    Type
REMARK                         _______ _______ _______ _____ _____    ______ ____
ROOT
ATOM      1  C   UNL     1       2.421   7.292  18.502  0.00  0.00    +0.000 A 
ATOM      2  C   UNL     1       2.343   6.150  19.339  0.00  0.00    +0.000 A 
ATOM      3  N   UNL     1       1.739   6.199  20.556  0.00  0.00    +0.000 NA
ATOM      4  C   UNL     1       1.226   7.378  20.971  0.00  0.00    +0.000 A 
ATOM      5  C   UNL     1       1.274   8.564  20.248  0.00  0.00    +0.000 A 
ATOM      6  C   UNL     1       0.729   9.761  20.761  0.00  0.00    +0.000 A 
ATOM      7  C   UNL     1       0.782  10.944  20.032  0.00  0.00    +0.000 A 
ATOM      8  C   UNL     1       1.373  10.946  18.779  0.00  0.00    +0.000 A 
ATOM      9  C   UNL     1       1.903   9.762  18.261  0.00  0.00    +0.000 A 
ATOM     10  C   UNL     1       1.879   8.534  18.975  0.00  0.00    +0.000 A 
ENDROOT
BRANCH   2  11
ATOM     11  C   UNL     1       2.830   4.786  18.980  0.00  0.00    +0.000 A 
ATOM     12  C   UNL     1       2.220   3.996  17.991  0.00  0.00    +0.000 A 
ATOM     13  C   UNL     1       2.553   2.652  17.805  0.00  0.00    +0.000 A 
ATOM     14  C   UNL     1       3.598   2.092  18.528  0.00  0.00    +0.000 A 
ATOM     15  C   UNL     1       4.320   2.886  19.412  0.00  0.00    +0.000 A 
ATOM     16  C   UNL     1       3.933   4.213  19.643  0.00  0.00    +0.000 A 
ENDBRANCH   2  11
BRANCH   1  17
ATOM     17  C   UNL     1       3.024   7.218  17.115  0.00  0.00    +0.000 C 
BRANCH  17  18
ATOM     18  O   UNL     1       4.451   7.149  17.200  0.00  0.00    +0.000 OA
BRANCH  18  19
ATOM     19  C   UNL     1       5.085   6.558  16.157  0.00  0.00    +0.000 C 
ATOM     20  O   UNL     1       5.241   7.048  15.046  0.00  0.00    +0.000 OA
BRANCH  19  21
ATOM     21  C   UNL     1       5.611   5.203  16.552  0.00  0.00    +0.000 C 
BRANCH  21  22
ATOM     22  C   UNL     1       5.328   4.123  15.512  0.00  0.00    +0.000 C 
BRANCH  22  24
ATOM     23  C   UNL     1       5.901   3.604  13.113  0.00  0.00    +0.000 C 
ATOM     24  C   UNL     1       6.447   3.985  14.480  0.00  0.00    +0.000 C 
ENDBRANCH  22  24
ENDBRANCH  21  22
ENDBRANCH  19  21
ENDBRANCH  18  19
ENDBRANCH  17  18
ENDBRANCH   1  17
TORSDOF 7
ENDMDL
MODEL 6
REMARK VINA RESULT:      -7.1      2.622      5.022
REMARK  Name = 
REMARK  8 active torsions:
REMARK  status: ('A' for Active; 'I' for Inactive)
REMARK    1  A    between atoms: C_1  and  C_2
REMARK    2  A    between atoms: C_2  and  C_3
REMARK    3  A    between atoms: C_3  and  C_4
REMARK    4  A    between atoms: C_4  and  C_5
REMARK    5  A    between atoms: C_5  and  O_7
REMARK    6  A    between atoms: O_7  and  C_8
REMARK    7  A    between atoms: C_8  and  C_9
REMARK    8  A    between atoms: C_10  and  C_11
REMARK                            x       y       z     vdW  Elec       q    Type
REMARK                         _______ _______ _______ _____ _____    ______ ____
ROOT
ATOM      1  C   UNL     1       3.203   6.772  19.087  0.00  0.00    +0.000 A 
ATOM      2  C   UNL     1       3.697   7.043  17.786  0.00  0.00    +0.000 A 
ATOM      3  N   UNL     1       3.245   8.097  17.057  0.00  0.00    +0.000 NA
ATOM      4  C   UNL     1       2.284   8.883  17.592  0.00  0.00    +0.000 A 
ATOM      5  C   UNL     1       1.708   8.692  18.842  0.00  0.00    +0.000 A 
ATOM      6  C   UNL     1       0.695   9.549  19.323  0.00  0.00    +0.000 A 
ATOM      7  C   UNL     1       0.121   9.352  20.575  0.00  0.00    +0.000 A 
ATOM      8  C   UNL     1       0.556   8.301  21.365  0.00  0.00    +0.000 A 
ATOM      9  C   UNL     1       1.568   7.457  20.900  0.00  0.00    +0.000 A 
ATOM     10  C   UNL     1       2.173   7.616  19.624  0.00  0.00    +0.000 A 
ENDROOT
BRANCH   2  11
ATOM     11  C   UNL     1       4.783   6.280  17.102  0.00  0.00    +0.000 A 
ATOM     12  C   UNL     1       4.533   5.149  16.307  0.00  0.00    +0.000 A 
ATOM     13  C   UNL     1       5.563   4.327  15.841  0.00  0.00    +0.000 A 
ATOM     14  C   UNL     1       6.887   4.687  16.060  0.00  0.00    +0.000 A 
ATOM     15  C   UNL     1       7.171   5.878  16.719  0.00  0.00    +0.000 A 
ATOM     16  C   UNL     1       6.132   6.658  17.243  0.00  0.00    +0.000 A 
ENDBRANCH   2  11
BRANCH   1  17
ATOM     17  C   UNL     1       3.763   5.645  19.929  0.00  0.00    +0.000 C 
BRANCH  17  18
ATOM     18  O   UNL     1       3.211   4.394  19.508  0.00  0.00    +0.000 OA
BRANCH  18  19
ATOM     19  C   UNL     1       4.102   3.406  19.243  0.00  0.00    +0.000 C 
ATOM     20  O   UNL     1       5.308   3.460  19.444  0.00  0.00    +0.000 OA
BRANCH  19  21
ATOM     21  C   UNL     1       3.403   2.194  18.684  0.00  0.00    +0.000 C 
BRANCH  21  22
ATOM     22  C   UNL     1       2.116   2.534  17.939  0.00  0.00    +0.000 C 
BRANCH  22  24
ATOM     23  C   UNL     1       0.578   3.043  19.870  0.00  0.00    +0.000 C 
ATOM     24  C   UNL     1       0.860   2.112  18.702  0.00  0.00    +0.000 C 
ENDBRANCH  22  24
ENDBRANCH  21  22
ENDBRANCH  19  21
ENDBRANCH  18  19
ENDBRANCH  17  18
ENDBRANCH   1  17
TORSDOF 7
ENDMDL
MODEL 7
REMARK VINA RESULT:      -7.1      2.717      4.803
REMARK  Name = 
REMARK  8 active torsions:
REMARK  status: ('A' for Active; 'I' for Inactive)
REMARK    1  A    between atoms: C_1  and  C_2
REMARK    2  A    between atoms: C_2  and  C_3
REMARK    3  A    between atoms: C_3  and  C_4
REMARK    4  A    between atoms: C_4  and  C_5
REMARK    5  A    between atoms: C_5  and  O_7
REMARK    6  A    between atoms: O_7  and  C_8
REMARK    7  A    between atoms: C_8  and  C_9
REMARK    8  A    between atoms: C_10  and  C_11
REMARK                            x       y       z     vdW  Elec       q    Type
REMARK                         _______ _______ _______ _____ _____    ______ ____
ROOT
ATOM      1  C   UNL     1       2.603   6.861  18.545  0.00  0.00    +0.000 A 
ATOM      2  C   UNL     1       2.370   5.822  19.482  0.00  0.00    +0.000 A 
ATOM      3  N   UNL     1       1.662   6.038  20.623  0.00  0.00    +0.000 NA
ATOM      4  C   UNL     1       1.197   7.283  20.864  0.00  0.00    +0.000 A 
ATOM      5  C   UNL     1       1.393   8.379  20.032  0.00  0.00    +0.000 A 
ATOM      6  C   UNL     1       0.889   9.655  20.365  0.00  0.00    +0.000 A 
ATOM      7  C   UNL     1       1.090  10.748  19.529  0.00  0.00    +0.000 A 
ATOM      8  C   UNL     1       1.791  10.580  18.346  0.00  0.00    +0.000 A 
ATOM      9  C   UNL     1       2.282   9.317  18.005  0.00  0.00    +0.000 A 
ATOM     10  C   UNL     1       2.108   8.177  18.835  0.00  0.00    +0.000 A 
ENDROOT
BRANCH   2  11
ATOM     11  C   UNL     1       2.791   4.401  19.313  0.00  0.00    +0.000 A 
ATOM     12  C   UNL     1       3.973   3.886  19.872  0.00  0.00    +0.000 A 
ATOM     13  C   UNL     1       4.459   2.618  19.540  0.00  0.00    +0.000 A 
ATOM     14  C   UNL     1       3.706   1.779  18.730  0.00  0.00    +0.000 A 
ATOM     15  C   UNL     1       2.461   2.202  18.277  0.00  0.00    +0.000 A 
ATOM     16  C   UNL     1       2.015   3.501  18.556  0.00  0.00    +0.000 A 
ENDBRANCH   2  11
BRANCH   1  17
ATOM     17  C   UNL     1       3.323   6.602  17.238  0.00  0.00    +0.000 C 
BRANCH  17  18
ATOM     18  O   UNL     1       4.722   6.864  17.386  0.00  0.00    +0.000 OA
BRANCH  18  19
ATOM     19  C   UNL     1       5.550   5.803  17.221  0.00  0.00    +0.000 C 
ATOM     20  O   UNL     1       6.655   5.674  17.732  0.00  0.00    +0.000 OA
BRANCH  19  21
ATOM     21  C   UNL     1       4.915   4.764  16.335  0.00  0.00    +0.000 C 
BRANCH  21  22
ATOM     22  C   UNL     1       5.932   3.838  15.674  0.00  0.00    +0.000 C 
BRANCH  22  24
ATOM     23  C   UNL     1       6.074   3.645  13.165  0.00  0.00    +0.000 C 
ATOM     24  C   UNL     1       6.522   4.424  14.391  0.00  0.00    +0.000 C 
ENDBRANCH  22  24
ENDBRANCH  21  22
ENDBRANCH  19  21
ENDBRANCH  18  19
ENDBRANCH  17  18
ENDBRANCH   1  17
TORSDOF 7
ENDMDL
MODEL 8
REMARK VINA RESULT:      -7.1      3.452      6.080
REMARK  Name = 
REMARK  8 active torsions:
REMARK  status: ('A' for Active; 'I' for Inactive)
REMARK    1  A    between atoms: C_1  and  C_2
REMARK    2  A    between atoms: C_2  and  C_3
REMARK    3  A    between atoms: C_3  and  C_4
REMARK    4  A    between atoms: C_4  and  C_5
REMARK    5  A    between atoms: C_5  and  O_7
REMARK    6  A    between atoms: O_7  and  C_8
REMARK    7  A    between atoms: C_8  and  C_9
REMARK    8  A    between atoms: C_10  and  C_11
REMARK                            x       y       z     vdW  Elec       q    Type
REMARK                         _______ _______ _______ _____ _____    ______ ____
ROOT
ATOM      1  C   UNL     1       2.172   7.291  19.516  0.00  0.00    +0.000 A 
ATOM      2  C   UNL     1       2.756   7.440  18.232  0.00  0.00    +0.000 A 
ATOM      3  N   UNL     1       2.587   8.574  17.500  0.00  0.00    +0.000 NA
ATOM      4  C   UNL     1       1.822   9.562  18.014  0.00  0.00    +0.000 A 
ATOM      5  C   UNL     1       1.178   9.509  19.245  0.00  0.00    +0.000 A 
ATOM      6  C   UNL     1       0.380  10.579  19.703  0.00  0.00    +0.000 A 
ATOM      7  C   UNL     1      -0.262  10.519  20.935  0.00  0.00    +0.000 A 
ATOM      8  C   UNL     1      -0.110   9.394  21.728  0.00  0.00    +0.000 A 
ATOM      9  C   UNL     1       0.689   8.337  21.285  0.00  0.00    +0.000 A 
ATOM     10  C   UNL     1       1.354   8.352  20.030  0.00  0.00    +0.000 A 
ENDROOT
BRANCH   2  11
ATOM     11  C   UNL     1       3.653   6.446  17.574  0.00  0.00    +0.000 A 
ATOM     12  C   UNL     1       4.880   6.799  16.986  0.00  0.00    +0.000 A 
ATOM     13  C   UNL     1       5.611   5.905  16.200  0.00  0.00    +0.000 A 
ATOM     14  C   UNL     1       5.191   4.587  16.081  0.00  0.00    +0.000 A 
ATOM     15  C   UNL     1       4.059   4.165  16.769  0.00  0.00    +0.000 A 
ATOM     16  C   UNL     1       3.294   5.086  17.497  0.00  0.00    +0.000 A 
ENDBRANCH   2  11
BRANCH   1  17
ATOM     17  C   UNL     1       2.426   6.062  20.363  0.00  0.00    +0.000 C 
BRANCH  17  18
ATOM     18  O   UNL     1       1.199   5.366  20.602  0.00  0.00    +0.000 OA
BRANCH  18  19
ATOM     19  C   UNL     1       1.272   4.012  20.614  0.00  0.00    +0.000 C 
ATOM     20  O   UNL     1       0.671   3.259  19.859  0.00  0.00    +0.000 OA
BRANCH  19  21
ATOM     21  C   UNL     1       2.229   3.538  21.676  0.00  0.00    +0.000 C 
BRANCH  21  22
ATOM     22  C   UNL     1       3.006   2.290  21.270  0.00  0.00    +0.000 C 
BRANCH  22  24
ATOM     23  C   UNL     1       3.631   1.541  18.946  0.00  0.00    +0.000 C 
ATOM     24  C   UNL     1       3.920   2.526  20.067  0.00  0.00    +0.000 C 
ENDBRANCH  22  24
ENDBRANCH  21  22
ENDBRANCH  19  21
ENDBRANCH  18  19
ENDBRANCH  17  18
ENDBRANCH   1  17
TORSDOF 7
ENDMDL
MODEL 9
REMARK VINA RESULT:      -7.0      3.027      5.382
REMARK  Name = 
REMARK  8 active torsions:
REMARK  status: ('A' for Active; 'I' for Inactive)
REMARK    1  A    between atoms: C_1  and  C_2
REMARK    2  A    between atoms: C_2  and  C_3
REMARK    3  A    between atoms: C_3  and  C_4
REMARK    4  A    between atoms: C_4  and  C_5
REMARK    5  A    between atoms: C_5  and  O_7
REMARK    6  A    between atoms: O_7  and  C_8
REMARK    7  A    between atoms: C_8  and  C_9
REMARK    8  A    between atoms: C_10  and  C_11
REMARK                            x       y       z     vdW  Elec       q    Type
REMARK                         _______ _______ _______ _____ _____    ______ ____
ROOT
ATOM      1  C   UNL     1       2.923   6.783  19.287  0.00  0.00    +0.000 A 
ATOM      2  C   UNL     1       3.448   6.960  17.982  0.00  0.00    +0.000 A 
ATOM      3  N   UNL     1       3.071   8.005  17.198  0.00  0.00    +0.000 NA
ATOM      4  C   UNL     1       2.154   8.871  17.681  0.00  0.00    +0.000 A 
ATOM      5  C   UNL     1       1.552   8.776  18.930  0.00  0.00    +0.000 A 
ATOM      6  C   UNL     1       0.587   9.715  19.355  0.00  0.00    +0.000 A 
ATOM      7  C   UNL     1      -0.013   9.612  20.606  0.00  0.00    +0.000 A 
ATOM      8  C   UNL     1       0.348   8.576  21.451  0.00  0.00    +0.000 A 
ATOM      9  C   UNL     1       1.311   7.651  21.041  0.00  0.00    +0.000 A 
ATOM     10  C   UNL     1       1.940   7.712  19.769  0.00  0.00    +0.000 A 
ENDROOT
BRANCH   2  11
ATOM     11  C   UNL     1       4.493   6.101  17.351  0.00  0.00    +0.000 A 
ATOM     12  C   UNL     1       5.841   6.489  17.258  0.00  0.00    +0.000 A 
ATOM     13  C   UNL     1       6.766   5.775  16.491  0.00  0.00    +0.000 A 
ATOM     14  C   UNL     1       6.392   4.579  15.892  0.00  0.00    +0.000 A 
ATOM     15  C   UNL     1       5.104   4.092  16.085  0.00  0.00    +0.000 A 
ATOM     16  C   UNL     1       4.164   4.850  16.796  0.00  0.00    +0.000 A 
ENDBRANCH   2  11
BRANCH   1  17
ATOM     17  C   UNL     1       3.402   5.665  20.189  0.00  0.00    +0.000 C 
BRANCH  17  18
ATOM     18  O   UNL     1       2.304   4.828  20.565  0.00  0.00    +0.000 OA
BRANCH  18  19
ATOM     19  C   UNL     1       2.617   3.565  20.947  0.00  0.00    +0.000 C 
ATOM     20  O   UNL     1       2.145   2.973  21.908  0.00  0.00    +0.000 OA
BRANCH  19  21
ATOM     21  C   UNL     1       3.620   2.956  20.002  0.00  0.00    +0.000 C 
BRANCH  21  22
ATOM     22  C   UNL     1       3.022   1.872  19.111  0.00  0.00    +0.000 C 
BRANCH  22  24
ATOM     23  C   UNL     1       0.580   2.341  18.697  0.00  0.00    +0.000 C 
ATOM     24  C   UNL     1       1.987   2.418  18.126  0.00  0.00    +0.000 C 
ENDBRANCH  22  24
ENDBRANCH  21  22
ENDBRANCH  19  21
ENDBRANCH  18  19
ENDBRANCH  17  18
ENDBRANCH   1  17
TORSDOF 7
ENDMDL
