MODEL 1
REMARK VINA RESULT:      -6.6      0.000      0.000
REMARK  Name = 
REMARK  6 active torsions:
REMARK  status: ('A' for Active; 'I' for Inactive)
REMARK    1  A    between atoms: C_1  and  O_2
REMARK    2  A    between atoms: O_2  and  C_3
REMARK    3  A    between atoms: C_7  and  N_8
REMARK    4  A    between atoms: C_19  and  C_20
REMARK    5  A    between atoms: C_19  and  C_21
REMARK    6  A    between atoms: C_25  and  O_26
REMARK                            x       y       z     vdW  Elec       q    Type
REMARK                         _______ _______ _______ _____ _____    ______ ____
ROOT
ATOM      1  N   UNL     1       0.733  10.451  19.360  0.00  0.00    +0.000 N 
ATOM      2  C   UNL     1      -0.221  10.779  18.402  0.00  0.00    +0.000 A 
ATOM      3  O   UNL     1      -0.728  10.044  17.559  0.00  0.00    +0.000 OA
ATOM      4  N   UNL     1      -0.715  12.087  18.655  0.00  0.00    +0.000 N 
ATOM      5  N   UNL     1       0.014  12.670  19.729  0.00  0.00    +0.000 N 
ATOM      6  C   UNL     1       0.802  11.523  20.282  0.00  0.00    +0.000 A 
ATOM      7  O   UNL     1       1.296  11.503  21.405  0.00  0.00    +0.000 OA
ATOM      8  C   UNL     1      -0.743  13.554  20.722  0.00  0.00    +0.000 C 
ATOM      9  C   UNL     1      -1.727  12.551  21.272  0.00  0.00    +0.000 C 
ATOM     10  C   UNL     1      -2.477  11.921  20.306  0.00  0.00    +0.000 C 
ATOM     11  C   UNL     1      -2.154  12.128  18.821  0.00  0.00    +0.000 C 
ATOM     12  C   UNL     1      -2.261  13.083  22.578  0.00  0.00    +0.000 C 
ATOM     13  C   UNL     1      -2.697  12.020  23.563  0.00  0.00    +0.000 C 
ATOM     14  C   UNL     1      -1.336  14.038  23.425  0.00  0.00    +0.000 C 
ATOM     15  O   UNL     1      -3.434  13.761  22.105  0.00  0.00    +0.000 OA
ATOM     16  C   UNL     1      -3.167  14.624  20.991  0.00  0.00    +0.000 A 
ATOM     17  C   UNL     1      -4.243  15.511  20.936  0.00  0.00    +0.000 A 
ATOM     18  C   UNL     1      -3.911  16.819  21.123  0.00  0.00    +0.000 A 
ATOM     19  C   UNL     1      -2.549  17.164  21.120  0.00  0.00    +0.000 A 
ATOM     20  C   UNL     1      -1.499  16.212  20.775  0.00  0.00    +0.000 A 
ATOM     21  C   UNL     1      -1.790  14.848  20.590  0.00  0.00    +0.000 A 
ENDROOT
BRANCH   1  26
ATOM     22  C   UNL     1       2.574   7.119  18.660  0.00  0.00    +0.000 A 
ATOM     23  C   UNL     1       2.332   6.418  19.850  0.00  0.00    +0.000 A 
ATOM     24  C   UNL     1       1.591   7.028  20.843  0.00  0.00    +0.000 A 
ATOM     25  C   UNL     1       1.094   8.330  20.654  0.00  0.00    +0.000 A 
ATOM     26  C   UNL     1       1.305   9.077  19.472  0.00  0.00    +0.000 A 
ATOM     27  C   UNL     1       2.059   8.431  18.474  0.00  0.00    +0.000 A 
BRANCH  22  29
ATOM     28  C   UNL     1       3.138   4.976  17.754  0.00  0.00    +0.000 C 
ATOM     29  O   UNL     1       3.351   6.378  17.813  0.00  0.00    +0.000 OA
ENDBRANCH  22  29
ENDBRANCH   1  26
BRANCH  18  30
ATOM     30  O   UNL     1      -4.876  17.709  21.474  0.00  0.00    +0.000 OA
ATOM     31  H   UNL     1      -4.678  18.595  21.082  0.00  0.00    +0.000 HD
ENDBRANCH  18  30
TORSDOF 3
ENDMDL
MODEL 2
REMARK VINA RESULT:      -6.6      3.535      5.220
REMARK  Name = 
REMARK  6 active torsions:
REMARK  status: ('A' for Active; 'I' for Inactive)
REMARK    1  A    between atoms: C_1  and  O_2
REMARK    2  A    between atoms: O_2  and  C_3
REMARK    3  A    between atoms: C_7  and  N_8
REMARK    4  A    between atoms: C_19  and  C_20
REMARK    5  A    between atoms: C_19  and  C_21
REMARK    6  A    between atoms: C_25  and  O_26
REMARK                            x       y       z     vdW  Elec       q    Type
REMARK                         _______ _______ _______ _____ _____    ______ ____
ROOT
ATOM      1  N   UNL     1       0.590  13.448  20.253  0.00  0.00    +0.000 N 
ATOM      2  C   UNL     1       0.353  12.247  20.913  0.00  0.00    +0.000 A 
ATOM      3  O   UNL     1       1.175  11.494  21.428  0.00  0.00    +0.000 OA
ATOM      4  N   UNL     1      -1.045  12.080  21.106  0.00  0.00    +0.000 N 
ATOM      5  N   UNL     1      -1.742  13.138  20.457  0.00  0.00    +0.000 N 
ATOM      6  C   UNL     1      -0.657  14.099  20.086  0.00  0.00    +0.000 A 
ATOM      7  O   UNL     1      -0.844  15.282  19.818  0.00  0.00    +0.000 OA
ATOM      8  C   UNL     1      -2.991  13.705  21.136  0.00  0.00    +0.000 C 
ATOM      9  C   UNL     1      -2.383  14.219  22.418  0.00  0.00    +0.000 C 
ATOM     10  C   UNL     1      -1.674  13.270  23.117  0.00  0.00    +0.000 C 
ATOM     11  C   UNL     1      -1.408  11.893  22.496  0.00  0.00    +0.000 C 
ATOM     12  C   UNL     1      -3.340  15.213  23.026  0.00  0.00    +0.000 C 
ATOM     13  C   UNL     1      -2.687  16.280  23.877  0.00  0.00    +0.000 C 
ATOM     14  C   UNL     1      -4.289  16.019  22.059  0.00  0.00    +0.000 C 
ATOM     15  O   UNL     1      -4.081  14.342  23.893  0.00  0.00    +0.000 OA
ATOM     16  C   UNL     1      -4.542  13.157  23.229  0.00  0.00    +0.000 A 
ATOM     17  C   UNL     1      -5.574  12.658  24.026  0.00  0.00    +0.000 A 
ATOM     18  C   UNL     1      -6.793  12.622  23.421  0.00  0.00    +0.000 A 
ATOM     19  C   UNL     1      -6.853  12.860  22.037  0.00  0.00    +0.000 A 
ATOM     20  C   UNL     1      -5.659  12.989  21.211  0.00  0.00    +0.000 A 
ATOM     21  C   UNL     1      -4.379  13.049  21.791  0.00  0.00    +0.000 A 
ENDROOT
BRANCH   1  26
ATOM     22  C   UNL     1       3.981  14.555  18.751  0.00  0.00    +0.000 A 
ATOM     23  C   UNL     1       4.623  15.079  19.882  0.00  0.00    +0.000 A 
ATOM     24  C   UNL     1       3.955  15.068  21.092  0.00  0.00    +0.000 A 
ATOM     25  C   UNL     1       2.655  14.538  21.175  0.00  0.00    +0.000 A 
ATOM     26  C   UNL     1       1.967  13.993  20.067  0.00  0.00    +0.000 A 
ATOM     27  C   UNL     1       2.671  14.012  18.847  0.00  0.00    +0.000 A 
BRANCH  22  29
ATOM     28  C   UNL     1       6.181  14.717  17.821  0.00  0.00    +0.000 C 
ATOM     29  O   UNL     1       4.773  14.685  17.644  0.00  0.00    +0.000 OA
ENDBRANCH  22  29
ENDBRANCH   1  26
BRANCH  18  30
ATOM     30  O   UNL     1      -7.915  12.532  24.183  0.00  0.00    +0.000 OA
ATOM     31  H   UNL     1      -8.471  13.340  24.063  0.00  0.00    +0.000 HD
ENDBRANCH  18  30
TORSDOF 3
ENDMDL
MODEL 3
REMARK VINA RESULT:      -6.5      4.488      6.279
REMARK  Name = 
REMARK  6 active torsions:
REMARK  status: ('A' for Active; 'I' for Inactive)
REMARK    1  A    between atoms: C_1  and  O_2
REMARK    2  A    between atoms: O_2  and  C_3
REMARK    3  A    between atoms: C_7  and  N_8
REMARK    4  A    between atoms: C_19  and  C_20
REMARK    5  A    between atoms: C_19  and  C_21
REMARK    6  A    between atoms: C_25  and  O_26
REMARK                            x       y       z     vdW  Elec       q    Type
REMARK                         _______ _______ _______ _____ _____    ______ ____
ROOT
ATOM      1  N   UNL     1       2.847  15.644  19.805  0.00  0.00    +0.000 N 
ATOM      2  C   UNL     1       1.768  16.345  19.276  0.00  0.00    +0.000 A 
ATOM      3  O   UNL     1       1.750  17.069  18.285  0.00  0.00    +0.000 OA
ATOM      4  N   UNL     1       0.575  15.946  19.937  0.00  0.00    +0.000 N 
ATOM      5  N   UNL     1       0.897  15.053  20.998  0.00  0.00    +0.000 N 
ATOM      6  C   UNL     1       2.340  14.732  20.761  0.00  0.00    +0.000 A 
ATOM      7  O   UNL     1       2.915  13.754  21.230  0.00  0.00    +0.000 OA
ATOM      8  C   UNL     1      -0.054  13.886  21.275  0.00  0.00    +0.000 C 
ATOM      9  C   UNL     1       0.038  13.154  19.959  0.00  0.00    +0.000 C 
ATOM     10  C   UNL     1      -0.246  13.938  18.866  0.00  0.00    +0.000 C 
ATOM     11  C   UNL     1      -0.440  15.451  19.030  0.00  0.00    +0.000 C 
ATOM     12  C   UNL     1      -0.456  11.745  20.171  0.00  0.00    +0.000 C 
ATOM     13  C   UNL     1       0.145  10.717  19.237  0.00  0.00    +0.000 C 
ATOM     14  C   UNL     1      -0.292  11.107  21.603  0.00  0.00    +0.000 C 
ATOM     15  O   UNL     1      -1.837  11.913  19.819  0.00  0.00    +0.000 OA
ATOM     16  C   UNL     1      -2.446  13.033  20.476  0.00  0.00    +0.000 A 
ATOM     17  C   UNL     1      -3.822  12.811  20.400  0.00  0.00    +0.000 A 
ATOM     18  C   UNL     1      -4.442  12.668  21.604  0.00  0.00    +0.000 A 
ATOM     19  C   UNL     1      -3.714  12.975  22.765  0.00  0.00    +0.000 A 
ATOM     20  C   UNL     1      -2.388  13.582  22.722  0.00  0.00    +0.000 A 
ATOM     21  C   UNL     1      -1.700  13.735  21.505  0.00  0.00    +0.000 A 
ENDROOT
BRANCH   1  26
ATOM     22  C   UNL     1       6.397  16.758  18.740  0.00  0.00    +0.000 A 
ATOM     23  C   UNL     1       6.799  15.672  17.948  0.00  0.00    +0.000 A 
ATOM     24  C   UNL     1       5.927  14.613  17.780  0.00  0.00    +0.000 A 
ATOM     25  C   UNL     1       4.663  14.635  18.394  0.00  0.00    +0.000 A 
ATOM     26  C   UNL     1       4.208  15.708  19.196  0.00  0.00    +0.000 A 
ATOM     27  C   UNL     1       5.113  16.775  19.349  0.00  0.00    +0.000 A 
BRANCH  22  29
ATOM     28  C   UNL     1       8.691  17.331  18.365  0.00  0.00    +0.000 C 
ATOM     29  O   UNL     1       7.396  17.687  18.824  0.00  0.00    +0.000 OA
ENDBRANCH  22  29
ENDBRANCH   1  26
BRANCH  18  30
ATOM     30  O   UNL     1      -5.665  12.077  21.659  0.00  0.00    +0.000 OA
ATOM     31  H   UNL     1      -5.724  11.358  20.984  0.00  0.00    +0.000 HD
ENDBRANCH  18  30
TORSDOF 3
ENDMDL
MODEL 4
REMARK VINA RESULT:      -6.5      1.993      2.536
REMARK  Name = 
REMARK  6 active torsions:
REMARK  status: ('A' for Active; 'I' for Inactive)
REMARK    1  A    between atoms: C_1  and  O_2
REMARK    2  A    between atoms: O_2  and  C_3
REMARK    3  A    between atoms: C_7  and  N_8
REMARK    4  A    between atoms: C_19  and  C_20
REMARK    5  A    between atoms: C_19  and  C_21
REMARK    6  A    between atoms: C_25  and  O_26
REMARK                            x       y       z     vdW  Elec       q    Type
REMARK                         _______ _______ _______ _____ _____    ______ ____
ROOT
ATOM      1  N   UNL     1      -0.882  11.789  20.487  0.00  0.00    +0.000 N 
ATOM      2  C   UNL     1      -1.925  12.028  19.598  0.00  0.00    +0.000 A 
ATOM      3  O   UNL     1      -2.345  11.290  18.711  0.00  0.00    +0.000 OA
ATOM      4  N   UNL     1      -2.615  13.208  19.985  0.00  0.00    +0.000 N 
ATOM      5  N   UNL     1      -1.939  13.816  21.080  0.00  0.00    +0.000 N 
ATOM      6  C   UNL     1      -0.945  12.778  21.498  0.00  0.00    +0.000 A 
ATOM      7  O   UNL     1      -0.398  12.749  22.597  0.00  0.00    +0.000 OA
ATOM      8  C   UNL     1      -2.781  14.474  22.175  0.00  0.00    +0.000 C 
ATOM      9  C   UNL     1      -3.555  13.277  22.667  0.00  0.00    +0.000 C 
ATOM     10  C   UNL     1      -4.239  12.611  21.677  0.00  0.00    +0.000 C 
ATOM     11  C   UNL     1      -4.030  12.992  20.206  0.00  0.00    +0.000 C 
ATOM     12  C   UNL     1      -4.103  13.602  24.034  0.00  0.00    +0.000 C 
ATOM     13  C   UNL     1      -4.307  12.404  24.936  0.00  0.00    +0.000 C 
ATOM     14  C   UNL     1      -3.307  14.627  24.930  0.00  0.00    +0.000 C 
ATOM     15  O   UNL     1      -5.395  14.109  23.668  0.00  0.00    +0.000 OA
ATOM     16  C   UNL     1      -5.331  15.093  22.626  0.00  0.00    +0.000 A 
ATOM     17  C   UNL     1      -6.540  15.787  22.691  0.00  0.00    +0.000 A 
ATOM     18  C   UNL     1      -6.421  17.112  22.982  0.00  0.00    +0.000 A 
ATOM     19  C   UNL     1      -5.136  17.681  22.960  0.00  0.00    +0.000 A 
ATOM     20  C   UNL     1      -3.962  16.952  22.493  0.00  0.00    +0.000 A 
ATOM     21  C   UNL     1      -4.032  15.579  22.197  0.00  0.00    +0.000 A 
ENDROOT
BRANCH   1  26
ATOM     22  C   UNL     1       1.473   8.902  19.438  0.00  0.00    +0.000 A 
ATOM     23  C   UNL     1       1.381   8.055  20.553  0.00  0.00    +0.000 A 
ATOM     24  C   UNL     1       0.573   8.431  21.609  0.00  0.00    +0.000 A 
ATOM     25  C   UNL     1      -0.140   9.642  21.556  0.00  0.00    +0.000 A 
ATOM     26  C   UNL     1      -0.086  10.527  20.455  0.00  0.00    +0.000 A 
ATOM     27  C   UNL     1       0.741  10.119  19.390  0.00  0.00    +0.000 A 
BRANCH  22  29
ATOM     28  C   UNL     1       2.694   7.018  18.607  0.00  0.00    +0.000 C 
ATOM     29  O   UNL     1       2.341   8.390  18.515  0.00  0.00    +0.000 OA
ENDBRANCH  22  29
ENDBRANCH   1  26
BRANCH  18  30
ATOM     30  O   UNL     1      -7.500  17.794  23.446  0.00  0.00    +0.000 OA
ATOM     31  H   UNL     1      -7.924  18.298  22.709  0.00  0.00    +0.000 HD
ENDBRANCH  18  30
TORSDOF 3
ENDMDL
MODEL 5
REMARK VINA RESULT:      -6.5      0.842      1.280
REMARK  Name = 
REMARK  6 active torsions:
REMARK  status: ('A' for Active; 'I' for Inactive)
REMARK    1  A    between atoms: C_1  and  O_2
REMARK    2  A    between atoms: O_2  and  C_3
REMARK    3  A    between atoms: C_7  and  N_8
REMARK    4  A    between atoms: C_19  and  C_20
REMARK    5  A    between atoms: C_19  and  C_21
REMARK    6  A    between atoms: C_25  and  O_26
REMARK                            x       y       z     vdW  Elec       q    Type
REMARK                         _______ _______ _______ _____ _____    ______ ____
ROOT
ATOM      1  N   UNL     1       0.758  10.514  19.106  0.00  0.00    +0.000 N 
ATOM      2  C   UNL     1      -0.271  10.810  18.218  0.00  0.00    +0.000 A 
ATOM      3  O   UNL     1      -0.803  10.063  17.403  0.00  0.00    +0.000 OA
ATOM      4  N   UNL     1      -0.799  12.095  18.518  0.00  0.00    +0.000 N 
ATOM      5  N   UNL     1      -0.023  12.698  19.548  0.00  0.00    +0.000 N 
ATOM      6  C   UNL     1       0.846  11.580  20.033  0.00  0.00    +0.000 A 
ATOM      7  O   UNL     1       1.416  11.571  21.121  0.00  0.00    +0.000 OA
ATOM      8  C   UNL     1      -0.746  13.543  20.599  0.00  0.00    +0.000 C 
ATOM      9  C   UNL     1      -1.649  12.495  21.202  0.00  0.00    +0.000 C 
ATOM     10  C   UNL     1      -2.437  11.844  20.282  0.00  0.00    +0.000 C 
ATOM     11  C   UNL     1      -2.223  12.077  18.781  0.00  0.00    +0.000 C 
ATOM     12  C   UNL     1      -2.115  12.995  22.546  0.00  0.00    +0.000 C 
ATOM     13  C   UNL     1      -2.441  11.907  23.547  0.00  0.00    +0.000 C 
ATOM     14  C   UNL     1      -1.174  13.980  23.340  0.00  0.00    +0.000 C 
ATOM     15  O   UNL     1      -3.343  13.629  22.161  0.00  0.00    +0.000 OA
ATOM     16  C   UNL     1      -3.187  14.511  21.041  0.00  0.00    +0.000 A 
ATOM     17  C   UNL     1      -4.298  15.355  21.069  0.00  0.00    +0.000 A 
ATOM     18  C   UNL     1      -4.007  16.673  21.247  0.00  0.00    +0.000 A 
ATOM     19  C   UNL     1      -2.663  17.073  21.157  0.00  0.00    +0.000 A 
ATOM     20  C   UNL     1      -1.602  16.167  20.732  0.00  0.00    +0.000 A 
ATOM     21  C   UNL     1      -1.849  14.794  20.551  0.00  0.00    +0.000 A 
ENDROOT
BRANCH   1  26
ATOM     22  C   UNL     1       1.895   6.983  20.212  0.00  0.00    +0.000 A 
ATOM     23  C   UNL     1       2.680   6.593  19.118  0.00  0.00    +0.000 A 
ATOM     24  C   UNL     1       2.823   7.466  18.056  0.00  0.00    +0.000 A 
ATOM     25  C   UNL     1       2.187   8.720  18.083  0.00  0.00    +0.000 A 
ATOM     26  C   UNL     1       1.390   9.163  19.165  0.00  0.00    +0.000 A 
ATOM     27  C   UNL     1       1.264   8.257  20.235  0.00  0.00    +0.000 A 
BRANCH  22  29
ATOM     28  C   UNL     1       2.245   4.680  20.762  0.00  0.00    +0.000 C 
ATOM     29  O   UNL     1       1.837   5.984  21.144  0.00  0.00    +0.000 OA
ENDBRANCH  22  29
ENDBRANCH   1  26
BRANCH  18  30
ATOM     30  O   UNL     1      -4.981  17.520  21.672  0.00  0.00    +0.000 OA
ATOM     31  H   UNL     1      -5.871  17.143  21.467  0.00  0.00    +0.000 HD
ENDBRANCH  18  30
TORSDOF 3
ENDMDL
MODEL 6
REMARK VINA RESULT:      -6.4      3.444      5.321
REMARK  Name = 
REMARK  6 active torsions:
REMARK  status: ('A' for Active; 'I' for Inactive)
REMARK    1  A    between atoms: C_1  and  O_2
REMARK    2  A    between atoms: O_2  and  C_3
REMARK    3  A    between atoms: C_7  and  N_8
REMARK    4  A    between atoms: C_19  and  C_20
REMARK    5  A    between atoms: C_19  and  C_21
REMARK    6  A    between atoms: C_25  and  O_26
REMARK                            x       y       z     vdW  Elec       q    Type
REMARK                         _______ _______ _______ _____ _____    ______ ____
ROOT
ATOM      1  N   UNL     1       0.537  13.187  20.112  0.00  0.00    +0.000 N 
ATOM      2  C   UNL     1       0.315  12.058  20.894  0.00  0.00    +0.000 A 
ATOM      3  O   UNL     1       1.148  11.364  21.472  0.00  0.00    +0.000 OA
ATOM      4  N   UNL     1      -1.079  11.906  21.123  0.00  0.00    +0.000 N 
ATOM      5  N   UNL     1      -1.791  12.889  20.379  0.00  0.00    +0.000 N 
ATOM      6  C   UNL     1      -0.715  13.812  19.897  0.00  0.00    +0.000 A 
ATOM      7  O   UNL     1      -0.912  14.961  19.513  0.00  0.00    +0.000 OA
ATOM      8  C   UNL     1      -3.033  13.518  21.014  0.00  0.00    +0.000 C 
ATOM      9  C   UNL     1      -2.411  14.162  22.228  0.00  0.00    +0.000 C 
ATOM     10  C   UNL     1      -1.688  13.293  23.010  0.00  0.00    +0.000 C 
ATOM     11  C   UNL     1      -1.423  11.861  22.529  0.00  0.00    +0.000 C 
ATOM     12  C   UNL     1      -3.365  15.209  22.745  0.00  0.00    +0.000 C 
ATOM     13  C   UNL     1      -2.707  16.360  23.474  0.00  0.00    +0.000 C 
ATOM     14  C   UNL     1      -4.332  15.908  21.714  0.00  0.00    +0.000 C 
ATOM     15  O   UNL     1      -4.090  14.428  23.706  0.00  0.00    +0.000 OA
ATOM     16  C   UNL     1      -4.554  13.180  23.173  0.00  0.00    +0.000 A 
ATOM     17  C   UNL     1      -5.572  12.761  24.031  0.00  0.00    +0.000 A 
ATOM     18  C   UNL     1      -6.799  12.658  23.449  0.00  0.00    +0.000 A 
ATOM     19  C   UNL     1      -6.879  12.754  22.049  0.00  0.00    +0.000 A 
ATOM     20  C   UNL     1      -5.696  12.803  21.198  0.00  0.00    +0.000 A 
ATOM     21  C   UNL     1      -4.409  12.926  21.751  0.00  0.00    +0.000 A 
ENDROOT
BRANCH   1  26
ATOM     22  C   UNL     1       4.056  14.751  20.501  0.00  0.00    +0.000 A 
ATOM     23  C   UNL     1       4.529  14.692  19.182  0.00  0.00    +0.000 A 
ATOM     24  C   UNL     1       3.713  14.151  18.206  0.00  0.00    +0.000 A 
ATOM     25  C   UNL     1       2.434  13.673  18.541  0.00  0.00    +0.000 A 
ATOM     26  C   UNL     1       1.908  13.715  19.853  0.00  0.00    +0.000 A 
ATOM     27  C   UNL     1       2.757  14.274  20.828  0.00  0.00    +0.000 A 
BRANCH  22  29
ATOM     28  C   UNL     1       6.368  15.194  20.936  0.00  0.00    +0.000 C 
ATOM     29  O   UNL     1       5.007  15.277  21.330  0.00  0.00    +0.000 OA
ENDBRANCH  22  29
ENDBRANCH   1  26
BRANCH  18  30
ATOM     30  O   UNL     1      -7.910  12.641  24.231  0.00  0.00    +0.000 OA
ATOM     31  H   UNL     1      -7.659  12.477  25.173  0.00  0.00    +0.000 HD
ENDBRANCH  18  30
TORSDOF 3
ENDMDL
MODEL 7
REMARK VINA RESULT:      -6.3      3.913      7.523
REMARK  Name = 
REMARK  6 active torsions:
REMARK  status: ('A' for Active; 'I' for Inactive)
REMARK    1  A    between atoms: C_1  and  O_2
REMARK    2  A    between atoms: O_2  and  C_3
REMARK    3  A    between atoms: C_7  and  N_8
REMARK    4  A    between atoms: C_19  and  C_20
REMARK    5  A    between atoms: C_19  and  C_21
REMARK    6  A    between atoms: C_25  and  O_26
REMARK                            x       y       z     vdW  Elec       q    Type
REMARK                         _______ _______ _______ _____ _____    ______ ____
ROOT
ATOM      1  N   UNL     1      -0.817  12.923  21.492  0.00  0.00    +0.000 N 
ATOM      2  C   UNL     1      -0.142  11.956  20.754  0.00  0.00    +0.000 A 
ATOM      3  O   UNL     1      -0.617  10.991  20.162  0.00  0.00    +0.000 OA
ATOM      4  N   UNL     1       1.214  12.345  20.592  0.00  0.00    +0.000 N 
ATOM      5  N   UNL     1       1.459  13.534  21.336  0.00  0.00    +0.000 N 
ATOM      6  C   UNL     1       0.089  13.981  21.743  0.00  0.00    +0.000 A 
ATOM      7  O   UNL     1      -0.186  15.123  22.101  0.00  0.00    +0.000 OA
ATOM      8  C   UNL     1       2.399  14.582  20.738  0.00  0.00    +0.000 C 
ATOM      9  C   UNL     1       1.643  14.927  19.479  0.00  0.00    +0.000 C 
ATOM     10  C   UNL     1       1.347  13.838  18.692  0.00  0.00    +0.000 C 
ATOM     11  C   UNL     1       1.622  12.419  19.204  0.00  0.00    +0.000 C 
ATOM     12  C   UNL     1       2.152  16.253  18.973  0.00  0.00    +0.000 C 
ATOM     13  C   UNL     1       1.145  17.057  18.182  0.00  0.00    +0.000 C 
ATOM     14  C   UNL     1       2.725  17.279  20.025  0.00  0.00    +0.000 C 
ATOM     15  O   UNL     1       3.169  15.797  18.068  0.00  0.00    +0.000 OA
ATOM     16  C   UNL     1       4.044  14.826  18.659  0.00  0.00    +0.000 A 
ATOM     17  C   UNL     1       5.189  14.818  17.860  0.00  0.00    +0.000 A 
ATOM     18  C   UNL     1       6.331  15.198  18.497  0.00  0.00    +0.000 A 
ATOM     19  C   UNL     1       6.295  15.332  19.896  0.00  0.00    +0.000 A 
ATOM     20  C   UNL     1       5.140  14.935  20.693  0.00  0.00    +0.000 A 
ATOM     21  C   UNL     1       3.933  14.552  20.080  0.00  0.00    +0.000 A 
ENDROOT
BRANCH   1  26
ATOM     22  C   UNL     1      -4.376  12.566  22.971  0.00  0.00    +0.000 A 
ATOM     23  C   UNL     1      -5.168  12.872  21.855  0.00  0.00    +0.000 A 
ATOM     24  C   UNL     1      -4.545  13.188  20.663  0.00  0.00    +0.000 A 
ATOM     25  C   UNL     1      -3.141  13.198  20.581  0.00  0.00    +0.000 A 
ATOM     26  C   UNL     1      -2.298  12.891  21.674  0.00  0.00    +0.000 A 
ATOM     27  C   UNL     1      -2.958  12.569  22.876  0.00  0.00    +0.000 A 
BRANCH  22  29
ATOM     28  C   UNL     1      -6.496  12.793  24.059  0.00  0.00    +0.000 C 
ATOM     29  O   UNL     1      -5.159  12.318  24.064  0.00  0.00    +0.000 OA
ENDBRANCH  22  29
ENDBRANCH   1  26
BRANCH  18  30
ATOM     30  O   UNL     1       7.403  15.598  17.765  0.00  0.00    +0.000 OA
ATOM     31  H   UNL     1       7.739  16.464  18.103  0.00  0.00    +0.000 HD
ENDBRANCH  18  30
TORSDOF 3
ENDMDL
MODEL 8
REMARK VINA RESULT:      -6.3      4.249      5.854
REMARK  Name = 
REMARK  6 active torsions:
REMARK  status: ('A' for Active; 'I' for Inactive)
REMARK    1  A    between atoms: C_1  and  O_2
REMARK    2  A    between atoms: O_2  and  C_3
REMARK    3  A    between atoms: C_7  and  N_8
REMARK    4  A    between atoms: C_19  and  C_20
REMARK    5  A    between atoms: C_19  and  C_21
REMARK    6  A    between atoms: C_25  and  O_26
REMARK                            x       y       z     vdW  Elec       q    Type
REMARK                         _______ _______ _______ _____ _____    ______ ____
ROOT
ATOM      1  N   UNL     1       2.810  15.692  20.070  0.00  0.00    +0.000 N 
ATOM      2  C   UNL     1       1.746  16.351  19.463  0.00  0.00    +0.000 A 
ATOM      3  O   UNL     1       1.761  17.028  18.439  0.00  0.00    +0.000 OA
ATOM      4  N   UNL     1       0.531  15.966  20.092  0.00  0.00    +0.000 N 
ATOM      5  N   UNL     1       0.819  15.128  21.206  0.00  0.00    +0.000 N 
ATOM      6  C   UNL     1       2.275  14.818  21.046  0.00  0.00    +0.000 A 
ATOM      7  O   UNL     1       2.843  13.872  21.584  0.00  0.00    +0.000 OA
ATOM      8  C   UNL     1      -0.127  13.961  21.498  0.00  0.00    +0.000 C 
ATOM      9  C   UNL     1       0.030  13.170  20.223  0.00  0.00    +0.000 C 
ATOM     10  C   UNL     1      -0.217  13.897  19.083  0.00  0.00    +0.000 C 
ATOM     11  C   UNL     1      -0.437  15.413  19.167  0.00  0.00    +0.000 C 
ATOM     12  C   UNL     1      -0.454  11.764  20.480  0.00  0.00    +0.000 C 
ATOM     13  C   UNL     1       0.200  10.704  19.622  0.00  0.00    +0.000 C 
ATOM     14  C   UNL     1      -0.343  11.196  21.947  0.00  0.00    +0.000 C 
ATOM     15  O   UNL     1      -1.820  11.895  20.063  0.00  0.00    +0.000 OA
ATOM     16  C   UNL     1      -2.472  13.035  20.640  0.00  0.00    +0.000 A 
ATOM     17  C   UNL     1      -3.840  12.789  20.517  0.00  0.00    +0.000 A 
ATOM     18  C   UNL     1      -4.509  12.693  21.699  0.00  0.00    +0.000 A 
ATOM     19  C   UNL     1      -3.835  13.065  22.874  0.00  0.00    +0.000 A 
ATOM     20  C   UNL     1      -2.517  13.689  22.858  0.00  0.00    +0.000 A 
ATOM     21  C   UNL     1      -1.780  13.796  21.666  0.00  0.00    +0.000 A 
ENDROOT
BRANCH   1  26
ATOM     22  C   UNL     1       6.126  14.865  18.252  0.00  0.00    +0.000 A 
ATOM     23  C   UNL     1       6.883  16.014  18.527  0.00  0.00    +0.000 A 
ATOM     24  C   UNL     1       6.312  17.022  19.281  0.00  0.00    +0.000 A 
ATOM     25  C   UNL     1       4.997  16.887  19.760  0.00  0.00    +0.000 A 
ATOM     26  C   UNL     1       4.196  15.748  19.516  0.00  0.00    +0.000 A 
ATOM     27  C   UNL     1       4.801  14.734  18.749  0.00  0.00    +0.000 A 
BRANCH  22  29
ATOM     28  C   UNL     1       8.140  13.625  17.880  0.00  0.00    +0.000 C 
ATOM     29  O   UNL     1       6.835  13.999  17.467  0.00  0.00    +0.000 OA
ENDBRANCH  22  29
ENDBRANCH   1  26
BRANCH  18  30
ATOM     30  O   UNL     1      -5.725  12.087  21.730  0.00  0.00    +0.000 OA
ATOM     31  H   UNL     1      -5.994  11.820  20.818  0.00  0.00    +0.000 HD
ENDBRANCH  18  30
TORSDOF 3
ENDMDL
MODEL 9
REMARK VINA RESULT:      -6.3      2.303      3.281
REMARK  Name = 
REMARK  6 active torsions:
REMARK  status: ('A' for Active; 'I' for Inactive)
REMARK    1  A    between atoms: C_1  and  O_2
REMARK    2  A    between atoms: O_2  and  C_3
REMARK    3  A    between atoms: C_7  and  N_8
REMARK    4  A    between atoms: C_19  and  C_20
REMARK    5  A    between atoms: C_19  and  C_21
REMARK    6  A    between atoms: C_25  and  O_26
REMARK                            x       y       z     vdW  Elec       q    Type
REMARK                         _______ _______ _______ _____ _____    ______ ____
ROOT
ATOM      1  N   UNL     1      -0.114  11.943  21.865  0.00  0.00    +0.000 N 
ATOM      2  C   UNL     1       0.135  13.214  21.358  0.00  0.00    +0.000 A 
ATOM      3  O   UNL     1       0.792  13.516  20.366  0.00  0.00    +0.000 OA
ATOM      4  N   UNL     1      -0.668  14.163  22.046  0.00  0.00    +0.000 N 
ATOM      5  N   UNL     1      -1.370  13.514  23.101  0.00  0.00    +0.000 N 
ATOM      6  C   UNL     1      -1.140  12.060  22.834  0.00  0.00    +0.000 A 
ATOM      7  O   UNL     1      -1.832  11.156  23.292  0.00  0.00    +0.000 OA
ATOM      8  C   UNL     1      -2.802  13.963  23.401  0.00  0.00    +0.000 C 
ATOM      9  C   UNL     1      -3.462  13.634  22.085  0.00  0.00    +0.000 C 
ATOM     10  C   UNL     1      -2.848  14.208  20.996  0.00  0.00    +0.000 C 
ATOM     11  C   UNL     1      -1.511  14.941  21.162  0.00  0.00    +0.000 C 
ATOM     12  C   UNL     1      -4.952  13.570  22.309  0.00  0.00    +0.000 C 
ATOM     13  C   UNL     1      -5.695  12.651  21.365  0.00  0.00    +0.000 C 
ATOM     14  C   UNL     1      -5.471  13.154  23.739  0.00  0.00    +0.000 C 
ATOM     15  O   UNL     1      -5.307  14.922  21.988  0.00  0.00    +0.000 OA
ATOM     16  C   UNL     1      -4.483  15.888  22.655  0.00  0.00    +0.000 A 
ATOM     17  C   UNL     1      -5.197  17.086  22.609  0.00  0.00    +0.000 A 
ATOM     18  C   UNL     1      -5.547  17.587  23.826  0.00  0.00    +0.000 A 
ATOM     19  C   UNL     1      -4.982  17.001  24.971  0.00  0.00    +0.000 A 
ATOM     20  C   UNL     1      -3.930  15.993  24.899  0.00  0.00    +0.000 A 
ATOM     21  C   UNL     1      -3.546  15.433  23.667  0.00  0.00    +0.000 A 
ENDROOT
BRANCH   1  26
ATOM     22  C   UNL     1       1.183   9.337  19.313  0.00  0.00    +0.000 A 
ATOM     23  C   UNL     1       1.518   8.269  20.159  0.00  0.00    +0.000 A 
ATOM     24  C   UNL     1       1.325   8.412  21.519  0.00  0.00    +0.000 A 
ATOM     25  C   UNL     1       0.800   9.610  22.036  0.00  0.00    +0.000 A 
ATOM     26  C   UNL     1       0.440  10.712  21.226  0.00  0.00    +0.000 A 
ATOM     27  C   UNL     1       0.644  10.540  19.844  0.00  0.00    +0.000 A 
BRANCH  22  29
ATOM     28  C   UNL     1       2.543   8.132  17.755  0.00  0.00    +0.000 C 
ATOM     29  O   UNL     1       1.476   9.032  18.013  0.00  0.00    +0.000 OA
ENDBRANCH  22  29
ENDBRANCH   1  26
BRANCH  18  30
ATOM     30  O   UNL     1      -6.546  18.505  23.909  0.00  0.00    +0.000 OA
ATOM     31  H   UNL     1      -6.381  19.117  24.667  0.00  0.00    +0.000 HD
ENDBRANCH  18  30
TORSDOF 3
ENDMDL
