MODEL 1
REMARK VINA RESULT:      -8.5      0.000      0.000
REMARK  Name = 
REMARK  7 active torsions:
REMARK  status: ('A' for Active; 'I' for Inactive)
REMARK    1  A    between atoms: C_2  and  O_3
REMARK    2  A    between atoms: C_2  and  C_4
REMARK    3  A    between atoms: C_4  and  N_5
REMARK    4  A    between atoms: N_5  and  C_6
REMARK    5  A    between atoms: C_6  and  C_7
REMARK    6  A    between atoms: N_14  and  C_15
REMARK    7  A    between atoms: C_19  and  C_20
REMARK                            x       y       z     vdW  Elec       q    Type
REMARK                         _______ _______ _______ _____ _____    ______ ____
ROOT
ATOM      1  C   UNL     1      -1.203  11.627  19.541  0.00  0.00    +0.000 A 
ATOM      2  C   UNL     1      -0.886  12.448  20.639  0.00  0.00    +0.000 A 
ATOM      3  C   UNL     1      -0.098  11.983  21.695  0.00  0.00    +0.000 A 
ATOM      4  C   UNL     1       0.368  10.678  21.580  0.00  0.00    +0.000 A 
ATOM      5  O   UNL     1       1.179  10.045  22.463  0.00  0.00    +0.000 OA
ATOM      6  N   UNL     1       1.484   8.789  21.983  0.00  0.00    +0.000 NA
ATOM      7  C   UNL     1       0.838   8.659  20.815  0.00  0.00    +0.000 A 
ATOM      8  N   UNL     1       0.899   7.592  19.975  0.00  0.00    +0.000 N 
ATOM      9  C   UNL     1       0.091   9.831  20.522  0.00  0.00    +0.000 A 
ATOM     10  C   UNL     1      -0.724  10.305  19.480  0.00  0.00    +0.000 A 
ATOM     11  H   UNL     1       0.069   7.308  19.461  0.00  0.00    +0.000 HD
ENDROOT
BRANCH   8  12
ATOM     12  C   UNL     1       1.934   6.619  19.936  0.00  0.00    +0.000 A 
ATOM     13  C   UNL     1       1.875   5.522  20.807  0.00  0.00    +0.000 A 
ATOM     14  C   UNL     1       2.782   4.481  20.702  0.00  0.00    +0.000 A 
ATOM     15  C   UNL     1       3.734   4.502  19.686  0.00  0.00    +0.000 A 
ATOM     16  C   UNL     1       3.866   5.588  18.787  0.00  0.00    +0.000 A 
ATOM     17  C   UNL     1       2.970   6.673  18.970  0.00  0.00    +0.000 A 
ATOM     18 CL   UNL     1       3.114   8.167  18.079  0.00  0.00    +0.000 Cl
BRANCH  16  19
ATOM     19  C   UNL     1       4.907   5.497  17.719  0.00  0.00    +0.000 A 
ATOM     20  C   UNL     1       6.186   6.073  17.858  0.00  0.00    +0.000 A 
ATOM     21  C   UNL     1       7.159   5.964  16.857  0.00  0.00    +0.000 A 
ATOM     22  C   UNL     1       6.853   5.337  15.657  0.00  0.00    +0.000 A 
ATOM     23  C   UNL     1       5.585   4.793  15.470  0.00  0.00    +0.000 A 
ATOM     24  C   UNL     1       4.630   4.869  16.488  0.00  0.00    +0.000 A 
ATOM     25  O   UNL     1       5.193   4.179  14.308  0.00  0.00    +0.000 OA
ATOM     26  C   UNL     1       6.321   3.826  13.503  0.00  0.00    +0.000 C 
ATOM     27  C   UNL     1       7.314   4.975  13.419  0.00  0.00    +0.000 C 
ATOM     28  O   UNL     1       7.844   5.290  14.712  0.00  0.00    +0.000 OA
ENDBRANCH  16  19
ENDBRANCH   8  12
BRANCH   1  29
ATOM     29  C   UNL     1      -2.054  12.169  18.416  0.00  0.00    +0.000 C 
BRANCH  29  30
ATOM     30  N   UNL     1      -1.676  11.633  17.101  0.00  0.00    +0.000 NA
ATOM     31  H   UNL     1      -1.210  12.399  16.600  0.00  0.00    +0.000 HD
BRANCH  30  32
ATOM     32  C   UNL     1      -2.890  11.271  16.314  0.00  0.00    +0.000 C 
BRANCH  32  34
ATOM     33  O   UNL     1      -3.506   9.345  17.676  0.00  0.00    +0.000 OA
ATOM     34  C   UNL     1      -3.807  10.426  17.194  0.00  0.00    +0.000 C 
BRANCH  34  35
ATOM     35  O   UNL     1      -5.020  11.007  17.356  0.00  0.00    +0.000 OA
ATOM     36  H   UNL     1      -4.913  11.702  18.050  0.00  0.00    +0.000 HD
ENDBRANCH  34  35
ENDBRANCH  32  34
ENDBRANCH  30  32
ENDBRANCH  29  30
ENDBRANCH   1  29
TORSDOF 7
ENDMDL
MODEL 2
REMARK VINA RESULT:      -8.4      3.232      9.421
REMARK  Name = 
REMARK  7 active torsions:
REMARK  status: ('A' for Active; 'I' for Inactive)
REMARK    1  A    between atoms: C_2  and  O_3
REMARK    2  A    between atoms: C_2  and  C_4
REMARK    3  A    between atoms: C_4  and  N_5
REMARK    4  A    between atoms: N_5  and  C_6
REMARK    5  A    between atoms: C_6  and  C_7
REMARK    6  A    between atoms: N_14  and  C_15
REMARK    7  A    between atoms: C_19  and  C_20
REMARK                            x       y       z     vdW  Elec       q    Type
REMARK                         _______ _______ _______ _____ _____    ______ ____
ROOT
ATOM      1  C   UNL     1       3.810   4.035  17.104  0.00  0.00    +0.000 A 
ATOM      2  C   UNL     1       3.187   2.816  17.430  0.00  0.00    +0.000 A 
ATOM      3  C   UNL     1       2.308   2.711  18.512  0.00  0.00    +0.000 A 
ATOM      4  C   UNL     1       2.072   3.882  19.222  0.00  0.00    +0.000 A 
ATOM      5  O   UNL     1       1.227   4.016  20.273  0.00  0.00    +0.000 OA
ATOM      6  N   UNL     1       1.203   5.334  20.676  0.00  0.00    +0.000 NA
ATOM      7  C   UNL     1       2.054   5.993  19.876  0.00  0.00    +0.000 A 
ATOM      8  N   UNL     1       2.302   7.330  19.890  0.00  0.00    +0.000 N 
ATOM      9  C   UNL     1       2.654   5.106  18.942  0.00  0.00    +0.000 A 
ATOM     10  C   UNL     1       3.555   5.190  17.867  0.00  0.00    +0.000 A 
ATOM     11  H   UNL     1       3.242   7.669  19.701  0.00  0.00    +0.000 HD
ENDROOT
BRANCH   8  12
ATOM     12  C   UNL     1       1.450   8.331  20.429  0.00  0.00    +0.000 A 
ATOM     13  C   UNL     1       0.817   8.102  21.658  0.00  0.00    +0.000 A 
ATOM     14  C   UNL     1       0.097   9.104  22.285  0.00  0.00    +0.000 A 
ATOM     15  C   UNL     1       0.043  10.372  21.710  0.00  0.00    +0.000 A 
ATOM     16  C   UNL     1       0.637  10.666  20.459  0.00  0.00    +0.000 A 
ATOM     17  C   UNL     1       1.303   9.596  19.807  0.00  0.00    +0.000 A 
ATOM     18 CL   UNL     1       1.925   9.732  18.181  0.00  0.00    +0.000 Cl
BRANCH  16  19
ATOM     19  C   UNL     1       0.539  12.066  19.944  0.00  0.00    +0.000 A 
ATOM     20  C   UNL     1      -0.495  12.483  19.082  0.00  0.00    +0.000 A 
ATOM     21  C   UNL     1      -0.586  13.802  18.621  0.00  0.00    +0.000 A 
ATOM     22  C   UNL     1       0.397  14.723  18.953  0.00  0.00    +0.000 A 
ATOM     23  C   UNL     1       1.456  14.333  19.769  0.00  0.00    +0.000 A 
ATOM     24  C   UNL     1       1.521  13.026  20.260  0.00  0.00    +0.000 A 
ATOM     25  O   UNL     1       2.481  15.172  20.125  0.00  0.00    +0.000 OA
ATOM     26  C   UNL     1       2.133  16.540  19.898  0.00  0.00    +0.000 C 
ATOM     27  C   UNL     1       1.487  16.720  18.532  0.00  0.00    +0.000 C 
ATOM     28  O   UNL     1       0.259  15.988  18.446  0.00  0.00    +0.000 OA
ENDBRANCH  16  19
ENDBRANCH   8  12
BRANCH   1  29
ATOM     29  C   UNL     1       4.750   4.108  15.923  0.00  0.00    +0.000 C 
BRANCH  29  30
ATOM     30  N   UNL     1       6.125   3.710  16.260  0.00  0.00    +0.000 NA
ATOM     31  H   UNL     1       6.094   3.354  17.222  0.00  0.00    +0.000 HD
BRANCH  30  32
ATOM     32  C   UNL     1       7.028   4.897  16.261  0.00  0.00    +0.000 C 
BRANCH  32  34
ATOM     33  O   UNL     1       7.829   6.315  18.074  0.00  0.00    +0.000 OA
ATOM     34  C   UNL     1       7.376   5.243  17.706  0.00  0.00    +0.000 C 
BRANCH  34  35
ATOM     35  O   UNL     1       7.149   4.200  18.539  0.00  0.00    +0.000 OA
ATOM     36  H   UNL     1       7.537   3.399  18.107  0.00  0.00    +0.000 HD
ENDBRANCH  34  35
ENDBRANCH  32  34
ENDBRANCH  30  32
ENDBRANCH  29  30
ENDBRANCH   1  29
TORSDOF 7
ENDMDL
MODEL 3
REMARK VINA RESULT:      -8.1      1.095      1.267
REMARK  Name = 
REMARK  7 active torsions:
REMARK  status: ('A' for Active; 'I' for Inactive)
REMARK    1  A    between atoms: C_2  and  O_3
REMARK    2  A    between atoms: C_2  and  C_4
REMARK    3  A    between atoms: C_4  and  N_5
REMARK    4  A    between atoms: N_5  and  C_6
REMARK    5  A    between atoms: C_6  and  C_7
REMARK    6  A    between atoms: N_14  and  C_15
REMARK    7  A    between atoms: C_19  and  C_20
REMARK                            x       y       z     vdW  Elec       q    Type
REMARK                         _______ _______ _______ _____ _____    ______ ____
ROOT
ATOM      1  C   UNL     1      -1.359  11.467  19.513  0.00  0.00    +0.000 A 
ATOM      2  C   UNL     1      -1.023  12.335  20.568  0.00  0.00    +0.000 A 
ATOM      3  C   UNL     1      -0.188  11.927  21.612  0.00  0.00    +0.000 A 
ATOM      4  C   UNL     1       0.303  10.630  21.529  0.00  0.00    +0.000 A 
ATOM      5  O   UNL     1       1.159  10.049  22.406  0.00  0.00    +0.000 OA
ATOM      6  N   UNL     1       1.476   8.783  21.962  0.00  0.00    +0.000 NA
ATOM      7  C   UNL     1       0.793   8.594  20.823  0.00  0.00    +0.000 A 
ATOM      8  N   UNL     1       0.850   7.498  20.021  0.00  0.00    +0.000 N 
ATOM      9  C   UNL     1       0.009   9.738  20.513  0.00  0.00    +0.000 A 
ATOM     10  C   UNL     1      -0.852  10.154  19.483  0.00  0.00    +0.000 A 
ATOM     11  H   UNL     1       0.009   7.177  19.547  0.00  0.00    +0.000 HD
ENDROOT
BRANCH   8  12
ATOM     12  C   UNL     1       1.904   6.547  19.982  0.00  0.00    +0.000 A 
ATOM     13  C   UNL     1       1.873   5.453  20.857  0.00  0.00    +0.000 A 
ATOM     14  C   UNL     1       2.801   4.431  20.753  0.00  0.00    +0.000 A 
ATOM     15  C   UNL     1       3.748   4.467  19.733  0.00  0.00    +0.000 A 
ATOM     16  C   UNL     1       3.853   5.552  18.829  0.00  0.00    +0.000 A 
ATOM     17  C   UNL     1       2.935   6.619  19.011  0.00  0.00    +0.000 A 
ATOM     18 CL   UNL     1       3.044   8.111  18.112  0.00  0.00    +0.000 Cl
BRANCH  16  19
ATOM     19  C   UNL     1       4.891   5.478  17.757  0.00  0.00    +0.000 A 
ATOM     20  C   UNL     1       6.170   6.053  17.901  0.00  0.00    +0.000 A 
ATOM     21  C   UNL     1       7.140   5.961  16.895  0.00  0.00    +0.000 A 
ATOM     22  C   UNL     1       6.832   5.352  15.687  0.00  0.00    +0.000 A 
ATOM     23  C   UNL     1       5.563   4.811  15.495  0.00  0.00    +0.000 A 
ATOM     24  C   UNL     1       4.611   4.869  16.516  0.00  0.00    +0.000 A 
ATOM     25  O   UNL     1       5.168   4.214  14.324  0.00  0.00    +0.000 OA
ATOM     26  C   UNL     1       6.295   3.874  13.511  0.00  0.00    +0.000 C 
ATOM     27  C   UNL     1       7.287   5.026  13.442  0.00  0.00    +0.000 C 
ATOM     28  O   UNL     1       7.820   5.321  14.738  0.00  0.00    +0.000 OA
ENDBRANCH  16  19
ENDBRANCH   8  12
BRANCH   1  29
ATOM     29  C   UNL     1      -2.260  11.947  18.399  0.00  0.00    +0.000 C 
BRANCH  29  30
ATOM     30  N   UNL     1      -3.561  12.431  18.883  0.00  0.00    +0.000 NA
ATOM     31  H   UNL     1      -3.562  12.287  19.900  0.00  0.00    +0.000 HD
BRANCH  30  32
ATOM     32  C   UNL     1      -4.668  11.604  18.323  0.00  0.00    +0.000 C 
BRANCH  32  34
ATOM     33  O   UNL     1      -6.898  11.047  19.135  0.00  0.00    +0.000 OA
ATOM     34  C   UNL     1      -5.822  11.592  19.322  0.00  0.00    +0.000 C 
BRANCH  34  35
ATOM     35  O   UNL     1      -5.520  12.290  20.443  0.00  0.00    +0.000 OA
ATOM     36  H   UNL     1      -4.599  12.038  20.698  0.00  0.00    +0.000 HD
ENDBRANCH  34  35
ENDBRANCH  32  34
ENDBRANCH  30  32
ENDBRANCH  29  30
ENDBRANCH   1  29
TORSDOF 7
ENDMDL
MODEL 4
REMARK VINA RESULT:      -8.1      3.081      9.473
REMARK  Name = 
REMARK  7 active torsions:
REMARK  status: ('A' for Active; 'I' for Inactive)
REMARK    1  A    between atoms: C_2  and  O_3
REMARK    2  A    between atoms: C_2  and  C_4
REMARK    3  A    between atoms: C_4  and  N_5
REMARK    4  A    between atoms: N_5  and  C_6
REMARK    5  A    between atoms: C_6  and  C_7
REMARK    6  A    between atoms: N_14  and  C_15
REMARK    7  A    between atoms: C_19  and  C_20
REMARK                            x       y       z     vdW  Elec       q    Type
REMARK                         _______ _______ _______ _____ _____    ______ ____
ROOT
ATOM      1  C   UNL     1       3.545   3.882  17.225  0.00  0.00    +0.000 A 
ATOM      2  C   UNL     1       2.912   2.685  17.608  0.00  0.00    +0.000 A 
ATOM      3  C   UNL     1       2.083   2.624  18.731  0.00  0.00    +0.000 A 
ATOM      4  C   UNL     1       1.906   3.816  19.424  0.00  0.00    +0.000 A 
ATOM      5  O   UNL     1       1.114   3.991  20.511  0.00  0.00    +0.000 OA
ATOM      6  N   UNL     1       1.138   5.318  20.883  0.00  0.00    +0.000 NA
ATOM      7  C   UNL     1       1.964   5.940  20.029  0.00  0.00    +0.000 A 
ATOM      8  N   UNL     1       2.241   7.271  20.000  0.00  0.00    +0.000 N 
ATOM      9  C   UNL     1       2.501   5.020  19.090  0.00  0.00    +0.000 A 
ATOM     10  C   UNL     1       3.352   5.059  17.972  0.00  0.00    +0.000 A 
ATOM     11  H   UNL     1       3.178   7.585  19.761  0.00  0.00    +0.000 HD
ENDROOT
BRANCH   8  12
ATOM     12  C   UNL     1       1.437   8.303  20.555  0.00  0.00    +0.000 A 
ATOM     13  C   UNL     1       0.901   8.138  21.840  0.00  0.00    +0.000 A 
ATOM     14  C   UNL     1       0.236   9.175  22.471  0.00  0.00    +0.000 A 
ATOM     15  C   UNL     1       0.141  10.413  21.841  0.00  0.00    +0.000 A 
ATOM     16  C   UNL     1       0.637  10.643  20.535  0.00  0.00    +0.000 A 
ATOM     17  C   UNL     1       1.246   9.538  19.885  0.00  0.00    +0.000 A 
ATOM     18 CL   UNL     1       1.739   9.591  18.212  0.00  0.00    +0.000 Cl
BRANCH  16  19
ATOM     19  C   UNL     1       0.502  12.017  19.962  0.00  0.00    +0.000 A 
ATOM     20  C   UNL     1      -0.423  12.325  18.945  0.00  0.00    +0.000 A 
ATOM     21  C   UNL     1      -0.552  13.620  18.429  0.00  0.00    +0.000 A 
ATOM     22  C   UNL     1       0.294  14.628  18.867  0.00  0.00    +0.000 A 
ATOM     23  C   UNL     1       1.250  14.349  19.841  0.00  0.00    +0.000 A 
ATOM     24  C   UNL     1       1.347  13.064  20.382  0.00  0.00    +0.000 A 
ATOM     25  O   UNL     1       2.140  15.280  20.312  0.00  0.00    +0.000 OA
ATOM     26  C   UNL     1       1.720  16.608  19.988  0.00  0.00    +0.000 C 
ATOM     27  C   UNL     1       1.269  16.700  18.538  0.00  0.00    +0.000 C 
ATOM     28  O   UNL     1       0.131  15.865  18.301  0.00  0.00    +0.000 OA
ENDBRANCH  16  19
ENDBRANCH   8  12
BRANCH   1  29
ATOM     29  C   UNL     1       4.431   3.908  16.000  0.00  0.00    +0.000 C 
BRANCH  29  30
ATOM     30  N   UNL     1       5.806   3.470  16.278  0.00  0.00    +0.000 NA
ATOM     31  H   UNL     1       5.831   3.212  17.272  0.00  0.00    +0.000 HD
BRANCH  30  32
ATOM     32  C   UNL     1       6.761   4.601  16.095  0.00  0.00    +0.000 C 
BRANCH  32  34
ATOM     33  O   UNL     1       7.829   5.565  14.127  0.00  0.00    +0.000 OA
ATOM     34  C   UNL     1       7.139   4.686  14.619  0.00  0.00    +0.000 C 
BRANCH  34  35
ATOM     35  O   UNL     1       6.588   3.677  13.903  0.00  0.00    +0.000 OA
ATOM     36  H   UNL     1       7.331   3.218  13.438  0.00  0.00    +0.000 HD
ENDBRANCH  34  35
ENDBRANCH  32  34
ENDBRANCH  30  32
ENDBRANCH  29  30
ENDBRANCH   1  29
TORSDOF 7
ENDMDL
MODEL 5
REMARK VINA RESULT:      -8.1      3.197     10.638
REMARK  Name = 
REMARK  7 active torsions:
REMARK  status: ('A' for Active; 'I' for Inactive)
REMARK    1  A    between atoms: C_2  and  O_3
REMARK    2  A    between atoms: C_2  and  C_4
REMARK    3  A    between atoms: C_4  and  N_5
REMARK    4  A    between atoms: N_5  and  C_6
REMARK    5  A    between atoms: C_6  and  C_7
REMARK    6  A    between atoms: N_14  and  C_15
REMARK    7  A    between atoms: C_19  and  C_20
REMARK                            x       y       z     vdW  Elec       q    Type
REMARK                         _______ _______ _______ _____ _____    ______ ____
ROOT
ATOM      1  C   UNL     1       3.917   6.182  17.781  0.00  0.00    +0.000 A 
ATOM      2  C   UNL     1       3.804   5.242  18.822  0.00  0.00    +0.000 A 
ATOM      3  C   UNL     1       2.999   5.481  19.939  0.00  0.00    +0.000 A 
ATOM      4  C   UNL     1       2.304   6.685  19.943  0.00  0.00    +0.000 A 
ATOM      5  O   UNL     1       1.439   7.098  20.902  0.00  0.00    +0.000 OA
ATOM      6  N   UNL     1       0.893   8.309  20.533  0.00  0.00    +0.000 NA
ATOM      7  C   UNL     1       1.448   8.636  19.357  0.00  0.00    +0.000 A 
ATOM      8  N   UNL     1       1.158   9.732  18.606  0.00  0.00    +0.000 N 
ATOM      9  C   UNL     1       2.376   7.642  18.946  0.00  0.00    +0.000 A 
ATOM     10  C   UNL     1       3.209   7.398  17.841  0.00  0.00    +0.000 A 
ATOM     11  H   UNL     1       1.899  10.196  18.086  0.00  0.00    +0.000 HD
ENDROOT
BRANCH   8  12
ATOM     12  C   UNL     1      -0.032  10.503  18.680  0.00  0.00    +0.000 A 
ATOM     13  C   UNL     1      -1.085  10.225  17.798  0.00  0.00    +0.000 A 
ATOM     14  C   UNL     1      -2.311  10.854  17.932  0.00  0.00    +0.000 A 
ATOM     15  C   UNL     1      -2.516  11.738  18.989  0.00  0.00    +0.000 A 
ATOM     16  C   UNL     1      -1.491  12.084  19.902  0.00  0.00    +0.000 A 
ATOM     17  C   UNL     1      -0.224  11.479  19.690  0.00  0.00    +0.000 A 
ATOM     18 CL   UNL     1       1.194  11.935  20.601  0.00  0.00    +0.000 Cl
BRANCH  16  19
ATOM     19  C   UNL     1      -1.824  13.026  21.013  0.00  0.00    +0.000 A 
ATOM     20  C   UNL     1      -2.205  12.580  22.294  0.00  0.00    +0.000 A 
ATOM     21  C   UNL     1      -2.498  13.473  23.332  0.00  0.00    +0.000 A 
ATOM     22  C   UNL     1      -2.487  14.840  23.095  0.00  0.00    +0.000 A 
ATOM     23  C   UNL     1      -2.157  15.315  21.828  0.00  0.00    +0.000 A 
ATOM     24  C   UNL     1      -1.826  14.420  20.806  0.00  0.00    +0.000 A 
ATOM     25  O   UNL     1      -2.146  16.647  21.502  0.00  0.00    +0.000 OA
ATOM     26  C   UNL     1      -2.124  17.466  22.674  0.00  0.00    +0.000 C 
ATOM     27  C   UNL     1      -3.132  16.977  23.703  0.00  0.00    +0.000 C 
ATOM     28  O   UNL     1      -2.809  15.655  24.148  0.00  0.00    +0.000 OA
ENDBRANCH  16  19
ENDBRANCH   8  12
BRANCH   1  29
ATOM     29  C   UNL     1       4.794   5.883  16.587  0.00  0.00    +0.000 C 
BRANCH  29  30
ATOM     30  N   UNL     1       5.949   6.788  16.483  0.00  0.00    +0.000 NA
ATOM     31  H   UNL     1       6.346   6.641  15.548  0.00  0.00    +0.000 HD
BRANCH  30  32
ATOM     32  C   UNL     1       7.000   6.407  17.470  0.00  0.00    +0.000 C 
BRANCH  32  34
ATOM     33  O   UNL     1       7.846   4.502  16.206  0.00  0.00    +0.000 OA
ATOM     34  C   UNL     1       7.378   4.946  17.242  0.00  0.00    +0.000 C 
BRANCH  34  35
ATOM     35  O   UNL     1       7.102   4.183  18.326  0.00  0.00    +0.000 OA
ATOM     36  H   UNL     1       6.498   4.713  18.903  0.00  0.00    +0.000 HD
ENDBRANCH  34  35
ENDBRANCH  32  34
ENDBRANCH  30  32
ENDBRANCH  29  30
ENDBRANCH   1  29
TORSDOF 7
ENDMDL
MODEL 6
REMARK VINA RESULT:      -8.0      2.990     10.621
REMARK  Name = 
REMARK  7 active torsions:
REMARK  status: ('A' for Active; 'I' for Inactive)
REMARK    1  A    between atoms: C_2  and  O_3
REMARK    2  A    between atoms: C_2  and  C_4
REMARK    3  A    between atoms: C_4  and  N_5
REMARK    4  A    between atoms: N_5  and  C_6
REMARK    5  A    between atoms: C_6  and  C_7
REMARK    6  A    between atoms: N_14  and  C_15
REMARK    7  A    between atoms: C_19  and  C_20
REMARK                            x       y       z     vdW  Elec       q    Type
REMARK                         _______ _______ _______ _____ _____    ______ ____
ROOT
ATOM      1  C   UNL     1       3.786   6.026  17.869  0.00  0.00    +0.000 A 
ATOM      2  C   UNL     1       3.689   5.174  18.985  0.00  0.00    +0.000 A 
ATOM      3  C   UNL     1       2.935   5.525  20.108  0.00  0.00    +0.000 A 
ATOM      4  C   UNL     1       2.275   6.746  20.043  0.00  0.00    +0.000 A 
ATOM      5  O   UNL     1       1.459   7.259  20.997  0.00  0.00    +0.000 OA
ATOM      6  N   UNL     1       0.933   8.453  20.553  0.00  0.00    +0.000 NA
ATOM      7  C   UNL     1       1.450   8.670  19.335  0.00  0.00    +0.000 A 
ATOM      8  N   UNL     1       1.160   9.711  18.510  0.00  0.00    +0.000 N 
ATOM      9  C   UNL     1       2.333   7.619  18.970  0.00  0.00    +0.000 A 
ATOM     10  C   UNL     1       3.115   7.263  17.858  0.00  0.00    +0.000 A 
ATOM     11  H   UNL     1       1.892  10.111  17.928  0.00  0.00    +0.000 HD
ENDROOT
BRANCH   8  12
ATOM     12  C   UNL     1      -0.005  10.522  18.567  0.00  0.00    +0.000 A 
ATOM     13  C   UNL     1      -1.131  10.157  17.817  0.00  0.00    +0.000 A 
ATOM     14  C   UNL     1      -2.329  10.835  17.955  0.00  0.00    +0.000 A 
ATOM     15  C   UNL     1      -2.431  11.863  18.889  0.00  0.00    +0.000 A 
ATOM     16  C   UNL     1      -1.329  12.301  19.663  0.00  0.00    +0.000 A 
ATOM     17  C   UNL     1      -0.095  11.634  19.441  0.00  0.00    +0.000 A 
ATOM     18 CL   UNL     1       1.400  12.167  20.167  0.00  0.00    +0.000 Cl
BRANCH  16  19
ATOM     19  C   UNL     1      -1.553  13.397  20.653  0.00  0.00    +0.000 A 
ATOM     20  C   UNL     1      -1.214  14.739  20.386  0.00  0.00    +0.000 A 
ATOM     21  C   UNL     1      -1.447  15.760  21.315  0.00  0.00    +0.000 A 
ATOM     22  C   UNL     1      -1.959  15.454  22.568  0.00  0.00    +0.000 A 
ATOM     23  C   UNL     1      -2.266  14.132  22.881  0.00  0.00    +0.000 A 
ATOM     24  C   UNL     1      -2.070  13.122  21.935  0.00  0.00    +0.000 A 
ATOM     25  O   UNL     1      -2.753  13.741  24.102  0.00  0.00    +0.000 OA
ATOM     26  C   UNL     1      -3.261  14.857  24.838  0.00  0.00    +0.000 C 
ATOM     27  C   UNL     1      -2.299  16.034  24.782  0.00  0.00    +0.000 C 
ATOM     28  O   UNL     1      -2.137  16.498  23.437  0.00  0.00    +0.000 OA
ENDBRANCH  16  19
ENDBRANCH   8  12
BRANCH   1  29
ATOM     29  C   UNL     1       4.607   5.608  16.671  0.00  0.00    +0.000 C 
BRANCH  29  30
ATOM     30  N   UNL     1       5.108   4.229  16.772  0.00  0.00    +0.000 NA
ATOM     31  H   UNL     1       5.712   4.203  17.601  0.00  0.00    +0.000 HD
BRANCH  30  32
ATOM     32  C   UNL     1       5.963   3.896  15.596  0.00  0.00    +0.000 C 
BRANCH  32  34
ATOM     33  O   UNL     1       7.681   5.466  14.871  0.00  0.00    +0.000 OA
ATOM     34  C   UNL     1       7.269   4.677  15.706  0.00  0.00    +0.000 C 
BRANCH  34  35
ATOM     35  O   UNL     1       7.943   4.367  16.840  0.00  0.00    +0.000 OA
ATOM     36  H   UNL     1       7.318   4.509  17.592  0.00  0.00    +0.000 HD
ENDBRANCH  34  35
ENDBRANCH  32  34
ENDBRANCH  30  32
ENDBRANCH  29  30
ENDBRANCH   1  29
TORSDOF 7
ENDMDL
MODEL 7
REMARK VINA RESULT:      -8.0      3.071      9.662
REMARK  Name = 
REMARK  7 active torsions:
REMARK  status: ('A' for Active; 'I' for Inactive)
REMARK    1  A    between atoms: C_2  and  O_3
REMARK    2  A    between atoms: C_2  and  C_4
REMARK    3  A    between atoms: C_4  and  N_5
REMARK    4  A    between atoms: N_5  and  C_6
REMARK    5  A    between atoms: C_6  and  C_7
REMARK    6  A    between atoms: N_14  and  C_15
REMARK    7  A    between atoms: C_19  and  C_20
REMARK                            x       y       z     vdW  Elec       q    Type
REMARK                         _______ _______ _______ _____ _____    ______ ____
ROOT
ATOM      1  C   UNL     1       3.798   4.222  17.102  0.00  0.00    +0.000 A 
ATOM      2  C   UNL     1       3.163   2.993  17.360  0.00  0.00    +0.000 A 
ATOM      3  C   UNL     1       2.271   2.841  18.426  0.00  0.00    +0.000 A 
ATOM      4  C   UNL     1       2.038   3.977  19.192  0.00  0.00    +0.000 A 
ATOM      5  O   UNL     1       1.182   4.064  20.240  0.00  0.00    +0.000 OA
ATOM      6  N   UNL     1       1.165   5.360  20.708  0.00  0.00    +0.000 NA
ATOM      7  C   UNL     1       2.029   6.052  19.951  0.00  0.00    +0.000 A 
ATOM      8  N   UNL     1       2.287   7.385  20.034  0.00  0.00    +0.000 N 
ATOM      9  C   UNL     1       2.632   5.209  18.980  0.00  0.00    +0.000 A 
ATOM     10  C   UNL     1       3.545   5.339  17.919  0.00  0.00    +0.000 A 
ATOM     11  H   UNL     1       3.232   7.725  19.873  0.00  0.00    +0.000 HD
ENDROOT
BRANCH   8  12
ATOM     12  C   UNL     1       1.438   8.364  20.615  0.00  0.00    +0.000 A 
ATOM     13  C   UNL     1       0.946   8.163  21.912  0.00  0.00    +0.000 A 
ATOM     14  C   UNL     1       0.237   9.155  22.566  0.00  0.00    +0.000 A 
ATOM     15  C   UNL     1       0.051  10.388  21.945  0.00  0.00    +0.000 A 
ATOM     16  C   UNL     1       0.498  10.652  20.627  0.00  0.00    +0.000 A 
ATOM     17  C   UNL     1       1.155   9.588  19.957  0.00  0.00    +0.000 A 
ATOM     18 CL   UNL     1       1.601   9.676  18.271  0.00  0.00    +0.000 Cl
BRANCH  16  19
ATOM     19  C   UNL     1       0.267  12.017  20.065  0.00  0.00    +0.000 A 
ATOM     20  C   UNL     1       0.908  12.471  18.895  0.00  0.00    +0.000 A 
ATOM     21  C   UNL     1       0.668  13.746  18.368  0.00  0.00    +0.000 A 
ATOM     22  C   UNL     1      -0.166  14.629  19.038  0.00  0.00    +0.000 A 
ATOM     23  C   UNL     1      -0.783  14.227  20.220  0.00  0.00    +0.000 A 
ATOM     24  C   UNL     1      -0.573  12.940  20.721  0.00  0.00    +0.000 A 
ATOM     25  O   UNL     1      -1.602  15.044  20.958  0.00  0.00    +0.000 OA
ATOM     26  C   UNL     1      -2.043  16.166  20.188  0.00  0.00    +0.000 C 
ATOM     27  C   UNL     1      -0.886  16.793  19.424  0.00  0.00    +0.000 C 
ATOM     28  O   UNL     1      -0.335  15.869  18.480  0.00  0.00    +0.000 OA
ENDBRANCH  16  19
ENDBRANCH   8  12
BRANCH   1  29
ATOM     29  C   UNL     1       4.752   4.347  15.935  0.00  0.00    +0.000 C 
BRANCH  29  30
ATOM     30  N   UNL     1       6.019   3.633  16.152  0.00  0.00    +0.000 NA
ATOM     31  H   UNL     1       5.983   3.267  17.110  0.00  0.00    +0.000 HD
BRANCH  30  32
ATOM     32  C   UNL     1       7.169   4.580  16.087  0.00  0.00    +0.000 C 
BRANCH  32  34
ATOM     33  O   UNL     1       7.438   6.431  17.650  0.00  0.00    +0.000 OA
ATOM     34  C   UNL     1       7.343   5.230  17.457  0.00  0.00    +0.000 C 
BRANCH  34  35
ATOM     35  O   UNL     1       7.412   4.305  18.444  0.00  0.00    +0.000 OA
ATOM     36  H   UNL     1       8.122   3.667  18.189  0.00  0.00    +0.000 HD
ENDBRANCH  34  35
ENDBRANCH  32  34
ENDBRANCH  30  32
ENDBRANCH  29  30
ENDBRANCH   1  29
TORSDOF 7
ENDMDL
MODEL 8
REMARK VINA RESULT:      -7.9      3.197     10.770
REMARK  Name = 
REMARK  7 active torsions:
REMARK  status: ('A' for Active; 'I' for Inactive)
REMARK    1  A    between atoms: C_2  and  O_3
REMARK    2  A    between atoms: C_2  and  C_4
REMARK    3  A    between atoms: C_4  and  N_5
REMARK    4  A    between atoms: N_5  and  C_6
REMARK    5  A    between atoms: C_6  and  C_7
REMARK    6  A    between atoms: N_14  and  C_15
REMARK    7  A    between atoms: C_19  and  C_20
REMARK                            x       y       z     vdW  Elec       q    Type
REMARK                         _______ _______ _______ _____ _____    ______ ____
ROOT
ATOM      1  C   UNL     1       3.948   6.483  17.692  0.00  0.00    +0.000 A 
ATOM      2  C   UNL     1       3.883   5.515  18.711  0.00  0.00    +0.000 A 
ATOM      3  C   UNL     1       3.074   5.692  19.837  0.00  0.00    +0.000 A 
ATOM      4  C   UNL     1       2.327   6.864  19.873  0.00  0.00    +0.000 A 
ATOM      5  O   UNL     1       1.450   7.215  20.845  0.00  0.00    +0.000 OA
ATOM      6  N   UNL     1       0.849   8.409  20.507  0.00  0.00    +0.000 NA
ATOM      7  C   UNL     1       1.382   8.788  19.336  0.00  0.00    +0.000 A 
ATOM      8  N   UNL     1       1.041   9.887  18.612  0.00  0.00    +0.000 N 
ATOM      9  C   UNL     1       2.351   7.845  18.898  0.00  0.00    +0.000 A 
ATOM     10  C   UNL     1       3.188   7.664  17.784  0.00  0.00    +0.000 A 
ATOM     11  H   UNL     1       1.757  10.395  18.101  0.00  0.00    +0.000 HD
ENDROOT
BRANCH   8  12
ATOM     12  C   UNL     1      -0.183  10.603  18.711  0.00  0.00    +0.000 A 
ATOM     13  C   UNL     1      -1.205  10.343  17.787  0.00  0.00    +0.000 A 
ATOM     14  C   UNL     1      -2.458  10.911  17.934  0.00  0.00    +0.000 A 
ATOM     15  C   UNL     1      -2.721  11.713  19.042  0.00  0.00    +0.000 A 
ATOM     16  C   UNL     1      -1.731  12.037  20.000  0.00  0.00    +0.000 A 
ATOM     17  C   UNL     1      -0.436  11.500  19.779  0.00  0.00    +0.000 A 
ATOM     18 CL   UNL     1       0.943  11.949  20.751  0.00  0.00    +0.000 Cl
BRANCH  16  19
ATOM     19  C   UNL     1      -2.127  12.887  21.164  0.00  0.00    +0.000 A 
ATOM     20  C   UNL     1      -2.350  12.354  22.449  0.00  0.00    +0.000 A 
ATOM     21  C   UNL     1      -2.703  13.164  23.535  0.00  0.00    +0.000 A 
ATOM     22  C   UNL     1      -2.913  14.522  23.348  0.00  0.00    +0.000 A 
ATOM     23  C   UNL     1      -2.743  15.076  22.081  0.00  0.00    +0.000 A 
ATOM     24  C   UNL     1      -2.351  14.270  21.009  0.00  0.00    +0.000 A 
ATOM     25  O   UNL     1      -2.953  16.403  21.805  0.00  0.00    +0.000 OA
ATOM     26  C   UNL     1      -2.975  17.184  23.002  0.00  0.00    +0.000 C 
ATOM     27  C   UNL     1      -3.828  16.520  24.073  0.00  0.00    +0.000 C 
ATOM     28  O   UNL     1      -3.282  15.250  24.448  0.00  0.00    +0.000 OA
ENDBRANCH  16  19
ENDBRANCH   8  12
BRANCH   1  29
ATOM     29  C   UNL     1       4.831   6.251  16.488  0.00  0.00    +0.000 C 
BRANCH  29  30
ATOM     30  N   UNL     1       6.221   5.935  16.848  0.00  0.00    +0.000 NA
ATOM     31  H   UNL     1       6.812   6.583  16.315  0.00  0.00    +0.000 HD
BRANCH  30  32
ATOM     32  C   UNL     1       6.575   4.556  16.405  0.00  0.00    +0.000 C 
BRANCH  32  34
ATOM     33  O   UNL     1       7.721   5.456  14.450  0.00  0.00    +0.000 OA
ATOM     34  C   UNL     1       6.991   4.607  14.937  0.00  0.00    +0.000 C 
BRANCH  34  35
ATOM     35  O   UNL     1       6.426   3.605  14.221  0.00  0.00    +0.000 OA
ATOM     36  H   UNL     1       5.614   3.326  14.712  0.00  0.00    +0.000 HD
ENDBRANCH  34  35
ENDBRANCH  32  34
ENDBRANCH  30  32
ENDBRANCH  29  30
ENDBRANCH   1  29
TORSDOF 7
ENDMDL
MODEL 9
REMARK VINA RESULT:      -7.9      3.129      9.647
REMARK  Name = 
REMARK  7 active torsions:
REMARK  status: ('A' for Active; 'I' for Inactive)
REMARK    1  A    between atoms: C_2  and  O_3
REMARK    2  A    between atoms: C_2  and  C_4
REMARK    3  A    between atoms: C_4  and  N_5
REMARK    4  A    between atoms: N_5  and  C_6
REMARK    5  A    between atoms: C_6  and  C_7
REMARK    6  A    between atoms: N_14  and  C_15
REMARK    7  A    between atoms: C_19  and  C_20
REMARK                            x       y       z     vdW  Elec       q    Type
REMARK                         _______ _______ _______ _____ _____    ______ ____
ROOT
ATOM      1  C   UNL     1       4.081   5.175  17.073  0.00  0.00    +0.000 A 
ATOM      2  C   UNL     1       3.555   3.874  17.184  0.00  0.00    +0.000 A 
ATOM      3  C   UNL     1       2.646   3.538  18.191  0.00  0.00    +0.000 A 
ATOM      4  C   UNL     1       2.281   4.567  19.052  0.00  0.00    +0.000 A 
ATOM      5  O   UNL     1       1.386   4.472  20.066  0.00  0.00    +0.000 OA
ATOM      6  N   UNL     1       1.231   5.708  20.655  0.00  0.00    +0.000 NA
ATOM      7  C   UNL     1       2.052   6.547  20.005  0.00  0.00    +0.000 A 
ATOM      8  N   UNL     1       2.181   7.882  20.227  0.00  0.00    +0.000 N 
ATOM      9  C   UNL     1       2.764   5.861  18.985  0.00  0.00    +0.000 A 
ATOM     10  C   UNL     1       3.696   6.178  17.982  0.00  0.00    +0.000 A 
ATOM     11  H   UNL     1       3.094   8.321  20.139  0.00  0.00    +0.000 HD
ENDROOT
BRANCH   8  12
ATOM     12  C   UNL     1       1.224   8.719  20.861  0.00  0.00    +0.000 A 
ATOM     13  C   UNL     1       0.702   8.342  22.106  0.00  0.00    +0.000 A 
ATOM     14  C   UNL     1      -0.120   9.195  22.821  0.00  0.00    +0.000 A 
ATOM     15  C   UNL     1      -0.391  10.465  22.319  0.00  0.00    +0.000 A 
ATOM     16  C   UNL     1       0.082  10.904  21.059  0.00  0.00    +0.000 A 
ATOM     17  C   UNL     1       0.859   9.976  20.317  0.00  0.00    +0.000 A 
ATOM     18 CL   UNL     1       1.360  10.279  18.672  0.00  0.00    +0.000 Cl
BRANCH  16  19
ATOM     19  C   UNL     1      -0.250  12.295  20.626  0.00  0.00    +0.000 A 
ATOM     20  C   UNL     1      -1.543  12.840  20.756  0.00  0.00    +0.000 A 
ATOM     21  C   UNL     1      -1.836  14.152  20.364  0.00  0.00    +0.000 A 
ATOM     22  C   UNL     1      -0.858  14.931  19.762  0.00  0.00    +0.000 A 
ATOM     23  C   UNL     1       0.420  14.409  19.579  0.00  0.00    +0.000 A 
ATOM     24  C   UNL     1       0.718  13.113  20.009  0.00  0.00    +0.000 A 
ATOM     25  O   UNL     1       1.437  15.101  18.972  0.00  0.00    +0.000 OA
ATOM     26  C   UNL     1       1.149  16.501  18.919  0.00  0.00    +0.000 C 
ATOM     27  C   UNL     1      -0.278  16.749  18.455  0.00  0.00    +0.000 C 
ATOM     28  O   UNL     1      -1.221  16.195  19.379  0.00  0.00    +0.000 OA
ENDBRANCH  16  19
ENDBRANCH   8  12
BRANCH   1  29
ATOM     29  C   UNL     1       5.058   5.500  15.966  0.00  0.00    +0.000 C 
BRANCH  29  30
ATOM     30  N   UNL     1       6.429   5.060  16.263  0.00  0.00    +0.000 NA
ATOM     31  H   UNL     1       6.346   4.131  16.692  0.00  0.00    +0.000 HD
BRANCH  30  32
ATOM     32  C   UNL     1       7.057   5.955  17.276  0.00  0.00    +0.000 C 
BRANCH  32  34
ATOM     33  O   UNL     1       7.756   5.353  19.533  0.00  0.00    +0.000 OA
ATOM     34  C   UNL     1       7.728   5.092  18.341  0.00  0.00    +0.000 C 
BRANCH  34  35
ATOM     35  O   UNL     1       8.323   4.002  17.799  0.00  0.00    +0.000 OA
ATOM     36  H   UNL     1       9.225   3.941  18.198  0.00  0.00    +0.000 HD
ENDBRANCH  34  35
ENDBRANCH  32  34
ENDBRANCH  30  32
ENDBRANCH  29  30
ENDBRANCH   1  29
TORSDOF 7
ENDMDL
