MODEL 1
REMARK VINA RESULT:      -9.2      0.000      0.000
REMARK  Name = 
REMARK  6 active torsions:
REMARK  status: ('A' for Active; 'I' for Inactive)
REMARK    1  A    between atoms: C_2  and  C_15
REMARK    2  A    between atoms: N_3  and  C_4
REMARK    3  A    between atoms: C_4  and  C_5
REMARK    4  A    between atoms: C_5  and  C_6
REMARK    5  A    between atoms: C_20  and  N_21
REMARK    6  A    between atoms: N_21  and  C_22
REMARK                            x       y       z     vdW  Elec       q    Type
REMARK                         _______ _______ _______ _____ _____    ______ ____
ROOT
ATOM      1  O   UNL     1       7.217   5.757  18.859  0.00  0.00    +0.000 OA
ATOM      2  C   UNL     1       7.304   6.186  17.714  0.00  0.00    +0.000 C 
ATOM      3  N   UNL     1       7.758   7.453  17.410  0.00  0.00    +0.000 N 
ATOM      4  H   UNL     1       7.627   7.809  16.468  0.00  0.00    +0.000 HD
ENDROOT
BRANCH   2   5
ATOM      5  C   UNL     1       6.856   5.350  16.569  0.00  0.00    +0.000 A 
ATOM      6  C   UNL     1       7.293   5.759  15.295  0.00  0.00    +0.000 A 
ATOM      7  C   UNL     1       6.941   5.038  14.153  0.00  0.00    +0.000 A 
ATOM      8  C   UNL     1       6.177   3.888  14.276  0.00  0.00    +0.000 A 
ATOM      9  C   UNL     1       5.736   3.482  15.537  0.00  0.00    +0.000 A 
ATOM     10  C   UNL     1       6.010   4.233  16.699  0.00  0.00    +0.000 A 
BRANCH  10  11
ATOM     11  N   UNL     1       5.445   3.817  17.936  0.00  0.00    +0.000 N 
ATOM     12  H   UNL     1       6.000   4.077  18.751  0.00  0.00    +0.000 HD
BRANCH  11  13
ATOM     13  C   UNL     1       4.059   3.824  18.258  0.00  0.00    +0.000 A 
ATOM     14  C   UNL     1       3.158   4.630  17.538  0.00  0.00    +0.000 A 
ATOM     15  C   UNL     1       1.785   4.579  17.783  0.00  0.00    +0.000 A 
ATOM     16  C   UNL     1       1.292   3.745  18.783  0.00  0.00    +0.000 A 
ATOM     17  C   UNL     1       2.175   2.999  19.561  0.00  0.00    +0.000 A 
ATOM     18  C   UNL     1       3.552   3.052  19.315  0.00  0.00    +0.000 A 
ATOM     19 CL   UNL     1       4.601   2.106  20.314  0.00  0.00    +0.000 Cl
ENDBRANCH  11  13
ENDBRANCH  10  11
ENDBRANCH   2   5
BRANCH   3  20
ATOM     20  C   UNL     1       8.193   8.361  18.462  0.00  0.00    +0.000 C 
BRANCH  20  21
ATOM     21  C   UNL     1       8.439   9.779  17.948  0.00  0.00    +0.000 C 
BRANCH  21  22
ATOM     22  C   UNL     1       9.255  10.598  18.897  0.00  0.00    +0.000 A 
ATOM     23  C   UNL     1       9.174  10.568  20.276  0.00  0.00    +0.000 A 
ATOM     24  N   UNL     1      10.094  11.450  20.779  0.00  0.00    +0.000 N 
ATOM     25  C   UNL     1      10.775  12.063  19.756  0.00  0.00    +0.000 A 
ATOM     26  C   UNL     1      11.797  13.022  19.802  0.00  0.00    +0.000 A 
ATOM     27  C   UNL     1      12.313  13.476  18.585  0.00  0.00    +0.000 A 
ATOM     28  C   UNL     1      11.826  12.989  17.374  0.00  0.00    +0.000 A 
ATOM     29  C   UNL     1      10.805  12.030  17.347  0.00  0.00    +0.000 A 
ATOM     30  C   UNL     1      10.268  11.553  18.561  0.00  0.00    +0.000 A 
ATOM     31  H   UNL     1      10.255  11.628  21.761  0.00  0.00    +0.000 HD
ENDBRANCH  21  22
ENDBRANCH  20  21
ENDBRANCH   3  20
TORSDOF 6
ENDMDL
MODEL 2
REMARK VINA RESULT:      -8.9      1.605      1.816
REMARK  Name = 
REMARK  6 active torsions:
REMARK  status: ('A' for Active; 'I' for Inactive)
REMARK    1  A    between atoms: C_2  and  C_15
REMARK    2  A    between atoms: N_3  and  C_4
REMARK    3  A    between atoms: C_4  and  C_5
REMARK    4  A    between atoms: C_5  and  C_6
REMARK    5  A    between atoms: C_20  and  N_21
REMARK    6  A    between atoms: N_21  and  C_22
REMARK                            x       y       z     vdW  Elec       q    Type
REMARK                         _______ _______ _______ _____ _____    ______ ____
ROOT
ATOM      1  O   UNL     1       7.289   5.938  18.973  0.00  0.00    +0.000 OA
ATOM      2  C   UNL     1       7.262   6.376  17.828  0.00  0.00    +0.000 C 
ATOM      3  N   UNL     1       7.752   7.618  17.478  0.00  0.00    +0.000 N 
ATOM      4  H   UNL     1       7.530   7.993  16.561  0.00  0.00    +0.000 HD
ENDROOT
BRANCH   2   5
ATOM      5  C   UNL     1       6.629   5.583  16.741  0.00  0.00    +0.000 A 
ATOM      6  C   UNL     1       7.337   5.522  15.526  0.00  0.00    +0.000 A 
ATOM      7  C   UNL     1       6.839   4.794  14.444  0.00  0.00    +0.000 A 
ATOM      8  C   UNL     1       5.648   4.097  14.576  0.00  0.00    +0.000 A 
ATOM      9  C   UNL     1       4.939   4.160  15.777  0.00  0.00    +0.000 A 
ATOM     10  C   UNL     1       5.378   4.951  16.860  0.00  0.00    +0.000 A 
BRANCH  10  11
ATOM     11  N   UNL     1       4.556   5.049  18.016  0.00  0.00    +0.000 N 
ATOM     12  H   UNL     1       4.986   4.675  18.862  0.00  0.00    +0.000 HD
BRANCH  11  13
ATOM     13  C   UNL     1       3.707   6.146  18.339  0.00  0.00    +0.000 A 
ATOM     14  C   UNL     1       3.678   7.295  17.527  0.00  0.00    +0.000 A 
ATOM     15  C   UNL     1       2.785   8.337  17.780  0.00  0.00    +0.000 A 
ATOM     16  C   UNL     1       1.929   8.264  18.874  0.00  0.00    +0.000 A 
ATOM     17  C   UNL     1       1.997   7.170  19.736  0.00  0.00    +0.000 A 
ATOM     18  C   UNL     1       2.893   6.125  19.482  0.00  0.00    +0.000 A 
ATOM     19 CL   UNL     1       2.936   4.794  20.586  0.00  0.00    +0.000 Cl
ENDBRANCH  11  13
ENDBRANCH  10  11
ENDBRANCH   2   5
BRANCH   3  20
ATOM     20  C   UNL     1       8.365   8.484  18.475  0.00  0.00    +0.000 C 
BRANCH  20  21
ATOM     21  C   UNL     1       8.618   9.896  17.948  0.00  0.00    +0.000 C 
BRANCH  21  22
ATOM     22  C   UNL     1       9.429  10.723  18.894  0.00  0.00    +0.000 A 
ATOM     23  C   UNL     1       9.409  10.639  20.273  0.00  0.00    +0.000 A 
ATOM     24  N   UNL     1      10.301  11.551  20.771  0.00  0.00    +0.000 N 
ATOM     25  C   UNL     1      10.904  12.237  19.746  0.00  0.00    +0.000 A 
ATOM     26  C   UNL     1      11.875  13.248  19.787  0.00  0.00    +0.000 A 
ATOM     27  C   UNL     1      12.314  13.773  18.568  0.00  0.00    +0.000 A 
ATOM     28  C   UNL     1      11.802  13.305  17.360  0.00  0.00    +0.000 A 
ATOM     29  C   UNL     1      10.833  12.293  17.338  0.00  0.00    +0.000 A 
ATOM     30  C   UNL     1      10.375  11.744  18.554  0.00  0.00    +0.000 A 
ATOM     31  H   UNL     1      10.494  11.702  21.752  0.00  0.00    +0.000 HD
ENDBRANCH  21  22
ENDBRANCH  20  21
ENDBRANCH   3  20
TORSDOF 6
ENDMDL
MODEL 3
REMARK VINA RESULT:      -8.9      5.166      7.614
REMARK  Name = 
REMARK  6 active torsions:
REMARK  status: ('A' for Active; 'I' for Inactive)
REMARK    1  A    between atoms: C_2  and  C_15
REMARK    2  A    between atoms: N_3  and  C_4
REMARK    3  A    between atoms: C_4  and  C_5
REMARK    4  A    between atoms: C_5  and  C_6
REMARK    5  A    between atoms: C_20  and  N_21
REMARK    6  A    between atoms: N_21  and  C_22
REMARK                            x       y       z     vdW  Elec       q    Type
REMARK                         _______ _______ _______ _____ _____    ______ ____
ROOT
ATOM      1  O   UNL     1       4.263   6.194  19.320  0.00  0.00    +0.000 OA
ATOM      2  C   UNL     1       3.215   5.864  18.776  0.00  0.00    +0.000 C 
ATOM      3  N   UNL     1       2.326   6.768  18.232  0.00  0.00    +0.000 N 
ATOM      4  H   UNL     1       1.398   6.447  17.968  0.00  0.00    +0.000 HD
ENDROOT
BRANCH   2   5
ATOM      5  C   UNL     1       2.819   4.432  18.726  0.00  0.00    +0.000 A 
ATOM      6  C   UNL     1       1.474   4.150  19.028  0.00  0.00    +0.000 A 
ATOM      7  C   UNL     1       0.993   2.840  18.999  0.00  0.00    +0.000 A 
ATOM      8  C   UNL     1       1.844   1.806  18.638  0.00  0.00    +0.000 A 
ATOM      9  C   UNL     1       3.180   2.080  18.343  0.00  0.00    +0.000 A 
ATOM     10  C   UNL     1       3.712   3.383  18.441  0.00  0.00    +0.000 A 
BRANCH  10  11
ATOM     11  N   UNL     1       5.104   3.575  18.226  0.00  0.00    +0.000 N 
ATOM     12  H   UNL     1       5.693   2.874  18.677  0.00  0.00    +0.000 HD
BRANCH  11  13
ATOM     13  C   UNL     1       5.702   4.014  17.011  0.00  0.00    +0.000 A 
ATOM     14  C   UNL     1       5.155   3.648  15.767  0.00  0.00    +0.000 A 
ATOM     15  C   UNL     1       5.676   4.144  14.572  0.00  0.00    +0.000 A 
ATOM     16  C   UNL     1       6.781   4.990  14.599  0.00  0.00    +0.000 A 
ATOM     17  C   UNL     1       7.388   5.301  15.814  0.00  0.00    +0.000 A 
ATOM     18  C   UNL     1       6.864   4.801  17.013  0.00  0.00    +0.000 A 
ATOM     19 CL   UNL     1       7.658   5.219  18.492  0.00  0.00    +0.000 Cl
ENDBRANCH  11  13
ENDBRANCH  10  11
ENDBRANCH   2   5
BRANCH   3  20
ATOM     20  C   UNL     1       2.607   8.197  18.255  0.00  0.00    +0.000 C 
BRANCH  20  21
ATOM     21  C   UNL     1       1.385   9.040  17.892  0.00  0.00    +0.000 C 
BRANCH  21  22
ATOM     22  C   UNL     1       1.071  10.069  18.931  0.00  0.00    +0.000 A 
ATOM     23  C   UNL     1       1.256  11.433  18.809  0.00  0.00    +0.000 A 
ATOM     24  N   UNL     1       0.835  12.029  19.969  0.00  0.00    +0.000 N 
ATOM     25  C   UNL     1       0.380  11.082  20.852  0.00  0.00    +0.000 A 
ATOM     26  C   UNL     1      -0.143  11.233  22.145  0.00  0.00    +0.000 A 
ATOM     27  C   UNL     1      -0.532  10.076  22.825  0.00  0.00    +0.000 A 
ATOM     28  C   UNL     1      -0.401   8.820  22.236  0.00  0.00    +0.000 A 
ATOM     29  C   UNL     1       0.123   8.688  20.943  0.00  0.00    +0.000 A 
ATOM     30  C   UNL     1       0.520   9.840  20.233  0.00  0.00    +0.000 A 
ATOM     31  H   UNL     1       0.851  13.023  20.152  0.00  0.00    +0.000 HD
ENDBRANCH  21  22
ENDBRANCH  20  21
ENDBRANCH   3  20
TORSDOF 6
ENDMDL
MODEL 4
REMARK VINA RESULT:      -8.8      5.212      8.792
REMARK  Name = 
REMARK  6 active torsions:
REMARK  status: ('A' for Active; 'I' for Inactive)
REMARK    1  A    between atoms: C_2  and  C_15
REMARK    2  A    between atoms: N_3  and  C_4
REMARK    3  A    between atoms: C_4  and  C_5
REMARK    4  A    between atoms: C_5  and  C_6
REMARK    5  A    between atoms: C_20  and  N_21
REMARK    6  A    between atoms: N_21  and  C_22
REMARK                            x       y       z     vdW  Elec       q    Type
REMARK                         _______ _______ _______ _____ _____    ______ ____
ROOT
ATOM      1  O   UNL     1       2.591   7.483  18.780  0.00  0.00    +0.000 OA
ATOM      2  C   UNL     1       2.164   6.957  19.803  0.00  0.00    +0.000 C 
ATOM      3  N   UNL     1       1.557   7.662  20.822  0.00  0.00    +0.000 N 
ATOM      4  H   UNL     1       1.399   7.199  21.713  0.00  0.00    +0.000 HD
ENDROOT
BRANCH   2   5
ATOM      5  C   UNL     1       2.336   5.496  20.018  0.00  0.00    +0.000 A 
ATOM      6  C   UNL     1       1.252   4.826  20.614  0.00  0.00    +0.000 A 
ATOM      7  C   UNL     1       1.304   3.451  20.850  0.00  0.00    +0.000 A 
ATOM      8  C   UNL     1       2.424   2.731  20.465  0.00  0.00    +0.000 A 
ATOM      9  C   UNL     1       3.504   3.392  19.878  0.00  0.00    +0.000 A 
ATOM     10  C   UNL     1       3.512   4.792  19.699  0.00  0.00    +0.000 A 
BRANCH  10  11
ATOM     11  N   UNL     1       4.685   5.413  19.189  0.00  0.00    +0.000 N 
ATOM     12  H   UNL     1       5.351   5.692  19.909  0.00  0.00    +0.000 HD
BRANCH  11  13
ATOM     13  C   UNL     1       5.371   5.038  17.999  0.00  0.00    +0.000 A 
ATOM     14  C   UNL     1       4.663   4.549  16.885  0.00  0.00    +0.000 A 
ATOM     15  C   UNL     1       5.312   4.264  15.684  0.00  0.00    +0.000 A 
ATOM     16  C   UNL     1       6.691   4.428  15.587  0.00  0.00    +0.000 A 
ATOM     17  C   UNL     1       7.421   4.835  16.702  0.00  0.00    +0.000 A 
ATOM     18  C   UNL     1       6.769   5.121  17.907  0.00  0.00    +0.000 A 
ATOM     19 CL   UNL     1       7.726   5.620  19.260  0.00  0.00    +0.000 Cl
ENDBRANCH  11  13
ENDBRANCH  10  11
ENDBRANCH   2   5
BRANCH   3  20
ATOM     20  C   UNL     1       1.367   9.102  20.722  0.00  0.00    +0.000 C 
BRANCH  20  21
ATOM     21  C   UNL     1       0.867   9.532  19.343  0.00  0.00    +0.000 C 
BRANCH  21  22
ATOM     22  C   UNL     1      -0.357  10.388  19.420  0.00  0.00    +0.000 A 
ATOM     23  C   UNL     1      -0.685  11.250  20.449  0.00  0.00    +0.000 A 
ATOM     24  N   UNL     1      -1.873  11.858  20.137  0.00  0.00    +0.000 N 
ATOM     25  C   UNL     1      -2.334  11.409  18.925  0.00  0.00    +0.000 A 
ATOM     26  C   UNL     1      -3.494  11.756  18.218  0.00  0.00    +0.000 A 
ATOM     27  C   UNL     1      -3.714  11.129  16.987  0.00  0.00    +0.000 A 
ATOM     28  C   UNL     1      -2.810  10.194  16.488  0.00  0.00    +0.000 A 
ATOM     29  C   UNL     1      -1.655   9.860  17.208  0.00  0.00    +0.000 A 
ATOM     30  C   UNL     1      -1.408  10.480  18.451  0.00  0.00    +0.000 A 
ATOM     31  H   UNL     1      -2.345  12.543  20.712  0.00  0.00    +0.000 HD
ENDBRANCH  21  22
ENDBRANCH  20  21
ENDBRANCH   3  20
TORSDOF 6
ENDMDL
MODEL 5
REMARK VINA RESULT:      -8.7      5.713      8.705
REMARK  Name = 
REMARK  6 active torsions:
REMARK  status: ('A' for Active; 'I' for Inactive)
REMARK    1  A    between atoms: C_2  and  C_15
REMARK    2  A    between atoms: N_3  and  C_4
REMARK    3  A    between atoms: C_4  and  C_5
REMARK    4  A    between atoms: C_5  and  C_6
REMARK    5  A    between atoms: C_20  and  N_21
REMARK    6  A    between atoms: N_21  and  C_22
REMARK                            x       y       z     vdW  Elec       q    Type
REMARK                         _______ _______ _______ _____ _____    ______ ____
ROOT
ATOM      1  O   UNL     1       2.423   7.128  18.695  0.00  0.00    +0.000 OA
ATOM      2  C   UNL     1       2.036   6.463  19.650  0.00  0.00    +0.000 C 
ATOM      3  N   UNL     1       1.671   7.013  20.861  0.00  0.00    +0.000 N 
ATOM      4  H   UNL     1       1.543   6.400  21.661  0.00  0.00    +0.000 HD
ENDROOT
BRANCH   2   5
ATOM      5  C   UNL     1       1.994   4.980  19.556  0.00  0.00    +0.000 A 
ATOM      6  C   UNL     1       1.198   4.321  20.511  0.00  0.00    +0.000 A 
ATOM      7  C   UNL     1       1.078   2.930  20.506  0.00  0.00    +0.000 A 
ATOM      8  C   UNL     1       1.726   2.190  19.529  0.00  0.00    +0.000 A 
ATOM      9  C   UNL     1       2.521   2.838  18.583  0.00  0.00    +0.000 A 
ATOM     10  C   UNL     1       2.724   4.234  18.612  0.00  0.00    +0.000 A 
BRANCH  10  11
ATOM     11  N   UNL     1       3.626   4.817  17.681  0.00  0.00    +0.000 N 
ATOM     12  H   UNL     1       3.256   5.640  17.206  0.00  0.00    +0.000 HD
BRANCH  11  13
ATOM     13  C   UNL     1       5.034   4.940  17.856  0.00  0.00    +0.000 A 
ATOM     14  C   UNL     1       5.569   5.397  19.075  0.00  0.00    +0.000 A 
ATOM     15  C   UNL     1       6.947   5.437  19.291  0.00  0.00    +0.000 A 
ATOM     16  C   UNL     1       7.817   5.053  18.276  0.00  0.00    +0.000 A 
ATOM     17  C   UNL     1       7.310   4.672  17.034  0.00  0.00    +0.000 A 
ATOM     18  C   UNL     1       5.927   4.634  16.818  0.00  0.00    +0.000 A 
ATOM     19 CL   UNL     1       5.354   4.156  15.257  0.00  0.00    +0.000 Cl
ENDBRANCH  11  13
ENDBRANCH  10  11
ENDBRANCH   2   5
BRANCH   3  20
ATOM     20  C   UNL     1       1.706   8.455  21.065  0.00  0.00    +0.000 C 
BRANCH  20  21
ATOM     21  C   UNL     1       0.490   8.966  21.837  0.00  0.00    +0.000 C 
BRANCH  21  22
ATOM     22  C   UNL     1      -0.227  10.062  21.114  0.00  0.00    +0.000 A 
ATOM     23  C   UNL     1      -0.228  10.271  19.747  0.00  0.00    +0.000 A 
ATOM     24  N   UNL     1      -1.012  11.364  19.483  0.00  0.00    +0.000 N 
ATOM     25  C   UNL     1      -1.522  11.878  20.649  0.00  0.00    +0.000 A 
ATOM     26  C   UNL     1      -2.368  12.978  20.854  0.00  0.00    +0.000 A 
ATOM     27  C   UNL     1      -2.732  13.277  22.170  0.00  0.00    +0.000 A 
ATOM     28  C   UNL     1      -2.268  12.508  23.234  0.00  0.00    +0.000 A 
ATOM     29  C   UNL     1      -1.424  11.412  23.011  0.00  0.00    +0.000 A 
ATOM     30  C   UNL     1      -1.044  11.087  21.692  0.00  0.00    +0.000 A 
ATOM     31  H   UNL     1      -1.195  11.740  18.562  0.00  0.00    +0.000 HD
ENDBRANCH  21  22
ENDBRANCH  20  21
ENDBRANCH   3  20
TORSDOF 6
ENDMDL
MODEL 6
REMARK VINA RESULT:      -8.7      4.603      7.978
REMARK  Name = 
REMARK  6 active torsions:
REMARK  status: ('A' for Active; 'I' for Inactive)
REMARK    1  A    between atoms: C_2  and  C_15
REMARK    2  A    between atoms: N_3  and  C_4
REMARK    3  A    between atoms: C_4  and  C_5
REMARK    4  A    between atoms: C_5  and  C_6
REMARK    5  A    between atoms: C_20  and  N_21
REMARK    6  A    between atoms: N_21  and  C_22
REMARK                            x       y       z     vdW  Elec       q    Type
REMARK                         _______ _______ _______ _____ _____    ______ ____
ROOT
ATOM      1  O   UNL     1       1.875   5.668  17.471  0.00  0.00    +0.000 OA
ATOM      2  C   UNL     1       2.378   5.865  18.572  0.00  0.00    +0.000 C 
ATOM      3  N   UNL     1       2.788   7.108  19.008  0.00  0.00    +0.000 N 
ATOM      4  H   UNL     1       3.362   7.171  19.843  0.00  0.00    +0.000 HD
ENDROOT
BRANCH   2   5
ATOM      5  C   UNL     1       2.624   4.725  19.494  0.00  0.00    +0.000 A 
ATOM      6  C   UNL     1       1.740   4.605  20.582  0.00  0.00    +0.000 A 
ATOM      7  C   UNL     1       1.873   3.564  21.501  0.00  0.00    +0.000 A 
ATOM      8  C   UNL     1       2.871   2.617  21.325  0.00  0.00    +0.000 A 
ATOM      9  C   UNL     1       3.755   2.735  20.251  0.00  0.00    +0.000 A 
ATOM     10  C   UNL     1       3.693   3.820  19.352  0.00  0.00    +0.000 A 
BRANCH  10  11
ATOM     11  N   UNL     1       4.686   3.933  18.341  0.00  0.00    +0.000 N 
ATOM     12  H   UNL     1       4.337   3.765  17.397  0.00  0.00    +0.000 HD
BRANCH  11  13
ATOM     13  C   UNL     1       5.737   4.893  18.314  0.00  0.00    +0.000 A 
ATOM     14  C   UNL     1       6.557   5.092  19.440  0.00  0.00    +0.000 A 
ATOM     15  C   UNL     1       7.646   5.964  19.399  0.00  0.00    +0.000 A 
ATOM     16  C   UNL     1       7.912   6.681  18.236  0.00  0.00    +0.000 A 
ATOM     17  C   UNL     1       7.066   6.558  17.136  0.00  0.00    +0.000 A 
ATOM     18  C   UNL     1       5.973   5.684  17.179  0.00  0.00    +0.000 A 
ATOM     19 CL   UNL     1       4.955   5.573  15.785  0.00  0.00    +0.000 Cl
ENDBRANCH  11  13
ENDBRANCH  10  11
ENDBRANCH   2   5
BRANCH   3  20
ATOM     20  C   UNL     1       2.617   8.285  18.168  0.00  0.00    +0.000 C 
BRANCH  20  21
ATOM     21  C   UNL     1       1.161   8.745  18.093  0.00  0.00    +0.000 C 
BRANCH  21  22
ATOM     22  C   UNL     1       0.859   9.847  19.057  0.00  0.00    +0.000 A 
ATOM     23  C   UNL     1       1.003  11.201  18.819  0.00  0.00    +0.000 A 
ATOM     24  N   UNL     1       0.609  11.878  19.943  0.00  0.00    +0.000 N 
ATOM     25  C   UNL     1       0.213  10.996  20.917  0.00  0.00    +0.000 A 
ATOM     26  C   UNL     1      -0.266  11.239  22.213  0.00  0.00    +0.000 A 
ATOM     27  C   UNL     1      -0.599  10.131  22.998  0.00  0.00    +0.000 A 
ATOM     28  C   UNL     1      -0.456   8.836  22.506  0.00  0.00    +0.000 A 
ATOM     29  C   UNL     1       0.023   8.611  21.209  0.00  0.00    +0.000 A 
ATOM     30  C   UNL     1       0.363   9.712  20.394  0.00  0.00    +0.000 A 
ATOM     31  H   UNL     1       0.606  12.884  20.046  0.00  0.00    +0.000 HD
ENDBRANCH  21  22
ENDBRANCH  20  21
ENDBRANCH   3  20
TORSDOF 6
ENDMDL
MODEL 7
REMARK VINA RESULT:      -8.7      5.465      7.945
REMARK  Name = 
REMARK  6 active torsions:
REMARK  status: ('A' for Active; 'I' for Inactive)
REMARK    1  A    between atoms: C_2  and  C_15
REMARK    2  A    between atoms: N_3  and  C_4
REMARK    3  A    between atoms: C_4  and  C_5
REMARK    4  A    between atoms: C_5  and  C_6
REMARK    5  A    between atoms: C_20  and  N_21
REMARK    6  A    between atoms: N_21  and  C_22
REMARK                            x       y       z     vdW  Elec       q    Type
REMARK                         _______ _______ _______ _____ _____    ______ ____
ROOT
ATOM      1  O   UNL     1       2.559   7.408  18.866  0.00  0.00    +0.000 OA
ATOM      2  C   UNL     1       2.157   6.855  19.885  0.00  0.00    +0.000 C 
ATOM      3  N   UNL     1       1.565   7.531  20.931  0.00  0.00    +0.000 N 
ATOM      4  H   UNL     1       1.428   7.047  21.814  0.00  0.00    +0.000 HD
ENDROOT
BRANCH   2   5
ATOM      5  C   UNL     1       2.347   5.392  20.063  0.00  0.00    +0.000 A 
ATOM      6  C   UNL     1       1.281   4.698  20.664  0.00  0.00    +0.000 A 
ATOM      7  C   UNL     1       1.349   3.319  20.868  0.00  0.00    +0.000 A 
ATOM      8  C   UNL     1       2.469   2.618  20.445  0.00  0.00    +0.000 A 
ATOM      9  C   UNL     1       3.531   3.303  19.854  0.00  0.00    +0.000 A 
ATOM     10  C   UNL     1       3.523   4.706  19.707  0.00  0.00    +0.000 A 
BRANCH  10  11
ATOM     11  N   UNL     1       4.680   5.350  19.190  0.00  0.00    +0.000 N 
ATOM     12  H   UNL     1       5.351   5.631  19.905  0.00  0.00    +0.000 HD
BRANCH  11  13
ATOM     13  C   UNL     1       5.358   4.997  17.988  0.00  0.00    +0.000 A 
ATOM     14  C   UNL     1       4.640   4.548  16.864  0.00  0.00    +0.000 A 
ATOM     15  C   UNL     1       5.282   4.285  15.653  0.00  0.00    +0.000 A 
ATOM     16  C   UNL     1       6.662   4.433  15.556  0.00  0.00    +0.000 A 
ATOM     17  C   UNL     1       7.401   4.801  16.679  0.00  0.00    +0.000 A 
ATOM     18  C   UNL     1       6.757   5.063  17.894  0.00  0.00    +0.000 A 
ATOM     19 CL   UNL     1       7.724   5.512  19.256  0.00  0.00    +0.000 Cl
ENDBRANCH  11  13
ENDBRANCH  10  11
ENDBRANCH   2   5
BRANCH   3  20
ATOM     20  C   UNL     1       1.359   8.971  20.867  0.00  0.00    +0.000 C 
BRANCH  20  21
ATOM     21  C   UNL     1      -0.117   9.348  20.743  0.00  0.00    +0.000 C 
BRANCH  21  22
ATOM     22  C   UNL     1      -0.347  10.442  19.750  0.00  0.00    +0.000 A 
ATOM     23  C   UNL     1      -0.916  10.301  18.499  0.00  0.00    +0.000 A 
ATOM     24  N   UNL     1      -0.962  11.536  17.907  0.00  0.00    +0.000 N 
ATOM     25  C   UNL     1      -0.430  12.485  18.743  0.00  0.00    +0.000 A 
ATOM     26  C   UNL     1      -0.277  13.867  18.556  0.00  0.00    +0.000 A 
ATOM     27  C   UNL     1       0.307  14.599  19.594  0.00  0.00    +0.000 A 
ATOM     28  C   UNL     1       0.722  13.974  20.767  0.00  0.00    +0.000 A 
ATOM     29  C   UNL     1       0.561  12.592  20.937  0.00  0.00    +0.000 A 
ATOM     30  C   UNL     1      -0.029  11.830  19.907  0.00  0.00    +0.000 A 
ATOM     31  H   UNL     1      -1.336  11.727  16.987  0.00  0.00    +0.000 HD
ENDBRANCH  21  22
ENDBRANCH  20  21
ENDBRANCH   3  20
TORSDOF 6
ENDMDL
MODEL 8
REMARK VINA RESULT:      -8.7      4.730      7.862
REMARK  Name = 
REMARK  6 active torsions:
REMARK  status: ('A' for Active; 'I' for Inactive)
REMARK    1  A    between atoms: C_2  and  C_15
REMARK    2  A    between atoms: N_3  and  C_4
REMARK    3  A    between atoms: C_4  and  C_5
REMARK    4  A    between atoms: C_5  and  C_6
REMARK    5  A    between atoms: C_20  and  N_21
REMARK    6  A    between atoms: N_21  and  C_22
REMARK                            x       y       z     vdW  Elec       q    Type
REMARK                         _______ _______ _______ _____ _____    ______ ____
ROOT
ATOM      1  O   UNL     1       3.139   6.692  20.032  0.00  0.00    +0.000 OA
ATOM      2  C   UNL     1       2.579   6.300  19.014  0.00  0.00    +0.000 C 
ATOM      3  N   UNL     1       2.142   7.146  18.015  0.00  0.00    +0.000 N 
ATOM      4  H   UNL     1       1.525   6.778  17.296  0.00  0.00    +0.000 HD
ENDROOT
BRANCH   2   5
ATOM      5  C   UNL     1       2.291   4.853  18.832  0.00  0.00    +0.000 A 
ATOM      6  C   UNL     1       1.292   4.312  19.662  0.00  0.00    +0.000 A 
ATOM      7  C   UNL     1       0.934   2.966  19.566  0.00  0.00    +0.000 A 
ATOM      8  C   UNL     1       1.548   2.159  18.620  0.00  0.00    +0.000 A 
ATOM      9  C   UNL     1       2.543   2.690  17.799  0.00  0.00    +0.000 A 
ATOM     10  C   UNL     1       2.981   4.025  17.927  0.00  0.00    +0.000 A 
BRANCH  10  11
ATOM     11  N   UNL     1       4.068   4.472  17.127  0.00  0.00    +0.000 N 
ATOM     12  H   UNL     1       3.787   4.847  16.221  0.00  0.00    +0.000 HD
BRANCH  11  13
ATOM     13  C   UNL     1       5.225   5.150  17.606  0.00  0.00    +0.000 A 
ATOM     14  C   UNL     1       5.870   4.728  18.783  0.00  0.00    +0.000 A 
ATOM     15  C   UNL     1       7.055   5.326  19.214  0.00  0.00    +0.000 A 
ATOM     16  C   UNL     1       7.598   6.383  18.491  0.00  0.00    +0.000 A 
ATOM     17  C   UNL     1       6.933   6.868  17.366  0.00  0.00    +0.000 A 
ATOM     18  C   UNL     1       5.743   6.269  16.935  0.00  0.00    +0.000 A 
ATOM     19 CL   UNL     1       4.960   6.914  15.534  0.00  0.00    +0.000 Cl
ENDBRANCH  11  13
ENDBRANCH  10  11
ENDBRANCH   2   5
BRANCH   3  20
ATOM     20  C   UNL     1       2.351   8.583  18.111  0.00  0.00    +0.000 C 
BRANCH  20  21
ATOM     21  C   UNL     1       1.073   9.379  17.845  0.00  0.00    +0.000 C 
BRANCH  21  22
ATOM     22  C   UNL     1       0.755  10.335  18.951  0.00  0.00    +0.000 A 
ATOM     23  C   UNL     1       0.828  11.714  18.883  0.00  0.00    +0.000 A 
ATOM     24  N   UNL     1       0.443  12.224  20.095  0.00  0.00    +0.000 N 
ATOM     25  C   UNL     1       0.122  11.207  20.959  0.00  0.00    +0.000 A 
ATOM     26  C   UNL     1      -0.322  11.261  22.289  0.00  0.00    +0.000 A 
ATOM     27  C   UNL     1      -0.576  10.048  22.936  0.00  0.00    +0.000 A 
ATOM     28  C   UNL     1      -0.392   8.834  22.279  0.00  0.00    +0.000 A 
ATOM     29  C   UNL     1       0.051   8.798  20.951  0.00  0.00    +0.000 A 
ATOM     30  C   UNL     1       0.312  10.008  20.273  0.00  0.00    +0.000 A 
ATOM     31  H   UNL     1       0.398  13.207  20.325  0.00  0.00    +0.000 HD
ENDBRANCH  21  22
ENDBRANCH  20  21
ENDBRANCH   3  20
TORSDOF 6
ENDMDL
MODEL 9
REMARK VINA RESULT:      -8.7      5.383      8.183
REMARK  Name = 
REMARK  6 active torsions:
REMARK  status: ('A' for Active; 'I' for Inactive)
REMARK    1  A    between atoms: C_2  and  C_15
REMARK    2  A    between atoms: N_3  and  C_4
REMARK    3  A    between atoms: C_4  and  C_5
REMARK    4  A    between atoms: C_5  and  C_6
REMARK    5  A    between atoms: C_20  and  N_21
REMARK    6  A    between atoms: N_21  and  C_22
REMARK                            x       y       z     vdW  Elec       q    Type
REMARK                         _______ _______ _______ _____ _____    ______ ____
ROOT
ATOM      1  O   UNL     1       2.441   7.122  18.798  0.00  0.00    +0.000 OA
ATOM      2  C   UNL     1       2.007   6.394  19.685  0.00  0.00    +0.000 C 
ATOM      3  N   UNL     1       1.581   6.862  20.911  0.00  0.00    +0.000 N 
ATOM      4  H   UNL     1       1.413   6.196  21.659  0.00  0.00    +0.000 HD
ENDROOT
BRANCH   2   5
ATOM      5  C   UNL     1       1.973   4.921  19.489  0.00  0.00    +0.000 A 
ATOM      6  C   UNL     1       1.177   4.194  20.393  0.00  0.00    +0.000 A 
ATOM      7  C   UNL     1       1.065   2.807  20.292  0.00  0.00    +0.000 A 
ATOM      8  C   UNL     1       1.720   2.138  19.269  0.00  0.00    +0.000 A 
ATOM      9  C   UNL     1       2.515   2.854  18.373  0.00  0.00    +0.000 A 
ATOM     10  C   UNL     1       2.711   4.245  18.499  0.00  0.00    +0.000 A 
BRANCH  10  11
ATOM     11  N   UNL     1       3.614   4.896  17.614  0.00  0.00    +0.000 N 
ATOM     12  H   UNL     1       3.253   5.765  17.221  0.00  0.00    +0.000 HD
BRANCH  11  13
ATOM     13  C   UNL     1       5.025   4.978  17.782  0.00  0.00    +0.000 A 
ATOM     14  C   UNL     1       5.579   5.436  18.991  0.00  0.00    +0.000 A 
ATOM     15  C   UNL     1       6.959   5.437  19.202  0.00  0.00    +0.000 A 
ATOM     16  C   UNL     1       7.812   5.010  18.189  0.00  0.00    +0.000 A 
ATOM     17  C   UNL     1       7.289   4.627  16.956  0.00  0.00    +0.000 A 
ATOM     18  C   UNL     1       5.904   4.628  16.745  0.00  0.00    +0.000 A 
ATOM     19 CL   UNL     1       5.310   4.144  15.194  0.00  0.00    +0.000 Cl
ENDBRANCH  11  13
ENDBRANCH  10  11
ENDBRANCH   2   5
BRANCH   3  20
ATOM     20  C   UNL     1       1.601   8.286  21.213  0.00  0.00    +0.000 C 
BRANCH  20  21
ATOM     21  C   UNL     1       0.206   8.910  21.190  0.00  0.00    +0.000 C 
BRANCH  21  22
ATOM     22  C   UNL     1       0.096  10.026  20.200  0.00  0.00    +0.000 A 
ATOM     23  C   UNL     1       0.497   9.986  18.878  0.00  0.00    +0.000 A 
ATOM     24  N   UNL     1       0.213  11.199  18.307  0.00  0.00    +0.000 N 
ATOM     25  C   UNL     1      -0.365  12.036  19.229  0.00  0.00    +0.000 A 
ATOM     26  C   UNL     1      -0.817  13.356  19.088  0.00  0.00    +0.000 A 
ATOM     27  C   UNL     1      -1.370  13.974  20.214  0.00  0.00    +0.000 A 
ATOM     28  C   UNL     1      -1.464  13.299  21.429  0.00  0.00    +0.000 A 
ATOM     29  C   UNL     1      -1.007  11.980  21.551  0.00  0.00    +0.000 A 
ATOM     30  C   UNL     1      -0.447  11.332  20.430  0.00  0.00    +0.000 A 
ATOM     31  H   UNL     1       0.397  11.447  17.344  0.00  0.00    +0.000 HD
ENDBRANCH  21  22
ENDBRANCH  20  21
ENDBRANCH   3  20
TORSDOF 6
ENDMDL
