MODEL 1
REMARK VINA RESULT:      -8.8      0.000      0.000
REMARK  Name = 
REMARK  5 active torsions:
REMARK  status: ('A' for Active; 'I' for Inactive)
REMARK    1  A    between atoms: C_2  and  C_29
REMARK    2  A    between atoms: C_6  and  C_7
REMARK    3  A    between atoms: C_9  and  C_10
REMARK    4  A    between atoms: C_10  and  C_11
REMARK    5  A    between atoms: C_18  and  C_19
REMARK                            x       y       z     vdW  Elec       q    Type
REMARK                         _______ _______ _______ _____ _____    ______ ____
ROOT
ATOM      1  C   UNL     1       3.770   6.696  18.102  0.00  0.00    +0.000 A 
ATOM      2  N   UNL     1       3.592   7.986  17.629  0.00  0.00    +0.000 N 
ATOM      3  C   UNL     1       2.365   8.448  18.033  0.00  0.00    +0.000 A 
ATOM      4  N   UNL     1       1.739   7.537  18.742  0.00  0.00    +0.000 NA
ATOM      5  C   UNL     1       2.598   6.462  18.816  0.00  0.00    +0.000 A 
ATOM      6  H   UNL     1       4.242   8.491  17.046  0.00  0.00    +0.000 HD
ENDROOT
BRANCH   1  12
ATOM      7  O   UNL     1       5.674   5.184  13.700  0.00  0.00    +0.000 OA
ATOM      8  C   UNL     1       6.043   4.049  13.975  0.00  0.00    +0.000 C 
ATOM      9  N   UNL     1       6.297   3.572  15.237  0.00  0.00    +0.000 N 
ATOM     10  C   UNL     1       6.158   4.356  16.382  0.00  0.00    +0.000 A 
ATOM     11  C   UNL     1       5.047   5.170  16.592  0.00  0.00    +0.000 A 
ATOM     12  C   UNL     1       4.956   5.899  17.781  0.00  0.00    +0.000 A 
ATOM     13  C   UNL     1       6.026   5.824  18.675  0.00  0.00    +0.000 A 
ATOM     14  C   UNL     1       7.098   5.001  18.369  0.00  0.00    +0.000 A 
ATOM     15  N   UNL     1       7.157   4.221  17.272  0.00  0.00    +0.000 NA
ATOM     16  H   UNL     1       6.977   2.833  15.333  0.00  0.00    +0.000 HD
BRANCH   8  17
ATOM     17  C   UNL     1       6.303   3.053  12.894  0.00  0.00    +0.000 C 
ATOM     18  C   UNL     1       5.337   2.980  11.733  0.00  0.00    +0.000 C 
ATOM     19  C   UNL     1       6.733   3.485  11.512  0.00  0.00    +0.000 C 
ENDBRANCH   8  17
ENDBRANCH   1  12
BRANCH   5  20
ATOM     20  C   UNL     1       2.230   5.255  19.543  0.00  0.00    +0.000 A 
ATOM     21  C   UNL     1       2.598   5.116  20.890  0.00  0.00    +0.000 A 
ATOM     22  C   UNL     1       2.233   3.977  21.610  0.00  0.00    +0.000 A 
ATOM     23  C   UNL     1       1.501   2.977  20.981  0.00  0.00    +0.000 A 
ATOM     24  F   UNL     1       1.136   1.892  21.675  0.00  0.00    +0.000 F 
ATOM     25  C   UNL     1       1.142   3.085  19.644  0.00  0.00    +0.000 A 
ATOM     26  C   UNL     1       1.523   4.215  18.920  0.00  0.00    +0.000 A 
ENDBRANCH   5  20
BRANCH   3  27
ATOM     27  C   UNL     1       1.868   9.819  17.698  0.00  0.00    +0.000 C 
BRANCH  27  28
ATOM     28  C   UNL     1       0.755  10.304  18.603  0.00  0.00    +0.000 A 
ATOM     29  C   UNL     1       1.051  10.874  19.852  0.00  0.00    +0.000 A 
ATOM     30  C   UNL     1       0.031  11.357  20.673  0.00  0.00    +0.000 A 
ATOM     31  C   UNL     1      -1.296  11.283  20.255  0.00  0.00    +0.000 A 
ATOM     32  C   UNL     1      -1.604  10.725  19.016  0.00  0.00    +0.000 A 
ATOM     33  C   UNL     1      -0.585  10.241  18.192  0.00  0.00    +0.000 A 
ENDBRANCH  27  28
ENDBRANCH   3  27
TORSDOF 5
ENDMDL
MODEL 2
REMARK VINA RESULT:      -8.7      0.095      1.229
REMARK  Name = 
REMARK  5 active torsions:
REMARK  status: ('A' for Active; 'I' for Inactive)
REMARK    1  A    between atoms: C_2  and  C_29
REMARK    2  A    between atoms: C_6  and  C_7
REMARK    3  A    between atoms: C_9  and  C_10
REMARK    4  A    between atoms: C_10  and  C_11
REMARK    5  A    between atoms: C_18  and  C_19
REMARK                            x       y       z     vdW  Elec       q    Type
REMARK                         _______ _______ _______ _____ _____    ______ ____
ROOT
ATOM      1  C   UNL     1       3.761   6.712  18.106  0.00  0.00    +0.000 A 
ATOM      2  N   UNL     1       3.578   7.999  17.625  0.00  0.00    +0.000 N 
ATOM      3  C   UNL     1       2.348   8.457  18.024  0.00  0.00    +0.000 A 
ATOM      4  N   UNL     1       1.724   7.548  18.737  0.00  0.00    +0.000 NA
ATOM      5  C   UNL     1       2.588   6.477  18.819  0.00  0.00    +0.000 A 
ATOM      6  H   UNL     1       4.227   8.503  17.041  0.00  0.00    +0.000 HD
ENDROOT
BRANCH   1  12
ATOM      7  O   UNL     1       5.687   5.194  13.715  0.00  0.00    +0.000 OA
ATOM      8  C   UNL     1       6.059   4.061  13.996  0.00  0.00    +0.000 C 
ATOM      9  N   UNL     1       6.309   3.589  15.260  0.00  0.00    +0.000 N 
ATOM     10  C   UNL     1       6.164   4.375  16.402  0.00  0.00    +0.000 A 
ATOM     11  C   UNL     1       5.048   5.186  16.605  0.00  0.00    +0.000 A 
ATOM     12  C   UNL     1       4.951   5.918  17.792  0.00  0.00    +0.000 A 
ATOM     13  C   UNL     1       6.018   5.850  18.689  0.00  0.00    +0.000 A 
ATOM     14  C   UNL     1       7.093   5.030  18.391  0.00  0.00    +0.000 A 
ATOM     15  N   UNL     1       7.159   4.247  17.297  0.00  0.00    +0.000 NA
ATOM     16  H   UNL     1       6.992   2.852  15.360  0.00  0.00    +0.000 HD
BRANCH   8  17
ATOM     17  C   UNL     1       6.326   3.063  12.918  0.00  0.00    +0.000 C 
ATOM     18  C   UNL     1       5.364   2.982  11.754  0.00  0.00    +0.000 C 
ATOM     19  C   UNL     1       6.759   3.492  11.537  0.00  0.00    +0.000 C 
ENDBRANCH   8  17
ENDBRANCH   1  12
BRANCH   5  20
ATOM     20  C   UNL     1       2.224   5.272  19.552  0.00  0.00    +0.000 A 
ATOM     21  C   UNL     1       1.591   4.216  18.878  0.00  0.00    +0.000 A 
ATOM     22  C   UNL     1       1.255   3.044  19.558  0.00  0.00    +0.000 A 
ATOM     23  C   UNL     1       1.554   2.928  20.910  0.00  0.00    +0.000 A 
ATOM     24  F   UNL     1       1.247   1.798  21.559  0.00  0.00    +0.000 F 
ATOM     25  C   UNL     1       2.163   3.969  21.600  0.00  0.00    +0.000 A 
ATOM     26  C   UNL     1       2.481   5.147  20.925  0.00  0.00    +0.000 A 
ENDBRANCH   5  20
BRANCH   3  27
ATOM     27  C   UNL     1       1.846   9.824  17.681  0.00  0.00    +0.000 C 
BRANCH  27  28
ATOM     28  C   UNL     1       0.797  10.350  18.638  0.00  0.00    +0.000 A 
ATOM     29  C   UNL     1      -0.563  10.320  18.291  0.00  0.00    +0.000 A 
ATOM     30  C   UNL     1      -1.537  10.768  19.185  0.00  0.00    +0.000 A 
ATOM     31  C   UNL     1      -1.164  11.246  20.440  0.00  0.00    +0.000 A 
ATOM     32  C   UNL     1       0.181  11.277  20.801  0.00  0.00    +0.000 A 
ATOM     33  C   UNL     1       1.158  10.829  19.907  0.00  0.00    +0.000 A 
ENDBRANCH  27  28
ENDBRANCH   3  27
TORSDOF 5
ENDMDL
MODEL 3
REMARK VINA RESULT:      -8.4      5.264     10.530
REMARK  Name = 
REMARK  5 active torsions:
REMARK  status: ('A' for Active; 'I' for Inactive)
REMARK    1  A    between atoms: C_2  and  C_29
REMARK    2  A    between atoms: C_6  and  C_7
REMARK    3  A    between atoms: C_9  and  C_10
REMARK    4  A    between atoms: C_10  and  C_11
REMARK    5  A    between atoms: C_18  and  C_19
REMARK                            x       y       z     vdW  Elec       q    Type
REMARK                         _______ _______ _______ _____ _____    ______ ____
ROOT
ATOM      1  C   UNL     1      -0.895  10.450  18.256  0.00  0.00    +0.000 A 
ATOM      2  N   UNL     1       0.043   9.612  17.675  0.00  0.00    +0.000 N 
ATOM      3  C   UNL     1       1.169   9.586  18.456  0.00  0.00    +0.000 A 
ATOM      4  N   UNL     1       1.018  10.353  19.511  0.00  0.00    +0.000 NA
ATOM      5  C   UNL     1      -0.255  10.873  19.419  0.00  0.00    +0.000 A 
ATOM      6  H   UNL     1      -0.069   9.130  16.796  0.00  0.00    +0.000 HD
ENDROOT
BRANCH   1  12
ATOM      7  O   UNL     1      -5.119  12.460  20.102  0.00  0.00    +0.000 OA
ATOM      8  C   UNL     1      -5.972  11.784  19.540  0.00  0.00    +0.000 C 
ATOM      9  N   UNL     1      -5.790  11.058  18.390  0.00  0.00    +0.000 N 
ATOM     10  C   UNL     1      -4.573  11.011  17.711  0.00  0.00    +0.000 A 
ATOM     11  C   UNL     1      -3.362  10.820  18.375  0.00  0.00    +0.000 A 
ATOM     12  C   UNL     1      -2.184  10.744  17.627  0.00  0.00    +0.000 A 
ATOM     13  C   UNL     1      -2.275  10.934  16.247  0.00  0.00    +0.000 A 
ATOM     14  C   UNL     1      -3.522  11.137  15.679  0.00  0.00    +0.000 A 
ATOM     15  N   UNL     1      -4.676  11.119  16.375  0.00  0.00    +0.000 NA
ATOM     16  H   UNL     1      -6.591  10.914  17.793  0.00  0.00    +0.000 HD
BRANCH   8  17
ATOM     17  C   UNL     1      -7.367  11.730  20.070  0.00  0.00    +0.000 C 
ATOM     18  C   UNL     1      -7.796  10.508  20.849  0.00  0.00    +0.000 C 
ATOM     19  C   UNL     1      -7.651  11.827  21.549  0.00  0.00    +0.000 C 
ENDBRANCH   8  17
ENDBRANCH   1  12
BRANCH   5  20
ATOM     20  C   UNL     1      -0.774  11.776  20.437  0.00  0.00    +0.000 A 
ATOM     21  C   UNL     1      -1.089  13.100  20.094  0.00  0.00    +0.000 A 
ATOM     22  C   UNL     1      -1.609  13.974  21.050  0.00  0.00    +0.000 A 
ATOM     23  C   UNL     1      -1.816  13.522  22.348  0.00  0.00    +0.000 A 
ATOM     24  F   UNL     1      -2.331  14.355  23.262  0.00  0.00    +0.000 F 
ATOM     25  C   UNL     1      -1.494  12.221  22.713  0.00  0.00    +0.000 A 
ATOM     26  C   UNL     1      -0.957  11.354  21.763  0.00  0.00    +0.000 A 
ENDBRANCH   5  20
BRANCH   3  27
ATOM     27  C   UNL     1       2.370   8.762  18.115  0.00  0.00    +0.000 C 
BRANCH  27  28
ATOM     28  C   UNL     1       2.331   7.358  18.681  0.00  0.00    +0.000 A 
ATOM     29  C   UNL     1       2.019   7.145  20.033  0.00  0.00    +0.000 A 
ATOM     30  C   UNL     1       1.944   5.851  20.552  0.00  0.00    +0.000 A 
ATOM     31  C   UNL     1       2.175   4.754  19.724  0.00  0.00    +0.000 A 
ATOM     32  C   UNL     1       2.481   4.950  18.379  0.00  0.00    +0.000 A 
ATOM     33  C   UNL     1       2.556   6.245  17.858  0.00  0.00    +0.000 A 
ENDBRANCH  27  28
ENDBRANCH   3  27
TORSDOF 5
ENDMDL
MODEL 4
REMARK VINA RESULT:      -8.3      0.763      1.051
REMARK  Name = 
REMARK  5 active torsions:
REMARK  status: ('A' for Active; 'I' for Inactive)
REMARK    1  A    between atoms: C_2  and  C_29
REMARK    2  A    between atoms: C_6  and  C_7
REMARK    3  A    between atoms: C_9  and  C_10
REMARK    4  A    between atoms: C_10  and  C_11
REMARK    5  A    between atoms: C_18  and  C_19
REMARK                            x       y       z     vdW  Elec       q    Type
REMARK                         _______ _______ _______ _____ _____    ______ ____
ROOT
ATOM      1  C   UNL     1       3.572   6.614  18.152  0.00  0.00    +0.000 A 
ATOM      2  N   UNL     1       3.311   7.872  17.632  0.00  0.00    +0.000 N 
ATOM      3  C   UNL     1       2.060   8.271  18.026  0.00  0.00    +0.000 A 
ATOM      4  N   UNL     1       1.495   7.350  18.773  0.00  0.00    +0.000 NA
ATOM      5  C   UNL     1       2.420   6.335  18.883  0.00  0.00    +0.000 A 
ATOM      6  H   UNL     1       3.926   8.393  17.027  0.00  0.00    +0.000 HD
ENDROOT
BRANCH   1  12
ATOM      7  O   UNL     1       5.626   5.192  13.787  0.00  0.00    +0.000 OA
ATOM      8  C   UNL     1       6.051   4.080  14.074  0.00  0.00    +0.000 C 
ATOM      9  N   UNL     1       6.309   3.621  15.341  0.00  0.00    +0.000 N 
ATOM     10  C   UNL     1       6.110   4.400  16.481  0.00  0.00    +0.000 A 
ATOM     11  C   UNL     1       4.953   5.154  16.669  0.00  0.00    +0.000 A 
ATOM     12  C   UNL     1       4.804   5.881  17.854  0.00  0.00    +0.000 A 
ATOM     13  C   UNL     1       5.862   5.867  18.764  0.00  0.00    +0.000 A 
ATOM     14  C   UNL     1       6.981   5.102  18.480  0.00  0.00    +0.000 A 
ATOM     15  N   UNL     1       7.100   4.323  17.387  0.00  0.00    +0.000 NA
ATOM     16  H   UNL     1       7.027   2.920  15.451  0.00  0.00    +0.000 HD
BRANCH   8  17
ATOM     17  C   UNL     1       6.381   3.095  13.001  0.00  0.00    +0.000 C 
ATOM     18  C   UNL     1       5.451   2.983  11.813  0.00  0.00    +0.000 C 
ATOM     19  C   UNL     1       6.831   3.545  11.631  0.00  0.00    +0.000 C 
ENDBRANCH   8  17
ENDBRANCH   1  12
BRANCH   5  20
ATOM     20  C   UNL     1       2.131   5.135  19.656  0.00  0.00    +0.000 A 
ATOM     21  C   UNL     1       2.534   5.061  20.999  0.00  0.00    +0.000 A 
ATOM     22  C   UNL     1       2.245   3.930  21.763  0.00  0.00    +0.000 A 
ATOM     23  C   UNL     1       1.553   2.872  21.184  0.00  0.00    +0.000 A 
ATOM     24  F   UNL     1       1.261   1.793  21.921  0.00  0.00    +0.000 F 
ATOM     25  C   UNL     1       1.162   2.916  19.852  0.00  0.00    +0.000 A 
ATOM     26  C   UNL     1       1.467   4.039  19.084  0.00  0.00    +0.000 A 
ENDBRANCH   5  20
BRANCH   3  27
ATOM     27  C   UNL     1       1.476   9.594  17.644  0.00  0.00    +0.000 C 
BRANCH  27  28
ATOM     28  C   UNL     1       1.313  10.550  18.807  0.00  0.00    +0.000 A 
ATOM     29  C   UNL     1       0.708  10.122  20.000  0.00  0.00    +0.000 A 
ATOM     30  C   UNL     1       0.589  10.989  21.088  0.00  0.00    +0.000 A 
ATOM     31  C   UNL     1       1.076  12.290  21.000  0.00  0.00    +0.000 A 
ATOM     32  C   UNL     1       1.683  12.728  19.824  0.00  0.00    +0.000 A 
ATOM     33  C   UNL     1       1.804  11.862  18.734  0.00  0.00    +0.000 A 
ENDBRANCH  27  28
ENDBRANCH   3  27
TORSDOF 5
ENDMDL
MODEL 5
REMARK VINA RESULT:      -8.0      1.346      1.590
REMARK  Name = 
REMARK  5 active torsions:
REMARK  status: ('A' for Active; 'I' for Inactive)
REMARK    1  A    between atoms: C_2  and  C_29
REMARK    2  A    between atoms: C_6  and  C_7
REMARK    3  A    between atoms: C_9  and  C_10
REMARK    4  A    between atoms: C_10  and  C_11
REMARK    5  A    between atoms: C_18  and  C_19
REMARK                            x       y       z     vdW  Elec       q    Type
REMARK                         _______ _______ _______ _____ _____    ______ ____
ROOT
ATOM      1  C   UNL     1       3.765   6.995  17.627  0.00  0.00    +0.000 A 
ATOM      2  N   UNL     1       3.325   8.308  17.589  0.00  0.00    +0.000 N 
ATOM      3  C   UNL     1       2.049   8.370  18.090  0.00  0.00    +0.000 A 
ATOM      4  N   UNL     1       1.637   7.177  18.454  0.00  0.00    +0.000 NA
ATOM      5  C   UNL     1       2.688   6.323  18.201  0.00  0.00    +0.000 A 
ATOM      6  H   UNL     1       3.843   9.088  17.214  0.00  0.00    +0.000 HD
ENDROOT
BRANCH   1  12
ATOM      7  O   UNL     1       5.051   4.776  13.301  0.00  0.00    +0.000 OA
ATOM      8  C   UNL     1       5.926   4.006  13.678  0.00  0.00    +0.000 C 
ATOM      9  N   UNL     1       6.646   4.117  14.841  0.00  0.00    +0.000 N 
ATOM     10  C   UNL     1       6.454   5.155  15.751  0.00  0.00    +0.000 A 
ATOM     11  C   UNL     1       5.184   5.564  16.151  0.00  0.00    +0.000 A 
ATOM     12  C   UNL     1       5.068   6.587  17.097  0.00  0.00    +0.000 A 
ATOM     13  C   UNL     1       6.241   7.196  17.545  0.00  0.00    +0.000 A 
ATOM     14  C   UNL     1       7.458   6.733  17.075  0.00  0.00    +0.000 A 
ATOM     15  N   UNL     1       7.590   5.687  16.236  0.00  0.00    +0.000 NA
ATOM     16  H   UNL     1       7.580   3.735  14.854  0.00  0.00    +0.000 HD
BRANCH   8  17
ATOM     17  C   UNL     1       6.329   2.845  12.830  0.00  0.00    +0.000 C 
ATOM     18  C   UNL     1       5.511   2.533  11.597  0.00  0.00    +0.000 C 
ATOM     19  C   UNL     1       6.916   3.042  11.453  0.00  0.00    +0.000 C 
ENDBRANCH   8  17
ENDBRANCH   1  12
BRANCH   5  20
ATOM     20  C   UNL     1       2.587   4.899  18.493  0.00  0.00    +0.000 A 
ATOM     21  C   UNL     1       3.481   4.312  19.401  0.00  0.00    +0.000 A 
ATOM     22  C   UNL     1       3.385   2.955  19.712  0.00  0.00    +0.000 A 
ATOM     23  C   UNL     1       2.393   2.186  19.114  0.00  0.00    +0.000 A 
ATOM     24  F   UNL     1       2.289   0.887  19.424  0.00  0.00    +0.000 F 
ATOM     25  C   UNL     1       1.510   2.743  18.199  0.00  0.00    +0.000 A 
ATOM     26  C   UNL     1       1.618   4.095  17.874  0.00  0.00    +0.000 A 
ENDBRANCH   5  20
BRANCH   3  27
ATOM     27  C   UNL     1       1.286   9.652  18.200  0.00  0.00    +0.000 C 
BRANCH  27  28
ATOM     28  C   UNL     1       0.715   9.908  19.579  0.00  0.00    +0.000 A 
ATOM     29  C   UNL     1      -0.234  10.923  19.779  0.00  0.00    +0.000 A 
ATOM     30  C   UNL     1      -0.793  11.138  21.040  0.00  0.00    +0.000 A 
ATOM     31  C   UNL     1      -0.414  10.338  22.116  0.00  0.00    +0.000 A 
ATOM     32  C   UNL     1       0.523   9.323  21.932  0.00  0.00    +0.000 A 
ATOM     33  C   UNL     1       1.083   9.106  20.670  0.00  0.00    +0.000 A 
ENDBRANCH  27  28
ENDBRANCH   3  27
TORSDOF 5
ENDMDL
MODEL 6
REMARK VINA RESULT:      -8.0      4.953     10.433
REMARK  Name = 
REMARK  5 active torsions:
REMARK  status: ('A' for Active; 'I' for Inactive)
REMARK    1  A    between atoms: C_2  and  C_29
REMARK    2  A    between atoms: C_6  and  C_7
REMARK    3  A    between atoms: C_9  and  C_10
REMARK    4  A    between atoms: C_10  and  C_11
REMARK    5  A    between atoms: C_18  and  C_19
REMARK                            x       y       z     vdW  Elec       q    Type
REMARK                         _______ _______ _______ _____ _____    ______ ____
ROOT
ATOM      1  C   UNL     1      -0.611  10.246  18.305  0.00  0.00    +0.000 A 
ATOM      2  N   UNL     1       0.246   9.433  17.581  0.00  0.00    +0.000 N 
ATOM      3  C   UNL     1       1.423   9.293  18.271  0.00  0.00    +0.000 A 
ATOM      4  N   UNL     1       1.379   9.962  19.400  0.00  0.00    +0.000 NA
ATOM      5  C   UNL     1       0.127  10.534  19.451  0.00  0.00    +0.000 A 
ATOM      6  H   UNL     1       0.052   9.041  16.673  0.00  0.00    +0.000 HD
ENDROOT
BRANCH   1  12
ATOM      7  O   UNL     1      -4.106  13.323  20.204  0.00  0.00    +0.000 OA
ATOM      8  C   UNL     1      -5.134  12.720  19.924  0.00  0.00    +0.000 C 
ATOM      9  N   UNL     1      -5.262  11.762  18.949  0.00  0.00    +0.000 N 
ATOM     10  C   UNL     1      -4.199  11.359  18.142  0.00  0.00    +0.000 A 
ATOM     11  C   UNL     1      -2.937  11.081  18.665  0.00  0.00    +0.000 A 
ATOM     12  C   UNL     1      -1.928  10.644  17.803  0.00  0.00    +0.000 A 
ATOM     13  C   UNL     1      -2.221  10.574  16.440  0.00  0.00    +0.000 A 
ATOM     14  C   UNL     1      -3.500  10.890  16.012  0.00  0.00    +0.000 A 
ATOM     15  N   UNL     1      -4.508  11.221  16.841  0.00  0.00    +0.000 NA
ATOM     16  H   UNL     1      -6.165  11.655  18.511  0.00  0.00    +0.000 HD
BRANCH   8  17
ATOM     17  C   UNL     1      -6.412  13.029  20.633  0.00  0.00    +0.000 C 
ATOM     18  C   UNL     1      -7.472  13.818  19.898  0.00  0.00    +0.000 C 
ATOM     19  C   UNL     1      -7.712  12.375  20.232  0.00  0.00    +0.000 C 
ENDBRANCH   8  17
ENDBRANCH   1  12
BRANCH   5  20
ATOM     20  C   UNL     1      -0.280  11.355  20.583  0.00  0.00    +0.000 A 
ATOM     21  C   UNL     1      -0.712  10.739  21.767  0.00  0.00    +0.000 A 
ATOM     22  C   UNL     1      -1.082  11.508  22.871  0.00  0.00    +0.000 A 
ATOM     23  C   UNL     1      -1.020  12.895  22.789  0.00  0.00    +0.000 A 
ATOM     24  F   UNL     1      -1.360  13.633  23.853  0.00  0.00    +0.000 F 
ATOM     25  C   UNL     1      -0.614  13.525  21.621  0.00  0.00    +0.000 A 
ATOM     26  C   UNL     1      -0.261  12.756  20.512  0.00  0.00    +0.000 A 
ENDBRANCH   5  20
BRANCH   3  27
ATOM     27  C   UNL     1       2.560   8.462  17.767  0.00  0.00    +0.000 C 
BRANCH  27  28
ATOM     28  C   UNL     1       2.634   7.083  18.388  0.00  0.00    +0.000 A 
ATOM     29  C   UNL     1       3.238   6.021  17.695  0.00  0.00    +0.000 A 
ATOM     30  C   UNL     1       3.342   4.757  18.278  0.00  0.00    +0.000 A 
ATOM     31  C   UNL     1       2.850   4.539  19.563  0.00  0.00    +0.000 A 
ATOM     32  C   UNL     1       2.252   5.585  20.266  0.00  0.00    +0.000 A 
ATOM     33  C   UNL     1       2.147   6.851  19.683  0.00  0.00    +0.000 A 
ENDBRANCH  27  28
ENDBRANCH   3  27
TORSDOF 5
ENDMDL
MODEL 7
REMARK VINA RESULT:      -7.9      4.700     10.203
REMARK  Name = 
REMARK  5 active torsions:
REMARK  status: ('A' for Active; 'I' for Inactive)
REMARK    1  A    between atoms: C_2  and  C_29
REMARK    2  A    between atoms: C_6  and  C_7
REMARK    3  A    between atoms: C_9  and  C_10
REMARK    4  A    between atoms: C_10  and  C_11
REMARK    5  A    between atoms: C_18  and  C_19
REMARK                            x       y       z     vdW  Elec       q    Type
REMARK                         _______ _______ _______ _____ _____    ______ ____
ROOT
ATOM      1  C   UNL     1       0.569   9.630  19.548  0.00  0.00    +0.000 A 
ATOM      2  N   UNL     1       1.810   9.033  19.392  0.00  0.00    +0.000 N 
ATOM      3  C   UNL     1       2.011   8.754  18.065  0.00  0.00    +0.000 A 
ATOM      4  N   UNL     1       0.978   9.137  17.350  0.00  0.00    +0.000 NA
ATOM      5  C   UNL     1       0.092   9.701  18.241  0.00  0.00    +0.000 A 
ATOM      6  H   UNL     1       2.446   8.803  20.140  0.00  0.00    +0.000 HD
ENDROOT
BRANCH   1  12
ATOM      7  O   UNL     1      -2.156  13.577  21.062  0.00  0.00    +0.000 OA
ATOM      8  C   UNL     1      -1.661  13.803  22.159  0.00  0.00    +0.000 C 
ATOM      9  N   UNL     1      -0.936  12.913  22.911  0.00  0.00    +0.000 N 
ATOM     10  C   UNL     1      -0.676  11.608  22.493  0.00  0.00    +0.000 A 
ATOM     11  C   UNL     1      -0.251  11.316  21.199  0.00  0.00    +0.000 A 
ATOM     12  C   UNL     1       0.029   9.988  20.861  0.00  0.00    +0.000 A 
ATOM     13  C   UNL     1      -0.200   9.008  21.828  0.00  0.00    +0.000 A 
ATOM     14  C   UNL     1      -0.642   9.395  23.082  0.00  0.00    +0.000 A 
ATOM     15  N   UNL     1      -0.826  10.677  23.452  0.00  0.00    +0.000 NA
ATOM     16  H   UNL     1      -0.954  13.021  23.914  0.00  0.00    +0.000 HD
BRANCH   8  17
ATOM     17  C   UNL     1      -1.858  15.127  22.820  0.00  0.00    +0.000 C 
ATOM     18  C   UNL     1      -3.199  15.427  23.450  0.00  0.00    +0.000 C 
ATOM     19  C   UNL     1      -1.990  15.246  24.319  0.00  0.00    +0.000 C 
ENDBRANCH   8  17
ENDBRANCH   1  12
BRANCH   5  20
ATOM     20  C   UNL     1      -1.181  10.248  17.792  0.00  0.00    +0.000 A 
ATOM     21  C   UNL     1      -1.881   9.612  16.755  0.00  0.00    +0.000 A 
ATOM     22  C   UNL     1      -3.114  10.106  16.327  0.00  0.00    +0.000 A 
ATOM     23  C   UNL     1      -3.647  11.236  16.936  0.00  0.00    +0.000 A 
ATOM     24  F   UNL     1      -4.837  11.702  16.538  0.00  0.00    +0.000 F 
ATOM     25  C   UNL     1      -2.962  11.892  17.952  0.00  0.00    +0.000 A 
ATOM     26  C   UNL     1      -1.721  11.408  18.366  0.00  0.00    +0.000 A 
ENDBRANCH   5  20
BRANCH   3  27
ATOM     27  C   UNL     1       3.265   8.116  17.555  0.00  0.00    +0.000 C 
BRANCH  27  28
ATOM     28  C   UNL     1       3.372   6.639  17.869  0.00  0.00    +0.000 A 
ATOM     29  C   UNL     1       2.214   5.865  18.053  0.00  0.00    +0.000 A 
ATOM     30  C   UNL     1       2.306   4.495  18.305  0.00  0.00    +0.000 A 
ATOM     31  C   UNL     1       3.555   3.880  18.372  0.00  0.00    +0.000 A 
ATOM     32  C   UNL     1       4.712   4.634  18.187  0.00  0.00    +0.000 A 
ATOM     33  C   UNL     1       4.622   6.006  17.934  0.00  0.00    +0.000 A 
ENDBRANCH  27  28
ENDBRANCH   3  27
TORSDOF 5
ENDMDL
MODEL 8
REMARK VINA RESULT:      -7.8      5.348     10.678
REMARK  Name = 
REMARK  5 active torsions:
REMARK  status: ('A' for Active; 'I' for Inactive)
REMARK    1  A    between atoms: C_2  and  C_29
REMARK    2  A    between atoms: C_6  and  C_7
REMARK    3  A    between atoms: C_9  and  C_10
REMARK    4  A    between atoms: C_10  and  C_11
REMARK    5  A    between atoms: C_18  and  C_19
REMARK                            x       y       z     vdW  Elec       q    Type
REMARK                         _______ _______ _______ _____ _____    ______ ____
ROOT
ATOM      1  C   UNL     1      -0.559  10.605  18.065  0.00  0.00    +0.000 A 
ATOM      2  N   UNL     1       0.164   9.529  17.576  0.00  0.00    +0.000 N 
ATOM      3  C   UNL     1       1.436   9.572  18.089  0.00  0.00    +0.000 A 
ATOM      4  N   UNL     1       1.580  10.608  18.883  0.00  0.00    +0.000 NA
ATOM      5  C   UNL     1       0.356  11.241  18.901  0.00  0.00    +0.000 A 
ATOM      6  H   UNL     1      -0.176   8.847  16.916  0.00  0.00    +0.000 HD
ENDROOT
BRANCH   1  12
ATOM      7  O   UNL     1      -4.188  13.365  20.187  0.00  0.00    +0.000 OA
ATOM      8  C   UNL     1      -5.173  12.670  19.974  0.00  0.00    +0.000 C 
ATOM      9  N   UNL     1      -5.277  11.699  19.009  0.00  0.00    +0.000 N 
ATOM     10  C   UNL     1      -4.235  11.389  18.135  0.00  0.00    +0.000 A 
ATOM     11  C   UNL     1      -2.923  11.229  18.575  0.00  0.00    +0.000 A 
ATOM     12  C   UNL     1      -1.936  10.881  17.649  0.00  0.00    +0.000 A 
ATOM     13  C   UNL     1      -2.309  10.776  16.308  0.00  0.00    +0.000 A 
ATOM     14  C   UNL     1      -3.636  10.972  15.964  0.00  0.00    +0.000 A 
ATOM     15  N   UNL     1      -4.615  11.216  16.857  0.00  0.00    +0.000 NA
ATOM     16  H   UNL     1      -6.193  11.508  18.631  0.00  0.00    +0.000 HD
BRANCH   8  17
ATOM     17  C   UNL     1      -6.425  12.867  20.764  0.00  0.00    +0.000 C 
ATOM     18  C   UNL     1      -7.654  13.386  20.053  0.00  0.00    +0.000 C 
ATOM     19  C   UNL     1      -7.628  11.976  20.567  0.00  0.00    +0.000 C 
ENDBRANCH   8  17
ENDBRANCH   1  12
BRANCH   5  20
ATOM     20  C   UNL     1       0.143  12.443  19.694  0.00  0.00    +0.000 A 
ATOM     21  C   UNL     1       0.208  13.702  19.077  0.00  0.00    +0.000 A 
ATOM     22  C   UNL     1      -0.016  14.865  19.816  0.00  0.00    +0.000 A 
ATOM     23  C   UNL     1      -0.306  14.768  21.172  0.00  0.00    +0.000 A 
ATOM     24  F   UNL     1      -0.538  15.881  21.878  0.00  0.00    +0.000 F 
ATOM     25  C   UNL     1      -0.357  13.533  21.807  0.00  0.00    +0.000 A 
ATOM     26  C   UNL     1      -0.114  12.373  21.072  0.00  0.00    +0.000 A 
ENDBRANCH   5  20
BRANCH   3  27
ATOM     27  C   UNL     1       2.471   8.540  17.767  0.00  0.00    +0.000 C 
BRANCH  27  28
ATOM     28  C   UNL     1       2.316   7.253  18.549  0.00  0.00    +0.000 A 
ATOM     29  C   UNL     1       2.114   7.284  19.939  0.00  0.00    +0.000 A 
ATOM     30  C   UNL     1       1.932   6.102  20.659  0.00  0.00    +0.000 A 
ATOM     31  C   UNL     1       1.945   4.875  19.999  0.00  0.00    +0.000 A 
ATOM     32  C   UNL     1       2.139   4.828  18.620  0.00  0.00    +0.000 A 
ATOM     33  C   UNL     1       2.321   6.011  17.897  0.00  0.00    +0.000 A 
ENDBRANCH  27  28
ENDBRANCH   3  27
TORSDOF 5
ENDMDL
MODEL 9
REMARK VINA RESULT:      -7.8      5.505     10.897
REMARK  Name = 
REMARK  5 active torsions:
REMARK  status: ('A' for Active; 'I' for Inactive)
REMARK    1  A    between atoms: C_2  and  C_29
REMARK    2  A    between atoms: C_6  and  C_7
REMARK    3  A    between atoms: C_9  and  C_10
REMARK    4  A    between atoms: C_10  and  C_11
REMARK    5  A    between atoms: C_18  and  C_19
REMARK                            x       y       z     vdW  Elec       q    Type
REMARK                         _______ _______ _______ _____ _____    ______ ____
ROOT
ATOM      1  C   UNL     1      -0.653  10.871  18.100  0.00  0.00    +0.000 A 
ATOM      2  N   UNL     1       0.057   9.755  17.687  0.00  0.00    +0.000 N 
ATOM      3  C   UNL     1       1.361   9.875  18.095  0.00  0.00    +0.000 A 
ATOM      4  N   UNL     1       1.539  10.999  18.751  0.00  0.00    +0.000 NA
ATOM      5  C   UNL     1       0.306  11.613  18.787  0.00  0.00    +0.000 A 
ATOM      6  H   UNL     1      -0.314   8.996  17.137  0.00  0.00    +0.000 HD
ENDROOT
BRANCH   1  12
ATOM      7  O   UNL     1      -4.279  13.507  20.378  0.00  0.00    +0.000 OA
ATOM      8  C   UNL     1      -5.242  12.765  20.233  0.00  0.00    +0.000 C 
ATOM      9  N   UNL     1      -5.355  11.772  19.292  0.00  0.00    +0.000 N 
ATOM     10  C   UNL     1      -4.351  11.492  18.365  0.00  0.00    +0.000 A 
ATOM     11  C   UNL     1      -3.010  11.399  18.733  0.00  0.00    +0.000 A 
ATOM     12  C   UNL     1      -2.062  11.077  17.758  0.00  0.00    +0.000 A 
ATOM     13  C   UNL     1      -2.504  10.931  16.442  0.00  0.00    +0.000 A 
ATOM     14  C   UNL     1      -3.856  11.061  16.171  0.00  0.00    +0.000 A 
ATOM     15  N   UNL     1      -4.793  11.278  17.114  0.00  0.00    +0.000 NA
ATOM     16  H   UNL     1      -6.281  11.534  18.969  0.00  0.00    +0.000 HD
BRANCH   8  17
ATOM     17  C   UNL     1      -6.455  12.921  21.089  0.00  0.00    +0.000 C 
ATOM     18  C   UNL     1      -7.681  13.576  20.493  0.00  0.00    +0.000 C 
ATOM     19  C   UNL     1      -7.707  12.115  20.836  0.00  0.00    +0.000 C 
ENDBRANCH   8  17
ENDBRANCH   1  12
BRANCH   5  20
ATOM     20  C   UNL     1       0.124  12.897  19.449  0.00  0.00    +0.000 A 
ATOM     21  C   UNL     1       0.115  12.959  20.852  0.00  0.00    +0.000 A 
ATOM     22  C   UNL     1      -0.034  14.183  21.505  0.00  0.00    +0.000 A 
ATOM     23  C   UNL     1      -0.173  15.345  20.755  0.00  0.00    +0.000 A 
ATOM     24  F   UNL     1      -0.299  16.522  21.381  0.00  0.00    +0.000 F 
ATOM     25  C   UNL     1      -0.185  15.305  19.367  0.00  0.00    +0.000 A 
ATOM     26  C   UNL     1      -0.055  14.079  18.715  0.00  0.00    +0.000 A 
ENDBRANCH   5  20
BRANCH   3  27
ATOM     27  C   UNL     1       2.393   8.827  17.820  0.00  0.00    +0.000 C 
BRANCH  27  28
ATOM     28  C   UNL     1       2.219   7.566  18.639  0.00  0.00    +0.000 A 
ATOM     29  C   UNL     1       2.424   6.305  18.056  0.00  0.00    +0.000 A 
ATOM     30  C   UNL     1       2.302   5.141  18.817  0.00  0.00    +0.000 A 
ATOM     31  C   UNL     1       1.979   5.222  20.170  0.00  0.00    +0.000 A 
ATOM     32  C   UNL     1       1.777   6.466  20.763  0.00  0.00    +0.000 A 
ATOM     33  C   UNL     1       1.899   7.633  20.004  0.00  0.00    +0.000 A 
ENDBRANCH  27  28
ENDBRANCH   3  27
TORSDOF 5
ENDMDL
