MODEL 1
REMARK VINA RESULT:      -7.9      0.000      0.000
REMARK  Name = 
REMARK  2 active torsions:
REMARK  status: ('A' for Active; 'I' for Inactive)
REMARK    1  A    between atoms: C_2  and  C_4
REMARK    2  A    between atoms: C_9  and  C_10
REMARK                            x       y       z     vdW  Elec       q    Type
REMARK                         _______ _______ _______ _____ _____    ______ ____
ROOT
ATOM      1  C   UNL     1       2.480   4.018  20.504  0.00  0.00    +0.000 C 
ATOM      2  C   UNL     1       1.214   4.180  19.619  0.00  0.00    +0.000 C 
ATOM      3  C   UNL     1       1.342   3.587  18.202  0.00  0.00    +0.000 C 
ATOM      4  C   UNL     1       2.533   4.197  17.449  0.00  0.00    +0.000 C 
ATOM      5  C   UNL     1       3.761   4.071  18.276  0.00  0.00    +0.000 A 
ATOM      6  C   UNL     1       5.143   4.119  17.944  0.00  0.00    +0.000 A 
ATOM      7  N   UNL     1       5.883   3.885  19.044  0.00  0.00    +0.000 NA
ATOM      8  N   UNL     1       4.999   3.805  20.057  0.00  0.00    +0.000 N 
ATOM      9  C   UNL     1       3.708   3.933  19.647  0.00  0.00    +0.000 A 
ATOM     10  H   UNL     1       5.358   3.678  20.999  0.00  0.00    +0.000 HD
ENDROOT
BRANCH   6  11
ATOM     11  C   UNL     1       5.753   4.384  16.634  0.00  0.00    +0.000 A 
ATOM     12  C   UNL     1       5.241   3.786  15.470  0.00  0.00    +0.000 A 
ATOM     13  C   UNL     1       5.841   3.999  14.224  0.00  0.00    +0.000 A 
ATOM     14  C   UNL     1       6.950   4.832  14.128  0.00  0.00    +0.000 A 
ATOM     15 CL   UNL     1       7.699   5.083  12.600  0.00  0.00    +0.000 Cl
ATOM     16  C   UNL     1       7.451   5.466  15.264  0.00  0.00    +0.000 A 
ATOM     17  C   UNL     1       6.853   5.245  16.511  0.00  0.00    +0.000 A 
ENDBRANCH   6  11
BRANCH   1  19
ATOM     18  N   UNL     1       1.055   2.629  21.986  0.00  0.00    +0.000 N 
ATOM     19  C   UNL     1       2.298   2.866  21.488  0.00  0.00    +0.000 C 
ATOM     20  O   UNL     1       3.249   2.207  21.901  0.00  0.00    +0.000 OA
ATOM     21  H   UNL     1       0.961   1.900  22.677  0.00  0.00    +0.000 HD
ATOM     22  H   UNL     1       0.233   3.145  21.697  0.00  0.00    +0.000 HD
ENDBRANCH   1  19
TORSDOF 2
ENDMDL
MODEL 2
REMARK VINA RESULT:      -7.9      0.086      1.108
REMARK  Name = 
REMARK  2 active torsions:
REMARK  status: ('A' for Active; 'I' for Inactive)
REMARK    1  A    between atoms: C_2  and  C_4
REMARK    2  A    between atoms: C_9  and  C_10
REMARK                            x       y       z     vdW  Elec       q    Type
REMARK                         _______ _______ _______ _____ _____    ______ ____
ROOT
ATOM      1  C   UNL     1       2.448   4.002  20.464  0.00  0.00    +0.000 C 
ATOM      2  C   UNL     1       1.193   4.117  19.556  0.00  0.00    +0.000 C 
ATOM      3  C   UNL     1       1.353   3.485  18.159  0.00  0.00    +0.000 C 
ATOM      4  C   UNL     1       2.545   4.092  17.406  0.00  0.00    +0.000 C 
ATOM      5  C   UNL     1       3.762   4.011  18.255  0.00  0.00    +0.000 A 
ATOM      6  C   UNL     1       5.149   4.072  17.942  0.00  0.00    +0.000 A 
ATOM      7  N   UNL     1       5.875   3.883  19.060  0.00  0.00    +0.000 NA
ATOM      8  N   UNL     1       4.976   3.818  20.061  0.00  0.00    +0.000 N 
ATOM      9  C   UNL     1       3.690   3.912  19.628  0.00  0.00    +0.000 A 
ATOM     10  H   UNL     1       5.323   3.725  21.012  0.00  0.00    +0.000 HD
ENDROOT
BRANCH   6  11
ATOM     11  C   UNL     1       5.774   4.309  16.635  0.00  0.00    +0.000 A 
ATOM     12  C   UNL     1       6.957   5.061  16.530  0.00  0.00    +0.000 A 
ATOM     13  C   UNL     1       7.538   5.326  15.285  0.00  0.00    +0.000 A 
ATOM     14  C   UNL     1       6.950   4.822  14.131  0.00  0.00    +0.000 A 
ATOM     15 CL   UNL     1       7.652   5.161  12.598  0.00  0.00    +0.000 Cl
ATOM     16  C   UNL     1       5.797   4.042  14.214  0.00  0.00    +0.000 A 
ATOM     17  C   UNL     1       5.214   3.784  15.461  0.00  0.00    +0.000 A 
ENDBRANCH   6  11
BRANCH   1  19
ATOM     18  N   UNL     1       1.024   2.642  21.975  0.00  0.00    +0.000 N 
ATOM     19  C   UNL     1       2.270   2.876  21.479  0.00  0.00    +0.000 C 
ATOM     20  O   UNL     1       3.223   2.238  21.917  0.00  0.00    +0.000 OA
ATOM     21  H   UNL     1       0.933   1.932  22.685  0.00  0.00    +0.000 HD
ATOM     22  H   UNL     1       0.201   3.142  21.666  0.00  0.00    +0.000 HD
ENDBRANCH   1  19
TORSDOF 2
ENDMDL
MODEL 3
REMARK VINA RESULT:      -7.7      4.473      5.863
REMARK  Name = 
REMARK  2 active torsions:
REMARK  status: ('A' for Active; 'I' for Inactive)
REMARK    1  A    between atoms: C_2  and  C_4
REMARK    2  A    between atoms: C_9  and  C_10
REMARK                            x       y       z     vdW  Elec       q    Type
REMARK                         _______ _______ _______ _____ _____    ______ ____
ROOT
ATOM      1  C   UNL     1       3.471   2.923  19.645  0.00  0.00    +0.000 C 
ATOM      2  C   UNL     1       2.427   2.603  20.749  0.00  0.00    +0.000 C 
ATOM      3  C   UNL     1       1.097   3.371  20.616  0.00  0.00    +0.000 C 
ATOM      4  C   UNL     1       1.330   4.889  20.604  0.00  0.00    +0.000 C 
ATOM      5  C   UNL     1       2.338   5.229  19.566  0.00  0.00    +0.000 A 
ATOM      6  C   UNL     1       2.642   6.447  18.896  0.00  0.00    +0.000 A 
ATOM      7  N   UNL     1       3.607   6.232  17.982  0.00  0.00    +0.000 NA
ATOM      8  N   UNL     1       3.977   4.948  18.149  0.00  0.00    +0.000 N 
ATOM      9  C   UNL     1       3.256   4.308  19.109  0.00  0.00    +0.000 A 
ATOM     10  H   UNL     1       4.740   4.590  17.581  0.00  0.00    +0.000 HD
ENDROOT
BRANCH   6  11
ATOM     11  C   UNL     1       2.052   7.774  19.112  0.00  0.00    +0.000 A 
ATOM     12  C   UNL     1       1.594   8.158  20.384  0.00  0.00    +0.000 A 
ATOM     13  C   UNL     1       0.992   9.403  20.590  0.00  0.00    +0.000 A 
ATOM     14  C   UNL     1       0.860  10.288  19.526  0.00  0.00    +0.000 A 
ATOM     15 CL   UNL     1       0.106  11.814  19.773  0.00  0.00    +0.000 Cl
ATOM     16  C   UNL     1       1.342   9.943  18.264  0.00  0.00    +0.000 A 
ATOM     17  C   UNL     1       1.938   8.692  18.059  0.00  0.00    +0.000 A 
ENDBRANCH   6  11
BRANCH   1  19
ATOM     18  N   UNL     1       4.348   0.776  18.763  0.00  0.00    +0.000 N 
ATOM     19  C   UNL     1       3.491   1.819  18.592  0.00  0.00    +0.000 C 
ATOM     20  O   UNL     1       2.820   1.886  17.566  0.00  0.00    +0.000 OA
ATOM     21  H   UNL     1       4.388   0.083  18.031  0.00  0.00    +0.000 HD
ATOM     22  H   UNL     1       4.937   0.669  19.579  0.00  0.00    +0.000 HD
ENDBRANCH   1  19
TORSDOF 2
ENDMDL
MODEL 4
REMARK VINA RESULT:      -7.7      4.424      5.748
REMARK  Name = 
REMARK  2 active torsions:
REMARK  status: ('A' for Active; 'I' for Inactive)
REMARK    1  A    between atoms: C_2  and  C_4
REMARK    2  A    between atoms: C_9  and  C_10
REMARK                            x       y       z     vdW  Elec       q    Type
REMARK                         _______ _______ _______ _____ _____    ______ ____
ROOT
ATOM      1  C   UNL     1       3.577   2.905  19.715  0.00  0.00    +0.000 C 
ATOM      2  C   UNL     1       2.531   2.604  20.824  0.00  0.00    +0.000 C 
ATOM      3  C   UNL     1       1.192   3.351  20.661  0.00  0.00    +0.000 C 
ATOM      4  C   UNL     1       1.405   4.870  20.603  0.00  0.00    +0.000 C 
ATOM      5  C   UNL     1       2.413   5.192  19.560  0.00  0.00    +0.000 A 
ATOM      6  C   UNL     1       2.705   6.392  18.854  0.00  0.00    +0.000 A 
ATOM      7  N   UNL     1       3.677   6.163  17.952  0.00  0.00    +0.000 NA
ATOM      8  N   UNL     1       4.064   4.889  18.161  0.00  0.00    +0.000 N 
ATOM      9  C   UNL     1       3.346   4.269  19.136  0.00  0.00    +0.000 A 
ATOM     10  H   UNL     1       4.834   4.524  17.607  0.00  0.00    +0.000 HD
ENDROOT
BRANCH   6  11
ATOM     11  C   UNL     1       2.095   7.717  19.026  0.00  0.00    +0.000 A 
ATOM     12  C   UNL     1       2.004   8.610  17.945  0.00  0.00    +0.000 A 
ATOM     13  C   UNL     1       1.463   9.890  18.108  0.00  0.00    +0.000 A 
ATOM     14  C   UNL     1       0.987  10.282  19.355  0.00  0.00    +0.000 A 
ATOM     15 CL   UNL     1       0.336  11.860  19.562  0.00  0.00    +0.000 Cl
ATOM     16  C   UNL     1       1.034   9.398  20.432  0.00  0.00    +0.000 A 
ATOM     17  C   UNL     1       1.583   8.120  20.267  0.00  0.00    +0.000 A 
ENDBRANCH   6  11
BRANCH   1  19
ATOM     18  N   UNL     1       4.429   0.706  18.944  0.00  0.00    +0.000 N 
ATOM     19  C   UNL     1       3.617   1.769  18.698  0.00  0.00    +0.000 C 
ATOM     20  O   UNL     1       3.005   1.826  17.635  0.00  0.00    +0.000 OA
ATOM     21  H   UNL     1       4.486  -0.010  18.236  0.00  0.00    +0.000 HD
ATOM     22  H   UNL     1       4.970   0.606  19.794  0.00  0.00    +0.000 HD
ENDBRANCH   1  19
TORSDOF 2
ENDMDL
MODEL 5
REMARK VINA RESULT:      -7.6      4.251      4.642
REMARK  Name = 
REMARK  2 active torsions:
REMARK  status: ('A' for Active; 'I' for Inactive)
REMARK    1  A    between atoms: C_2  and  C_4
REMARK    2  A    between atoms: C_9  and  C_10
REMARK                            x       y       z     vdW  Elec       q    Type
REMARK                         _______ _______ _______ _____ _____    ______ ____
ROOT
ATOM      1  C   UNL     1       1.155   9.216  20.734  0.00  0.00    +0.000 C 
ATOM      2  C   UNL     1       1.003  10.276  19.610  0.00  0.00    +0.000 C 
ATOM      3  C   UNL     1       0.849   9.689  18.192  0.00  0.00    +0.000 C 
ATOM      4  C   UNL     1       2.033   8.779  17.834  0.00  0.00    +0.000 C 
ATOM      5  C   UNL     1       2.215   7.759  18.900  0.00  0.00    +0.000 A 
ATOM      6  C   UNL     1       2.878   6.501  18.912  0.00  0.00    +0.000 A 
ATOM      7  N   UNL     1       2.710   5.910  20.110  0.00  0.00    +0.000 NA
ATOM      8  N   UNL     1       2.060   6.817  20.865  0.00  0.00    +0.000 N 
ATOM      9  C   UNL     1       1.759   7.956  20.186  0.00  0.00    +0.000 A 
ATOM     10  H   UNL     1       1.873   6.586  21.837  0.00  0.00    +0.000 HD
ENDROOT
BRANCH   6  11
ATOM     11  C   UNL     1       3.653   5.873  17.833  0.00  0.00    +0.000 A 
ATOM     12  C   UNL     1       3.540   4.496  17.576  0.00  0.00    +0.000 A 
ATOM     13  C   UNL     1       4.304   3.881  16.579  0.00  0.00    +0.000 A 
ATOM     14  C   UNL     1       5.177   4.645  15.813  0.00  0.00    +0.000 A 
ATOM     15 CL   UNL     1       6.130   3.890  14.597  0.00  0.00    +0.000 Cl
ATOM     16  C   UNL     1       5.277   6.020  16.025  0.00  0.00    +0.000 A 
ATOM     17  C   UNL     1       4.516   6.631  17.029  0.00  0.00    +0.000 A 
ENDBRANCH   6  11
BRANCH   1  19
ATOM     18  N   UNL     1      -0.701  10.098  22.124  0.00  0.00    +0.000 N 
ATOM     19  C   UNL     1      -0.167   9.030  21.474  0.00  0.00    +0.000 C 
ATOM     20  O   UNL     1      -0.712   7.933  21.565  0.00  0.00    +0.000 OA
ATOM     21  H   UNL     1      -1.546   9.945  22.654  0.00  0.00    +0.000 HD
ATOM     22  H   UNL     1      -0.293  11.024  22.099  0.00  0.00    +0.000 HD
ENDBRANCH   1  19
TORSDOF 2
ENDMDL
MODEL 6
REMARK VINA RESULT:      -7.6      4.232      4.707
REMARK  Name = 
REMARK  2 active torsions:
REMARK  status: ('A' for Active; 'I' for Inactive)
REMARK    1  A    between atoms: C_2  and  C_4
REMARK    2  A    between atoms: C_9  and  C_10
REMARK                            x       y       z     vdW  Elec       q    Type
REMARK                         _______ _______ _______ _____ _____    ______ ____
ROOT
ATOM      1  C   UNL     1       1.149   9.170  20.799  0.00  0.00    +0.000 C 
ATOM      2  C   UNL     1       1.003  10.255  19.698  0.00  0.00    +0.000 C 
ATOM      3  C   UNL     1       0.861   9.701  18.266  0.00  0.00    +0.000 C 
ATOM      4  C   UNL     1       2.050   8.802  17.897  0.00  0.00    +0.000 C 
ATOM      5  C   UNL     1       2.227   7.759  18.940  0.00  0.00    +0.000 A 
ATOM      6  C   UNL     1       2.894   6.502  18.928  0.00  0.00    +0.000 A 
ATOM      7  N   UNL     1       2.718   5.884  20.111  0.00  0.00    +0.000 NA
ATOM      8  N   UNL     1       2.059   6.771  20.882  0.00  0.00    +0.000 N 
ATOM      9  C   UNL     1       1.760   7.925  20.227  0.00  0.00    +0.000 A 
ATOM     10  H   UNL     1       1.865   6.518  21.847  0.00  0.00    +0.000 HD
ENDROOT
BRANCH   6  11
ATOM     11  C   UNL     1       3.678   5.902  17.842  0.00  0.00    +0.000 A 
ATOM     12  C   UNL     1       4.500   6.697  17.025  0.00  0.00    +0.000 A 
ATOM     13  C   UNL     1       5.218   6.140  15.962  0.00  0.00    +0.000 A 
ATOM     14  C   UNL     1       5.138   4.774  15.718  0.00  0.00    +0.000 A 
ATOM     15 CL   UNL     1       6.008   4.089  14.402  0.00  0.00    +0.000 Cl
ATOM     16  C   UNL     1       4.360   3.960  16.540  0.00  0.00    +0.000 A 
ATOM     17  C   UNL     1       3.635   4.521  17.599  0.00  0.00    +0.000 A 
ENDBRANCH   6  11
BRANCH   1  19
ATOM     18  N   UNL     1      -0.653   9.970  22.305  0.00  0.00    +0.000 N 
ATOM     19  C   UNL     1      -0.179   8.964  21.523  0.00  0.00    +0.000 C 
ATOM     20  O   UNL     1      -0.781   7.894  21.485  0.00  0.00    +0.000 OA
ATOM     21  H   UNL     1      -1.503   9.798  22.821  0.00  0.00    +0.000 HD
ATOM     22  H   UNL     1      -0.197  10.870  22.390  0.00  0.00    +0.000 HD
ENDBRANCH   1  19
TORSDOF 2
ENDMDL
MODEL 7
REMARK VINA RESULT:      -7.6      1.036      1.489
REMARK  Name = 
REMARK  2 active torsions:
REMARK  status: ('A' for Active; 'I' for Inactive)
REMARK    1  A    between atoms: C_2  and  C_4
REMARK    2  A    between atoms: C_9  and  C_10
REMARK                            x       y       z     vdW  Elec       q    Type
REMARK                         _______ _______ _______ _____ _____    ______ ____
ROOT
ATOM      1  C   UNL     1       1.686   3.843  20.179  0.00  0.00    +0.000 C 
ATOM      2  C   UNL     1       0.927   2.811  19.301  0.00  0.00    +0.000 C 
ATOM      3  C   UNL     1       1.831   1.951  18.396  0.00  0.00    +0.000 C 
ATOM      4  C   UNL     1       2.688   2.828  17.470  0.00  0.00    +0.000 C 
ATOM      5  C   UNL     1       3.418   3.838  18.279  0.00  0.00    +0.000 A 
ATOM      6  C   UNL     1       4.575   4.620  18.009  0.00  0.00    +0.000 A 
ATOM      7  N   UNL     1       4.891   5.353  19.093  0.00  0.00    +0.000 NA
ATOM      8  N   UNL     1       3.900   5.126  19.977  0.00  0.00    +0.000 N 
ATOM      9  C   UNL     1       2.977   4.237  19.523  0.00  0.00    +0.000 A 
ATOM     10  H   UNL     1       3.920   5.629  20.860  0.00  0.00    +0.000 HD
ENDROOT
BRANCH   6  11
ATOM     11  C   UNL     1       5.358   4.683  16.768  0.00  0.00    +0.000 A 
ATOM     12  C   UNL     1       6.722   5.024  16.796  0.00  0.00    +0.000 A 
ATOM     13  C   UNL     1       7.465   5.127  15.615  0.00  0.00    +0.000 A 
ATOM     14  C   UNL     1       6.855   4.868  14.393  0.00  0.00    +0.000 A 
ATOM     15 CL   UNL     1       7.763   5.010  12.939  0.00  0.00    +0.000 Cl
ATOM     16  C   UNL     1       5.514   4.492  14.345  0.00  0.00    +0.000 A 
ATOM     17  C   UNL     1       4.770   4.396  15.528  0.00  0.00    +0.000 A 
ENDBRANCH   6  11
BRANCH   1  19
ATOM     18  N   UNL     1       0.919   2.413  22.056  0.00  0.00    +0.000 N 
ATOM     19  C   UNL     1       1.819   3.331  21.610  0.00  0.00    +0.000 C 
ATOM     20  O   UNL     1       2.656   3.781  22.387  0.00  0.00    +0.000 OA
ATOM     21  H   UNL     1       0.987   2.126  23.021  0.00  0.00    +0.000 HD
ATOM     22  H   UNL     1       0.197   2.014  21.469  0.00  0.00    +0.000 HD
ENDBRANCH   1  19
TORSDOF 2
ENDMDL
MODEL 8
REMARK VINA RESULT:      -7.5      1.058      1.065
REMARK  Name = 
REMARK  2 active torsions:
REMARK  status: ('A' for Active; 'I' for Inactive)
REMARK    1  A    between atoms: C_2  and  C_4
REMARK    2  A    between atoms: C_9  and  C_10
REMARK                            x       y       z     vdW  Elec       q    Type
REMARK                         _______ _______ _______ _____ _____    ______ ____
ROOT
ATOM      1  C   UNL     1       1.667   3.785  20.196  0.00  0.00    +0.000 C 
ATOM      2  C   UNL     1       0.947   2.736  19.306  0.00  0.00    +0.000 C 
ATOM      3  C   UNL     1       1.885   1.914  18.399  0.00  0.00    +0.000 C 
ATOM      4  C   UNL     1       2.717   2.826  17.486  0.00  0.00    +0.000 C 
ATOM      5  C   UNL     1       3.409   3.854  18.307  0.00  0.00    +0.000 A 
ATOM      6  C   UNL     1       4.541   4.676  18.050  0.00  0.00    +0.000 A 
ATOM      7  N   UNL     1       4.826   5.410  19.142  0.00  0.00    +0.000 NA
ATOM      8  N   UNL     1       3.838   5.143  20.018  0.00  0.00    +0.000 N 
ATOM      9  C   UNL     1       2.947   4.227  19.551  0.00  0.00    +0.000 A 
ATOM     10  H   UNL     1       3.836   5.639  20.905  0.00  0.00    +0.000 HD
ENDROOT
BRANCH   6  11
ATOM     11  C   UNL     1       5.328   4.775  16.815  0.00  0.00    +0.000 A 
ATOM     12  C   UNL     1       4.767   4.422  15.575  0.00  0.00    +0.000 A 
ATOM     13  C   UNL     1       5.522   4.474  14.399  0.00  0.00    +0.000 A 
ATOM     14  C   UNL     1       6.845   4.900  14.448  0.00  0.00    +0.000 A 
ATOM     15 CL   UNL     1       7.780   4.949  13.006  0.00  0.00    +0.000 Cl
ATOM     16  C   UNL     1       7.410   5.291  15.661  0.00  0.00    +0.000 A 
ATOM     17  C   UNL     1       6.654   5.232  16.839  0.00  0.00    +0.000 A 
ENDBRANCH   6  11
BRANCH   1  19
ATOM     18  N   UNL     1       0.893   2.370  22.082  0.00  0.00    +0.000 N 
ATOM     19  C   UNL     1       1.808   3.266  21.624  0.00  0.00    +0.000 C 
ATOM     20  O   UNL     1       2.668   3.693  22.390  0.00  0.00    +0.000 OA
ATOM     21  H   UNL     1       0.968   2.078  23.045  0.00  0.00    +0.000 HD
ATOM     22  H   UNL     1       0.152   1.990  21.505  0.00  0.00    +0.000 HD
ENDBRANCH   1  19
TORSDOF 2
ENDMDL
MODEL 9
REMARK VINA RESULT:      -7.4      4.472      5.560
REMARK  Name = 
REMARK  2 active torsions:
REMARK  status: ('A' for Active; 'I' for Inactive)
REMARK    1  A    between atoms: C_2  and  C_4
REMARK    2  A    between atoms: C_9  and  C_10
REMARK                            x       y       z     vdW  Elec       q    Type
REMARK                         _______ _______ _______ _____ _____    ______ ____
ROOT
ATOM      1  C   UNL     1       3.606   2.904  20.554  0.00  0.00    +0.000 C 
ATOM      2  C   UNL     1       2.244   2.542  21.206  0.00  0.00    +0.000 C 
ATOM      3  C   UNL     1       1.019   3.194  20.536  0.00  0.00    +0.000 C 
ATOM      4  C   UNL     1       1.146   4.725  20.513  0.00  0.00    +0.000 C 
ATOM      5  C   UNL     1       2.448   5.105  19.907  0.00  0.00    +0.000 A 
ATOM      6  C   UNL     1       2.909   6.318  19.321  0.00  0.00    +0.000 A 
ATOM      7  N   UNL     1       4.158   6.148  18.849  0.00  0.00    +0.000 NA
ATOM      8  N   UNL     1       4.515   4.904  19.227  0.00  0.00    +0.000 N 
ATOM      9  C   UNL     1       3.525   4.245  19.886  0.00  0.00    +0.000 A 
ATOM     10  H   UNL     1       5.456   4.588  19.009  0.00  0.00    +0.000 HD
ENDROOT
BRANCH   6  11
ATOM     11  C   UNL     1       2.201   7.600  19.213  0.00  0.00    +0.000 A 
ATOM     12  C   UNL     1       1.612   8.192  20.343  0.00  0.00    +0.000 A 
ATOM     13  C   UNL     1       0.900   9.392  20.242  0.00  0.00    +0.000 A 
ATOM     14  C   UNL     1       0.787  10.024  19.009  0.00  0.00    +0.000 A 
ATOM     15 CL   UNL     1      -0.101  11.490  18.878  0.00  0.00    +0.000 Cl
ATOM     16  C   UNL     1       1.396   9.473  17.881  0.00  0.00    +0.000 A 
ATOM     17  C   UNL     1       2.102   8.268  17.984  0.00  0.00    +0.000 A 
ENDBRANCH   6  11
BRANCH   1  19
ATOM     18  N   UNL     1       3.329   1.420  18.584  0.00  0.00    +0.000 N 
ATOM     19  C   UNL     1       4.088   1.765  19.659  0.00  0.00    +0.000 C 
ATOM     20  O   UNL     1       5.089   1.106  19.928  0.00  0.00    +0.000 OA
ATOM     21  H   UNL     1       3.633   0.630  18.035  0.00  0.00    +0.000 HD
ATOM     22  H   UNL     1       2.487   1.914  18.318  0.00  0.00    +0.000 HD
ENDBRANCH   1  19
TORSDOF 2
ENDMDL
