MODEL 1
REMARK VINA RESULT:      -8.1      0.000      0.000
REMARK  Name = 
REMARK  6 active torsions:
REMARK  status: ('A' for Active; 'I' for Inactive)
REMARK    1  A    between atoms: C_1  and  O_2
REMARK    2  A    between atoms: O_2  and  C_3
REMARK    3  A    between atoms: C_7  and  N_8
REMARK    4  A    between atoms: C_9  and  C_11
REMARK    5  A    between atoms: C_11  and  C_12
REMARK    6  A    between atoms: C_27  and  C_28
REMARK                            x       y       z     vdW  Elec       q    Type
REMARK                         _______ _______ _______ _____ _____    ______ ____
ROOT
ATOM      1  C   UNL     1       1.196   9.452  18.927  0.00  0.00    +0.000 C 
ATOM      2  O   UNL     1       2.112   9.496  19.757  0.00  0.00    +0.000 OA
ATOM      3  N   UNL     1       0.057  10.277  19.054  0.00  0.00    +0.000 N 
ATOM      4  N   UNL     1      -1.156  10.137  18.394  0.00  0.00    +0.000 NA
ATOM      5  C   UNL     1      -1.980  11.058  18.859  0.00  0.00    +0.000 C 
ATOM      6  N   UNL     1      -3.310  11.230  18.339  0.00  0.00    +0.000 N 
ATOM      7  C   UNL     1      -3.745  10.382  17.327  0.00  0.00    +0.000 A 
ATOM      8  C   UNL     1      -4.401  11.185  16.429  0.00  0.00    +0.000 A 
ATOM      9  C   UNL     1      -5.206  11.907  17.332  0.00  0.00    +0.000 A 
ATOM     10  C   UNL     1      -6.536  12.338  17.211  0.00  0.00    +0.000 A 
ATOM     11  C   UNL     1      -7.191  12.862  18.316  0.00  0.00    +0.000 A 
ATOM     12  C   UNL     1      -6.478  13.068  19.496  0.00  0.00    +0.000 A 
ATOM     13  C   UNL     1      -5.103  12.676  19.639  0.00  0.00    +0.000 A 
ATOM     14  C   UNL     1      -4.486  12.009  18.563  0.00  0.00    +0.000 A 
ATOM     15  C   UNL     1      -1.403  11.986  19.882  0.00  0.00    +0.000 C 
ATOM     16  C   UNL     1       0.015  11.365  20.038  0.00  0.00    +0.000 C 
ENDROOT
BRANCH  16  17
ATOM     17  C   UNL     1       1.166  12.337  19.804  0.00  0.00    +0.000 A 
ATOM     18  C   UNL     1       1.463  12.780  18.505  0.00  0.00    +0.000 A 
ATOM     19  C   UNL     1       2.493  13.700  18.283  0.00  0.00    +0.000 A 
ATOM     20  C   UNL     1       3.224  14.203  19.356  0.00  0.00    +0.000 A 
ATOM     21  C   UNL     1       2.908  13.812  20.653  0.00  0.00    +0.000 A 
ATOM     22  C   UNL     1       1.884  12.888  20.878  0.00  0.00    +0.000 A 
ENDBRANCH  16  17
BRANCH   1  23
ATOM     23  C   UNL     1       1.329   8.516  17.746  0.00  0.00    +0.000 C 
BRANCH  23  25
ATOM     24  N   UNL     1       3.704   7.572  17.576  0.00  0.00    +0.000 N 
ATOM     25  C   UNL     1       2.336   7.343  17.794  0.00  0.00    +0.000 C 
ATOM     26  O   UNL     1       1.886   6.218  18.013  0.00  0.00    +0.000 OA
ATOM     27  H   UNL     1       3.972   8.553  17.456  0.00  0.00    +0.000 HD
BRANCH  24  32
ATOM     28  C   UNL     1       6.545   5.568  16.161  0.00  0.00    +0.000 A 
ATOM     29  C   UNL     1       6.936   4.771  17.240  0.00  0.00    +0.000 A 
ATOM     30  C   UNL     1       6.239   4.884  18.446  0.00  0.00    +0.000 A 
ATOM     31  C   UNL     1       5.174   5.793  18.576  0.00  0.00    +0.000 A 
ATOM     32  C   UNL     1       4.780   6.614  17.512  0.00  0.00    +0.000 A 
ATOM     33  C   UNL     1       5.498   6.487  16.299  0.00  0.00    +0.000 A 
BRANCH  28  35
ATOM     34  C   UNL     1       6.780   4.474  14.069  0.00  0.00    +0.000 C 
ATOM     35  O   UNL     1       7.312   5.369  15.037  0.00  0.00    +0.000 OA
ENDBRANCH  28  35
ENDBRANCH  24  32
ENDBRANCH  23  25
ENDBRANCH   1  23
TORSDOF 5
ENDMDL
MODEL 2
REMARK VINA RESULT:      -7.9      1.835      2.296
REMARK  Name = 
REMARK  6 active torsions:
REMARK  status: ('A' for Active; 'I' for Inactive)
REMARK    1  A    between atoms: C_1  and  O_2
REMARK    2  A    between atoms: O_2  and  C_3
REMARK    3  A    between atoms: C_7  and  N_8
REMARK    4  A    between atoms: C_9  and  C_11
REMARK    5  A    between atoms: C_11  and  C_12
REMARK    6  A    between atoms: C_27  and  C_28
REMARK                            x       y       z     vdW  Elec       q    Type
REMARK                         _______ _______ _______ _____ _____    ______ ____
ROOT
ATOM      1  C   UNL     1       0.874  10.699  19.800  0.00  0.00    +0.000 C 
ATOM      2  O   UNL     1       1.716  10.912  20.680  0.00  0.00    +0.000 OA
ATOM      3  N   UNL     1      -0.361  11.383  19.791  0.00  0.00    +0.000 N 
ATOM      4  N   UNL     1      -1.499  11.050  19.070  0.00  0.00    +0.000 NA
ATOM      5  C   UNL     1      -2.457  11.892  19.410  0.00  0.00    +0.000 C 
ATOM      6  N   UNL     1      -3.758  11.862  18.796  0.00  0.00    +0.000 N 
ATOM      7  C   UNL     1      -4.016  10.899  17.828  0.00  0.00    +0.000 A 
ATOM      8  C   UNL     1      -4.696  11.551  16.830  0.00  0.00    +0.000 A 
ATOM      9  C   UNL     1      -5.644  12.229  17.623  0.00  0.00    +0.000 A 
ATOM     10  C   UNL     1      -7.003  12.483  17.387  0.00  0.00    +0.000 A 
ATOM     11  C   UNL     1      -7.792  12.998  18.405  0.00  0.00    +0.000 A 
ATOM     12  C   UNL     1      -7.195  13.372  19.607  0.00  0.00    +0.000 A 
ATOM     13  C   UNL     1      -5.797  13.163  19.866  0.00  0.00    +0.000 A 
ATOM     14  C   UNL     1      -5.030  12.505  18.885  0.00  0.00    +0.000 A 
ATOM     15  C   UNL     1      -2.068  12.953  20.392  0.00  0.00    +0.000 C 
ATOM     16  C   UNL     1      -0.602  12.523  20.684  0.00  0.00    +0.000 C 
ENDROOT
BRANCH  16  17
ATOM     17  C   UNL     1       0.440  13.612  20.447  0.00  0.00    +0.000 A 
ATOM     18  C   UNL     1       1.210  14.097  21.517  0.00  0.00    +0.000 A 
ATOM     19  C   UNL     1       2.194  15.068  21.304  0.00  0.00    +0.000 A 
ATOM     20  C   UNL     1       2.432  15.552  20.021  0.00  0.00    +0.000 A 
ATOM     21  C   UNL     1       1.712  15.045  18.944  0.00  0.00    +0.000 A 
ATOM     22  C   UNL     1       0.725  14.079  19.153  0.00  0.00    +0.000 A 
ENDBRANCH  16  17
BRANCH   1  23
ATOM     23  C   UNL     1       1.201   9.707  18.706  0.00  0.00    +0.000 C 
BRANCH  23  25
ATOM     24  N   UNL     1       2.304   7.486  18.066  0.00  0.00    +0.000 N 
ATOM     25  C   UNL     1       1.760   8.311  19.064  0.00  0.00    +0.000 C 
ATOM     26  O   UNL     1       1.694   7.958  20.242  0.00  0.00    +0.000 OA
ATOM     27  H   UNL     1       2.357   7.903  17.132  0.00  0.00    +0.000 HD
BRANCH  24  32
ATOM     28  C   UNL     1       4.723   4.682  18.684  0.00  0.00    +0.000 A 
ATOM     29  C   UNL     1       3.945   3.542  18.465  0.00  0.00    +0.000 A 
ATOM     30  C   UNL     1       2.609   3.702  18.088  0.00  0.00    +0.000 A 
ATOM     31  C   UNL     1       2.053   4.986  17.949  0.00  0.00    +0.000 A 
ATOM     32  C   UNL     1       2.810   6.140  18.184  0.00  0.00    +0.000 A 
ATOM     33  C   UNL     1       4.161   5.959  18.565  0.00  0.00    +0.000 A 
BRANCH  28  35
ATOM     34  C   UNL     1       6.880   5.508  19.225  0.00  0.00    +0.000 C 
ATOM     35  O   UNL     1       6.015   4.393  19.056  0.00  0.00    +0.000 OA
ENDBRANCH  28  35
ENDBRANCH  24  32
ENDBRANCH  23  25
ENDBRANCH   1  23
TORSDOF 5
ENDMDL
MODEL 3
REMARK VINA RESULT:      -7.9      3.323      6.904
REMARK  Name = 
REMARK  6 active torsions:
REMARK  status: ('A' for Active; 'I' for Inactive)
REMARK    1  A    between atoms: C_1  and  O_2
REMARK    2  A    between atoms: O_2  and  C_3
REMARK    3  A    between atoms: C_7  and  N_8
REMARK    4  A    between atoms: C_9  and  C_11
REMARK    5  A    between atoms: C_11  and  C_12
REMARK    6  A    between atoms: C_27  and  C_28
REMARK                            x       y       z     vdW  Elec       q    Type
REMARK                         _______ _______ _______ _____ _____    ______ ____
ROOT
ATOM      1  C   UNL     1       1.626  12.571  19.073  0.00  0.00    +0.000 C 
ATOM      2  O   UNL     1       2.523  12.103  18.361  0.00  0.00    +0.000 OA
ATOM      3  N   UNL     1       0.304  12.080  18.999  0.00  0.00    +0.000 N 
ATOM      4  N   UNL     1      -0.843  12.682  19.497  0.00  0.00    +0.000 NA
ATOM      5  C   UNL     1      -1.877  11.941  19.142  0.00  0.00    +0.000 C 
ATOM      6  N   UNL     1      -3.220  12.253  19.553  0.00  0.00    +0.000 N 
ATOM      7  C   UNL     1      -3.433  13.384  20.333  0.00  0.00    +0.000 A 
ATOM      8  C   UNL     1      -4.325  13.002  21.302  0.00  0.00    +0.000 A 
ATOM      9  C   UNL     1      -5.267  12.349  20.483  0.00  0.00    +0.000 A 
ATOM     10  C   UNL     1      -6.668  12.332  20.554  0.00  0.00    +0.000 A 
ATOM     11  C   UNL     1      -7.402  11.780  19.514  0.00  0.00    +0.000 A 
ATOM     12  C   UNL     1      -6.733  11.140  18.473  0.00  0.00    +0.000 A 
ATOM     13  C   UNL     1      -5.299  11.104  18.391  0.00  0.00    +0.000 A 
ATOM     14  C   UNL     1      -4.559  11.793  19.372  0.00  0.00    +0.000 A 
ATOM     15  C   UNL     1      -1.550  10.694  18.381  0.00  0.00    +0.000 C 
ATOM     16  C   UNL     1      -0.009  10.859  18.247  0.00  0.00    +0.000 C 
ENDROOT
BRANCH  16  17
ATOM     17  C   UNL     1       0.806   9.685  18.778  0.00  0.00    +0.000 A 
ATOM     18  C   UNL     1       0.687   9.292  20.121  0.00  0.00    +0.000 A 
ATOM     19  C   UNL     1       1.401   8.193  20.609  0.00  0.00    +0.000 A 
ATOM     20  C   UNL     1       2.228   7.463  19.758  0.00  0.00    +0.000 A 
ATOM     21  C   UNL     1       2.318   7.810  18.414  0.00  0.00    +0.000 A 
ATOM     22  C   UNL     1       1.610   8.910  17.924  0.00  0.00    +0.000 A 
ENDBRANCH  16  17
BRANCH   1  23
ATOM     23  C   UNL     1       1.976  13.667  20.056  0.00  0.00    +0.000 C 
BRANCH  23  25
ATOM     24  N   UNL     1       3.940  14.871  18.938  0.00  0.00    +0.000 N 
ATOM     25  C   UNL     1       3.403  14.261  20.083  0.00  0.00    +0.000 C 
ATOM     26  O   UNL     1       4.039  14.163  21.132  0.00  0.00    +0.000 OA
ATOM     27  H   UNL     1       3.302  14.944  18.139  0.00  0.00    +0.000 HD
BRANCH  24  32
ATOM     28  C   UNL     1       6.810  17.281  19.143  0.00  0.00    +0.000 A 
ATOM     29  C   UNL     1       7.825  16.622  18.443  0.00  0.00    +0.000 A 
ATOM     30  C   UNL     1       7.550  15.374  17.880  0.00  0.00    +0.000 A 
ATOM     31  C   UNL     1       6.283  14.784  18.027  0.00  0.00    +0.000 A 
ATOM     32  C   UNL     1       5.260  15.419  18.741  0.00  0.00    +0.000 A 
ATOM     33  C   UNL     1       5.555  16.682  19.306  0.00  0.00    +0.000 A 
BRANCH  28  35
ATOM     34  C   UNL     1       8.369  18.477  20.473  0.00  0.00    +0.000 C 
ATOM     35  O   UNL     1       7.206  18.494  19.655  0.00  0.00    +0.000 OA
ENDBRANCH  28  35
ENDBRANCH  24  32
ENDBRANCH  23  25
ENDBRANCH   1  23
TORSDOF 5
ENDMDL
MODEL 4
REMARK VINA RESULT:      -7.8      1.940      2.459
REMARK  Name = 
REMARK  6 active torsions:
REMARK  status: ('A' for Active; 'I' for Inactive)
REMARK    1  A    between atoms: C_1  and  O_2
REMARK    2  A    between atoms: O_2  and  C_3
REMARK    3  A    between atoms: C_7  and  N_8
REMARK    4  A    between atoms: C_9  and  C_11
REMARK    5  A    between atoms: C_11  and  C_12
REMARK    6  A    between atoms: C_27  and  C_28
REMARK                            x       y       z     vdW  Elec       q    Type
REMARK                         _______ _______ _______ _____ _____    ______ ____
ROOT
ATOM      1  C   UNL     1       0.836  10.704  19.728  0.00  0.00    +0.000 C 
ATOM      2  O   UNL     1       1.689  10.902  20.601  0.00  0.00    +0.000 OA
ATOM      3  N   UNL     1      -0.397  11.392  19.745  0.00  0.00    +0.000 N 
ATOM      4  N   UNL     1      -1.545  11.073  19.032  0.00  0.00    +0.000 NA
ATOM      5  C   UNL     1      -2.496  11.913  19.397  0.00  0.00    +0.000 C 
ATOM      6  N   UNL     1      -3.804  11.896  18.798  0.00  0.00    +0.000 N 
ATOM      7  C   UNL     1      -4.077  10.949  17.819  0.00  0.00    +0.000 A 
ATOM      8  C   UNL     1      -4.767  11.617  16.840  0.00  0.00    +0.000 A 
ATOM      9  C   UNL     1      -5.703  12.286  17.654  0.00  0.00    +0.000 A 
ATOM     10  C   UNL     1      -7.064  12.548  17.438  0.00  0.00    +0.000 A 
ATOM     11  C   UNL     1      -7.840  13.049  18.474  0.00  0.00    +0.000 A 
ATOM     12  C   UNL     1      -7.227  13.403  19.674  0.00  0.00    +0.000 A 
ATOM     13  C   UNL     1      -5.827  13.185  19.913  0.00  0.00    +0.000 A 
ATOM     14  C   UNL     1      -5.073  12.540  18.913  0.00  0.00    +0.000 A 
ATOM     15  C   UNL     1      -2.092  12.957  20.390  0.00  0.00    +0.000 C 
ATOM     16  C   UNL     1      -0.624  12.519  20.658  0.00  0.00    +0.000 C 
ENDROOT
BRANCH  16  17
ATOM     17  C   UNL     1       0.418  13.608  20.425  0.00  0.00    +0.000 A 
ATOM     18  C   UNL     1       0.582  14.168  19.148  0.00  0.00    +0.000 A 
ATOM     19  C   UNL     1       1.509  15.193  18.932  0.00  0.00    +0.000 A 
ATOM     20  C   UNL     1       2.269  15.682  19.991  0.00  0.00    +0.000 A 
ATOM     21  C   UNL     1       2.082  15.172  21.272  0.00  0.00    +0.000 A 
ATOM     22  C   UNL     1       1.161  14.144  21.490  0.00  0.00    +0.000 A 
ENDBRANCH  16  17
BRANCH   1  23
ATOM     23  C   UNL     1       1.146   9.728  18.615  0.00  0.00    +0.000 C 
BRANCH  23  25
ATOM     24  N   UNL     1       2.473   7.649  17.925  0.00  0.00    +0.000 N 
ATOM     25  C   UNL     1       1.819   8.373  18.934  0.00  0.00    +0.000 C 
ATOM     26  O   UNL     1       1.742   7.960  20.092  0.00  0.00    +0.000 OA
ATOM     27  H   UNL     1       2.522   8.113  17.012  0.00  0.00    +0.000 HD
BRANCH  24  32
ATOM     28  C   UNL     1       2.802   3.913  18.080  0.00  0.00    +0.000 A 
ATOM     29  C   UNL     1       4.185   3.721  18.144  0.00  0.00    +0.000 A 
ATOM     30  C   UNL     1       5.018   4.842  18.156  0.00  0.00    +0.000 A 
ATOM     31  C   UNL     1       4.477   6.139  18.088  0.00  0.00    +0.000 A 
ATOM     32  C   UNL     1       3.096   6.351  18.004  0.00  0.00    +0.000 A 
ATOM     33  C   UNL     1       2.267   5.204  17.992  0.00  0.00    +0.000 A 
BRANCH  28  35
ATOM     34  C   UNL     1       0.889   2.723  18.825  0.00  0.00    +0.000 C 
ATOM     35  O   UNL     1       2.093   2.735  18.068  0.00  0.00    +0.000 OA
ENDBRANCH  28  35
ENDBRANCH  24  32
ENDBRANCH  23  25
ENDBRANCH   1  23
TORSDOF 5
ENDMDL
MODEL 5
REMARK VINA RESULT:      -7.8      2.056      2.658
REMARK  Name = 
REMARK  6 active torsions:
REMARK  status: ('A' for Active; 'I' for Inactive)
REMARK    1  A    between atoms: C_1  and  O_2
REMARK    2  A    between atoms: O_2  and  C_3
REMARK    3  A    between atoms: C_7  and  N_8
REMARK    4  A    between atoms: C_9  and  C_11
REMARK    5  A    between atoms: C_11  and  C_12
REMARK    6  A    between atoms: C_27  and  C_28
REMARK                            x       y       z     vdW  Elec       q    Type
REMARK                         _______ _______ _______ _____ _____    ______ ____
ROOT
ATOM      1  C   UNL     1       0.628  10.911  20.579  0.00  0.00    +0.000 C 
ATOM      2  O   UNL     1       1.398  11.200  21.503  0.00  0.00    +0.000 OA
ATOM      3  N   UNL     1      -0.579  11.617  20.387  0.00  0.00    +0.000 N 
ATOM      4  N   UNL     1      -1.660  11.233  19.607  0.00  0.00    +0.000 NA
ATOM      5  C   UNL     1      -2.617  12.128  19.769  0.00  0.00    +0.000 C 
ATOM      6  N   UNL     1      -3.860  12.060  19.048  0.00  0.00    +0.000 N 
ATOM      7  C   UNL     1      -4.064  11.004  18.168  0.00  0.00    +0.000 A 
ATOM      8  C   UNL     1      -4.635  11.558  17.050  0.00  0.00    +0.000 A 
ATOM      9  C   UNL     1      -5.625  12.339  17.679  0.00  0.00    +0.000 A 
ATOM     10  C   UNL     1      -6.950  12.596  17.297  0.00  0.00    +0.000 A 
ATOM     11  C   UNL     1      -7.808  13.236  18.180  0.00  0.00    +0.000 A 
ATOM     12  C   UNL     1      -7.305  13.725  19.384  0.00  0.00    +0.000 A 
ATOM     13  C   UNL     1      -5.942  13.514  19.787  0.00  0.00    +0.000 A 
ATOM     14  C   UNL     1      -5.114  12.736  18.954  0.00  0.00    +0.000 A 
ATOM     15  C   UNL     1      -2.281  13.280  20.663  0.00  0.00    +0.000 C 
ATOM     16  C   UNL     1      -0.860  12.852  21.129  0.00  0.00    +0.000 C 
ENDROOT
BRANCH  16  17
ATOM     17  C   UNL     1       0.233  13.885  20.872  0.00  0.00    +0.000 A 
ATOM     18  C   UNL     1       0.570  14.245  19.557  0.00  0.00    +0.000 A 
ATOM     19  C   UNL     1       1.544  15.218  19.311  0.00  0.00    +0.000 A 
ATOM     20  C   UNL     1       2.178  15.856  20.373  0.00  0.00    +0.000 A 
ATOM     21  C   UNL     1       1.819  15.547  21.681  0.00  0.00    +0.000 A 
ATOM     22  C   UNL     1       0.850  14.571  21.931  0.00  0.00    +0.000 A 
ENDBRANCH  16  17
BRANCH   1  23
ATOM     23  C   UNL     1       1.017   9.799  19.630  0.00  0.00    +0.000 C 
BRANCH  23  25
ATOM     24  N   UNL     1       2.091   7.489  19.362  0.00  0.00    +0.000 N 
ATOM     25  C   UNL     1       1.421   8.412  20.181  0.00  0.00    +0.000 C 
ATOM     26  O   UNL     1       1.120   8.155  21.348  0.00  0.00    +0.000 OA
ATOM     27  H   UNL     1       2.338   7.830  18.428  0.00  0.00    +0.000 HD
BRANCH  24  32
ATOM     28  C   UNL     1       4.188   4.376  19.431  0.00  0.00    +0.000 A 
ATOM     29  C   UNL     1       3.414   3.493  20.189  0.00  0.00    +0.000 A 
ATOM     30  C   UNL     1       2.174   3.926  20.666  0.00  0.00    +0.000 A 
ATOM     31  C   UNL     1       1.721   5.230  20.404  0.00  0.00    +0.000 A 
ATOM     32  C   UNL     1       2.489   6.136  19.664  0.00  0.00    +0.000 A 
ATOM     33  C   UNL     1       3.743   5.681  19.189  0.00  0.00    +0.000 A 
BRANCH  28  35
ATOM     34  C   UNL     1       6.303   4.736  18.420  0.00  0.00    +0.000 C 
ATOM     35  O   UNL     1       5.386   3.836  19.027  0.00  0.00    +0.000 OA
ENDBRANCH  28  35
ENDBRANCH  24  32
ENDBRANCH  23  25
ENDBRANCH   1  23
TORSDOF 5
ENDMDL
MODEL 6
REMARK VINA RESULT:      -7.7      1.811      2.688
REMARK  Name = 
REMARK  6 active torsions:
REMARK  status: ('A' for Active; 'I' for Inactive)
REMARK    1  A    between atoms: C_1  and  O_2
REMARK    2  A    between atoms: O_2  and  C_3
REMARK    3  A    between atoms: C_7  and  N_8
REMARK    4  A    between atoms: C_9  and  C_11
REMARK    5  A    between atoms: C_11  and  C_12
REMARK    6  A    between atoms: C_27  and  C_28
REMARK                            x       y       z     vdW  Elec       q    Type
REMARK                         _______ _______ _______ _____ _____    ______ ____
ROOT
ATOM      1  C   UNL     1       1.015  10.185  19.002  0.00  0.00    +0.000 C 
ATOM      2  O   UNL     1       1.928  10.261  19.833  0.00  0.00    +0.000 OA
ATOM      3  N   UNL     1      -0.192  10.894  19.178  0.00  0.00    +0.000 N 
ATOM      4  N   UNL     1      -1.392  10.687  18.511  0.00  0.00    +0.000 NA
ATOM      5  C   UNL     1      -2.292  11.501  19.031  0.00  0.00    +0.000 C 
ATOM      6  N   UNL     1      -3.635  11.583  18.522  0.00  0.00    +0.000 N 
ATOM      7  C   UNL     1      -3.998  10.761  17.462  0.00  0.00    +0.000 A 
ATOM      8  C   UNL     1      -4.728  11.554  16.613  0.00  0.00    +0.000 A 
ATOM      9  C   UNL     1      -5.590  12.146  17.558  0.00  0.00    +0.000 A 
ATOM     10  C   UNL     1      -6.953  12.463  17.464  0.00  0.00    +0.000 A 
ATOM     11  C   UNL     1      -7.646  12.860  18.598  0.00  0.00    +0.000 A 
ATOM     12  C   UNL     1      -6.948  13.060  19.788  0.00  0.00    +0.000 A 
ATOM     13  C   UNL     1      -5.542  12.784  19.907  0.00  0.00    +0.000 A 
ATOM     14  C   UNL     1      -4.874  12.240  18.792  0.00  0.00    +0.000 A 
ATOM     15  C   UNL     1      -1.794  12.415  20.107  0.00  0.00    +0.000 C 
ATOM     16  C   UNL     1      -0.326  11.915  20.225  0.00  0.00    +0.000 C 
ENDROOT
BRANCH  16  17
ATOM     17  C   UNL     1       0.733  12.998  20.048  0.00  0.00    +0.000 A 
ATOM     18  C   UNL     1       0.879  13.649  18.811  0.00  0.00    +0.000 A 
ATOM     19  C   UNL     1       1.820  14.669  18.650  0.00  0.00    +0.000 A 
ATOM     20  C   UNL     1       2.614  15.065  19.723  0.00  0.00    +0.000 A 
ATOM     21  C   UNL     1       2.447  14.465  20.967  0.00  0.00    +0.000 A 
ATOM     22  C   UNL     1       1.510  13.441  21.131  0.00  0.00    +0.000 A 
ENDBRANCH  16  17
BRANCH   1  23
ATOM     23  C   UNL     1       1.225   9.335  17.767  0.00  0.00    +0.000 C 
BRANCH  23  25
ATOM     24  N   UNL     1       2.085   7.179  18.847  0.00  0.00    +0.000 N 
ATOM     25  C   UNL     1       2.181   8.122  17.812  0.00  0.00    +0.000 C 
ATOM     26  O   UNL     1       3.026   8.032  16.920  0.00  0.00    +0.000 OA
ATOM     27  H   UNL     1       1.311   7.324  19.504  0.00  0.00    +0.000 HD
BRANCH  24  32
ATOM     28  C   UNL     1       3.074   3.740  19.983  0.00  0.00    +0.000 A 
ATOM     29  C   UNL     1       4.432   3.679  19.655  0.00  0.00    +0.000 A 
ATOM     30  C   UNL     1       5.031   4.796  19.068  0.00  0.00    +0.000 A 
ATOM     31  C   UNL     1       4.281   5.954  18.798  0.00  0.00    +0.000 A 
ATOM     32  C   UNL     1       2.917   6.028  19.102  0.00  0.00    +0.000 A 
ATOM     33  C   UNL     1       2.325   4.887  19.695  0.00  0.00    +0.000 A 
BRANCH  28  35
ATOM     34  C   UNL     1       1.603   2.732  21.547  0.00  0.00    +0.000 C 
ATOM     35  O   UNL     1       2.601   2.578  20.546  0.00  0.00    +0.000 OA
ENDBRANCH  28  35
ENDBRANCH  24  32
ENDBRANCH  23  25
ENDBRANCH   1  23
TORSDOF 5
ENDMDL
MODEL 7
REMARK VINA RESULT:      -7.7      3.360      6.563
REMARK  Name = 
REMARK  6 active torsions:
REMARK  status: ('A' for Active; 'I' for Inactive)
REMARK    1  A    between atoms: C_1  and  O_2
REMARK    2  A    between atoms: O_2  and  C_3
REMARK    3  A    between atoms: C_7  and  N_8
REMARK    4  A    between atoms: C_9  and  C_11
REMARK    5  A    between atoms: C_11  and  C_12
REMARK    6  A    between atoms: C_27  and  C_28
REMARK                            x       y       z     vdW  Elec       q    Type
REMARK                         _______ _______ _______ _____ _____    ______ ____
ROOT
ATOM      1  C   UNL     1       1.527  12.619  19.489  0.00  0.00    +0.000 C 
ATOM      2  O   UNL     1       2.458  12.247  18.765  0.00  0.00    +0.000 OA
ATOM      3  N   UNL     1       0.208  12.164  19.272  0.00  0.00    +0.000 N 
ATOM      4  N   UNL     1      -0.961  12.704  19.792  0.00  0.00    +0.000 NA
ATOM      5  C   UNL     1      -1.979  12.040  19.276  0.00  0.00    +0.000 C 
ATOM      6  N   UNL     1      -3.340  12.308  19.656  0.00  0.00    +0.000 N 
ATOM      7  C   UNL     1      -3.588  13.315  20.582  0.00  0.00    +0.000 A 
ATOM      8  C   UNL     1      -4.535  12.809  21.435  0.00  0.00    +0.000 A 
ATOM      9  C   UNL     1      -5.435  12.298  20.479  0.00  0.00    +0.000 A 
ATOM     10  C   UNL     1      -6.838  12.292  20.472  0.00  0.00    +0.000 A 
ATOM     11  C   UNL     1      -7.518  11.911  19.324  0.00  0.00    +0.000 A 
ATOM     12  C   UNL     1      -6.797  11.421  18.237  0.00  0.00    +0.000 A 
ATOM     13  C   UNL     1      -5.361  11.375  18.227  0.00  0.00    +0.000 A 
ATOM     14  C   UNL     1      -4.671  11.901  19.338  0.00  0.00    +0.000 A 
ATOM     15  C   UNL     1      -1.620  10.914  18.358  0.00  0.00    +0.000 C 
ATOM     16  C   UNL     1      -0.072  11.073  18.332  0.00  0.00    +0.000 C 
ENDROOT
BRANCH  16  17
ATOM     17  C   UNL     1       0.704   9.820  18.727  0.00  0.00    +0.000 A 
ATOM     18  C   UNL     1       1.518   9.168  17.786  0.00  0.00    +0.000 A 
ATOM     19  C   UNL     1       2.262   8.041  18.148  0.00  0.00    +0.000 A 
ATOM     20  C   UNL     1       2.217   7.563  19.455  0.00  0.00    +0.000 A 
ATOM     21  C   UNL     1       1.454   8.228  20.410  0.00  0.00    +0.000 A 
ATOM     22  C   UNL     1       0.705   9.351  20.051  0.00  0.00    +0.000 A 
ENDBRANCH  16  17
BRANCH   1  23
ATOM     23  C   UNL     1       1.830  13.552  20.640  0.00  0.00    +0.000 C 
BRANCH  23  25
ATOM     24  N   UNL     1       3.614  15.097  19.646  0.00  0.00    +0.000 N 
ATOM     25  C   UNL     1       3.189  14.286  20.710  0.00  0.00    +0.000 C 
ATOM     26  O   UNL     1       3.875  14.114  21.718  0.00  0.00    +0.000 OA
ATOM     27  H   UNL     1       2.939  15.210  18.883  0.00  0.00    +0.000 HD
BRANCH  24  32
ATOM     28  C   UNL     1       7.103  15.852  18.487  0.00  0.00    +0.000 A 
ATOM     29  C   UNL     1       7.373  17.086  19.084  0.00  0.00    +0.000 A 
ATOM     30  C   UNL     1       6.396  17.667  19.896  0.00  0.00    +0.000 A 
ATOM     31  C   UNL     1       5.158  17.030  20.096  0.00  0.00    +0.000 A 
ATOM     32  C   UNL     1       4.862  15.803  19.491  0.00  0.00    +0.000 A 
ATOM     33  C   UNL     1       5.863  15.230  18.671  0.00  0.00    +0.000 A 
BRANCH  28  35
ATOM     34  C   UNL     1       9.088  14.558  18.362  0.00  0.00    +0.000 C 
ATOM     35  O   UNL     1       8.138  15.390  17.708  0.00  0.00    +0.000 OA
ENDBRANCH  28  35
ENDBRANCH  24  32
ENDBRANCH  23  25
ENDBRANCH   1  23
TORSDOF 5
ENDMDL
MODEL 8
REMARK VINA RESULT:      -7.7      1.646      2.113
REMARK  Name = 
REMARK  6 active torsions:
REMARK  status: ('A' for Active; 'I' for Inactive)
REMARK    1  A    between atoms: C_1  and  O_2
REMARK    2  A    between atoms: O_2  and  C_3
REMARK    3  A    between atoms: C_7  and  N_8
REMARK    4  A    between atoms: C_9  and  C_11
REMARK    5  A    between atoms: C_11  and  C_12
REMARK    6  A    between atoms: C_27  and  C_28
REMARK                            x       y       z     vdW  Elec       q    Type
REMARK                         _______ _______ _______ _____ _____    ______ ____
ROOT
ATOM      1  C   UNL     1       1.125   9.897  18.942  0.00  0.00    +0.000 C 
ATOM      2  O   UNL     1       2.051   9.986  19.758  0.00  0.00    +0.000 OA
ATOM      3  N   UNL     1      -0.055  10.658  19.091  0.00  0.00    +0.000 N 
ATOM      4  N   UNL     1      -1.269  10.456  18.450  0.00  0.00    +0.000 NA
ATOM      5  C   UNL     1      -2.133  11.330  18.932  0.00  0.00    +0.000 C 
ATOM      6  N   UNL     1      -3.479  11.432  18.434  0.00  0.00    +0.000 N 
ATOM      7  C   UNL     1      -3.884  10.566  17.426  0.00  0.00    +0.000 A 
ATOM      8  C   UNL     1      -4.597  11.336  16.541  0.00  0.00    +0.000 A 
ATOM      9  C   UNL     1      -5.424  12.010  17.461  0.00  0.00    +0.000 A 
ATOM     10  C   UNL     1      -6.777  12.370  17.364  0.00  0.00    +0.000 A 
ATOM     11  C   UNL     1      -7.441  12.854  18.481  0.00  0.00    +0.000 A 
ATOM     12  C   UNL     1      -6.721  13.094  19.650  0.00  0.00    +0.000 A 
ATOM     13  C   UNL     1      -5.325  12.775  19.770  0.00  0.00    +0.000 A 
ATOM     14  C   UNL     1      -4.691  12.147  18.681  0.00  0.00    +0.000 A 
ATOM     15  C   UNL     1      -1.590  12.284  19.950  0.00  0.00    +0.000 C 
ATOM     16  C   UNL     1      -0.139  11.739  20.080  0.00  0.00    +0.000 C 
ENDROOT
BRANCH  16  17
ATOM     17  C   UNL     1       0.955  12.772  19.832  0.00  0.00    +0.000 A 
ATOM     18  C   UNL     1       1.801  13.171  20.880  0.00  0.00    +0.000 A 
ATOM     19  C   UNL     1       2.831  14.090  20.654  0.00  0.00    +0.000 A 
ATOM     20  C   UNL     1       3.039  14.607  19.378  0.00  0.00    +0.000 A 
ATOM     21  C   UNL     1       2.240  14.185  18.321  0.00  0.00    +0.000 A 
ATOM     22  C   UNL     1       1.207  13.271  18.543  0.00  0.00    +0.000 A 
ENDBRANCH  16  17
BRANCH   1  23
ATOM     23  C   UNL     1       1.289   8.973  17.755  0.00  0.00    +0.000 C 
BRANCH  23  25
ATOM     24  N   UNL     1       1.912   6.547  18.285  0.00  0.00    +0.000 N 
ATOM     25  C   UNL     1       2.304   7.808  17.810  0.00  0.00    +0.000 C 
ATOM     26  O   UNL     1       3.455   8.040  17.439  0.00  0.00    +0.000 OA
ATOM     27  H   UNL     1       0.918   6.453  18.516  0.00  0.00    +0.000 HD
BRANCH  24  32
ATOM     28  C   UNL     1       4.907   4.422  19.060  0.00  0.00    +0.000 A 
ATOM     29  C   UNL     1       4.420   3.121  18.901  0.00  0.00    +0.000 A 
ATOM     30  C   UNL     1       3.090   2.946  18.514  0.00  0.00    +0.000 A 
ATOM     31  C   UNL     1       2.251   4.055  18.303  0.00  0.00    +0.000 A 
ATOM     32  C   UNL     1       2.715   5.364  18.477  0.00  0.00    +0.000 A 
ATOM     33  C   UNL     1       4.065   5.524  18.870  0.00  0.00    +0.000 A 
BRANCH  28  35
ATOM     34  C   UNL     1       6.936   5.650  19.126  0.00  0.00    +0.000 C 
ATOM     35  O   UNL     1       6.226   4.461  19.449  0.00  0.00    +0.000 OA
ENDBRANCH  28  35
ENDBRANCH  24  32
ENDBRANCH  23  25
ENDBRANCH   1  23
TORSDOF 5
ENDMDL
MODEL 9
REMARK VINA RESULT:      -7.7      1.876      2.049
REMARK  Name = 
REMARK  6 active torsions:
REMARK  status: ('A' for Active; 'I' for Inactive)
REMARK    1  A    between atoms: C_1  and  O_2
REMARK    2  A    between atoms: O_2  and  C_3
REMARK    3  A    between atoms: C_7  and  N_8
REMARK    4  A    between atoms: C_9  and  C_11
REMARK    5  A    between atoms: C_11  and  C_12
REMARK    6  A    between atoms: C_27  and  C_28
REMARK                            x       y       z     vdW  Elec       q    Type
REMARK                         _______ _______ _______ _____ _____    ______ ____
ROOT
ATOM      1  C   UNL     1       0.739  10.166  19.126  0.00  0.00    +0.000 C 
ATOM      2  O   UNL     1       1.663  10.233  19.946  0.00  0.00    +0.000 OA
ATOM      3  N   UNL     1      -0.436  10.931  19.287  0.00  0.00    +0.000 N 
ATOM      4  N   UNL     1      -1.650  10.750  18.639  0.00  0.00    +0.000 NA
ATOM      5  C   UNL     1      -2.510  11.619  19.137  0.00  0.00    +0.000 C 
ATOM      6  N   UNL     1      -3.854  11.740  18.638  0.00  0.00    +0.000 N 
ATOM      7  C   UNL     1      -4.262  10.897  17.611  0.00  0.00    +0.000 A 
ATOM      8  C   UNL     1      -4.967  11.688  16.740  0.00  0.00    +0.000 A 
ATOM      9  C   UNL     1      -5.793  12.349  17.671  0.00  0.00    +0.000 A 
ATOM     10  C   UNL     1      -7.143  12.719  17.578  0.00  0.00    +0.000 A 
ATOM     11  C   UNL     1      -7.807  13.185  18.704  0.00  0.00    +0.000 A 
ATOM     12  C   UNL     1      -7.089  13.396  19.879  0.00  0.00    +0.000 A 
ATOM     13  C   UNL     1      -5.696  13.067  19.996  0.00  0.00    +0.000 A 
ATOM     14  C   UNL     1      -5.062  12.456  18.895  0.00  0.00    +0.000 A 
ATOM     15  C   UNL     1      -1.964  12.549  20.175  0.00  0.00    +0.000 C 
ATOM     16  C   UNL     1      -0.516  11.992  20.298  0.00  0.00    +0.000 C 
ENDROOT
BRANCH  16  17
ATOM     17  C   UNL     1       0.584  13.024  20.074  0.00  0.00    +0.000 A 
ATOM     18  C   UNL     1       0.751  13.615  18.811  0.00  0.00    +0.000 A 
ATOM     19  C   UNL     1       1.733  14.590  18.604  0.00  0.00    +0.000 A 
ATOM     20  C   UNL     1       2.546  14.997  19.658  0.00  0.00    +0.000 A 
ATOM     21  C   UNL     1       2.359  14.457  20.926  0.00  0.00    +0.000 A 
ATOM     22  C   UNL     1       1.383  13.480  21.136  0.00  0.00    +0.000 A 
ENDBRANCH  16  17
BRANCH   1  23
ATOM     23  C   UNL     1       0.901   9.266  17.921  0.00  0.00    +0.000 C 
BRANCH  23  25
ATOM     24  N   UNL     1       2.016   7.032  18.491  0.00  0.00    +0.000 N 
ATOM     25  C   UNL     1       2.086   8.275  17.843  0.00  0.00    +0.000 C 
ATOM     26  O   UNL     1       3.081   8.630  17.210  0.00  0.00    +0.000 OA
ATOM     27  H   UNL     1       1.120   6.821  18.942  0.00  0.00    +0.000 HD
BRANCH  24  32
ATOM     28  C   UNL     1       3.698   3.701  18.084  0.00  0.00    +0.000 A 
ATOM     29  C   UNL     1       4.933   3.894  18.708  0.00  0.00    +0.000 A 
ATOM     30  C   UNL     1       5.205   5.135  19.289  0.00  0.00    +0.000 A 
ATOM     31  C   UNL     1       4.262   6.176  19.232  0.00  0.00    +0.000 A 
ATOM     32  C   UNL     1       3.027   6.009  18.593  0.00  0.00    +0.000 A 
ATOM     33  C   UNL     1       2.768   4.745  18.010  0.00  0.00    +0.000 A 
BRANCH  28  35
ATOM     34  C   UNL     1       3.543   1.366  18.475  0.00  0.00    +0.000 C 
ATOM     35  O   UNL     1       3.555   2.443  17.547  0.00  0.00    +0.000 OA
ENDBRANCH  28  35
ENDBRANCH  24  32
ENDBRANCH  23  25
ENDBRANCH   1  23
TORSDOF 5
ENDMDL
