MODEL 1
REMARK VINA RESULT:      -8.4      0.000      0.000
REMARK  Name = 
REMARK  12 active torsions:
REMARK  status: ('A' for Active; 'I' for Inactive)
REMARK    1  A    between atoms: C_1  and  C_2
REMARK    2  A    between atoms: C_2  and  C_3
REMARK    3  A    between atoms: C_6  and  C_7
REMARK    4  A    between atoms: C_7  and  O_8
REMARK    5  A    between atoms: O_8  and  C_9
REMARK    6  A    between atoms: C_17  and  C_18
REMARK    7  A    between atoms: C_18  and  N_19
REMARK    8  A    between atoms: C_21  and  C_22
REMARK    9  A    between atoms: C_22  and  O_24
REMARK   10  A    between atoms: C_26  and  C_27
REMARK   11  A    between atoms: C_28  and  O_29
REMARK   12  A    between atoms: O_29  and  C_30
REMARK                            x       y       z     vdW  Elec       q    Type
REMARK                         _______ _______ _______ _____ _____    ______ ____
ROOT
ATOM      1  C   UNL     1       2.344   4.503  18.302  0.00  0.00    +0.000 A 
ATOM      2  C   UNL     1       2.033   4.190  19.635  0.00  0.00    +0.000 A 
ATOM      3  C   UNL     1       1.629   5.272  20.718  0.00  0.00    +0.000 A 
ATOM      4  C   UNL     1       1.563   6.657  20.417  0.00  0.00    +0.000 A 
ATOM      5  C   UNL     1       2.061   6.637  19.162  0.00  0.00    +0.000 A 
ATOM      6  C   UNL     1       2.292   5.796  18.119  0.00  0.00    +0.000 A 
ATOM      7  C   UNL     1       2.422   7.869  18.632  0.00  0.00    +0.000 C 
ATOM      8  C   UNL     1       1.748   8.988  18.163  0.00  0.00    +0.000 C 
ATOM      9  C   UNL     1       1.329   9.630  19.685  0.00  0.00    +0.000 C 
ATOM     10  C   UNL     1       1.293   8.427  20.681  0.00  0.00    +0.000 C 
ATOM     11  C   UNL     1       1.220   8.670  22.199  0.00  0.00    +0.000 C 
ENDROOT
BRANCH   1  12
ATOM     12  O   UNL     1       2.765   3.787  17.229  0.00  0.00    +0.000 OA
BRANCH  12  13
ATOM     13  C   UNL     1       4.193   3.355  17.233  0.00  0.00    +0.000 C 
BRANCH  13  17
ATOM     14  C   UNL     1       7.062   6.350  18.249  0.00  0.00    +0.000 A 
ATOM     15  C   UNL     1       6.512   5.553  19.255  0.00  0.00    +0.000 A 
ATOM     16  C   UNL     1       5.597   4.568  18.911  0.00  0.00    +0.000 A 
ATOM     17  C   UNL     1       5.213   4.404  17.561  0.00  0.00    +0.000 A 
ATOM     18  C   UNL     1       5.669   5.288  16.585  0.00  0.00    +0.000 A 
ATOM     19  C   UNL     1       6.603   6.244  16.932  0.00  0.00    +0.000 A 
BRANCH  14  21
ATOM     20  C   UNL     1       8.079   8.537  17.838  0.00  0.00    +0.000 C 
ATOM     21  C   UNL     1       8.278   7.188  18.518  0.00  0.00    +0.000 C 
ENDBRANCH  14  21
BRANCH  18  22
ATOM     22  O   UNL     1       5.157   5.132  15.334  0.00  0.00    +0.000 OA
ATOM     23  C   UNL     1       5.920   4.447  14.366  0.00  0.00    +0.000 C 
ENDBRANCH  18  22
ENDBRANCH  13  17
ENDBRANCH  12  13
ENDBRANCH   1  12
BRANCH   9  24
ATOM     24  C   UNL     1       1.386  10.898  18.538  0.00  0.00    +0.000 C 
BRANCH  24  25
ATOM     25  N   UNL     1       1.693  12.298  18.468  0.00  0.00    +0.000 NA
ATOM     26  C   UNL     1       0.518  13.099  18.377  0.00  0.00    +0.000 C 
ATOM     27  C   UNL     1       1.230  14.127  19.293  0.00  0.00    +0.000 C 
ATOM     28  C   UNL     1       2.166  12.951  19.685  0.00  0.00    +0.000 C 
BRANCH  27  29
ATOM     29  C   UNL     1       1.842  15.354  18.555  0.00  0.00    +0.000 C 
ATOM     30  O   UNL     1       1.459  16.518  18.613  0.00  0.00    +0.000 OA
BRANCH  29  31
ATOM     31  O   UNL     1       2.960  15.054  17.836  0.00  0.00    +0.000 OA
ATOM     32  H   UNL     1       3.103  15.646  17.075  0.00  0.00    +0.000 HD
ENDBRANCH  29  31
ENDBRANCH  27  29
ENDBRANCH  24  25
ENDBRANCH   9  24
TORSDOF 9
ENDMDL
MODEL 2
REMARK VINA RESULT:      -8.4      3.830      9.514
REMARK  Name = 
REMARK  12 active torsions:
REMARK  status: ('A' for Active; 'I' for Inactive)
REMARK    1  A    between atoms: C_1  and  C_2
REMARK    2  A    between atoms: C_2  and  C_3
REMARK    3  A    between atoms: C_6  and  C_7
REMARK    4  A    between atoms: C_7  and  O_8
REMARK    5  A    between atoms: O_8  and  C_9
REMARK    6  A    between atoms: C_17  and  C_18
REMARK    7  A    between atoms: C_18  and  N_19
REMARK    8  A    between atoms: C_21  and  C_22
REMARK    9  A    between atoms: C_22  and  O_24
REMARK   10  A    between atoms: C_26  and  C_27
REMARK   11  A    between atoms: C_28  and  O_29
REMARK   12  A    between atoms: O_29  and  C_30
REMARK                            x       y       z     vdW  Elec       q    Type
REMARK                         _______ _______ _______ _____ _____    ______ ____
ROOT
ATOM      1  C   UNL     1      -0.155  11.000  20.507  0.00  0.00    +0.000 A 
ATOM      2  C   UNL     1      -0.420  10.170  21.608  0.00  0.00    +0.000 A 
ATOM      3  C   UNL     1       0.187   8.718  21.777  0.00  0.00    +0.000 A 
ATOM      4  C   UNL     1       1.044   8.137  20.807  0.00  0.00    +0.000 A 
ATOM      5  C   UNL     1       0.963   9.081  19.844  0.00  0.00    +0.000 A 
ATOM      6  C   UNL     1       0.612  10.381  19.649  0.00  0.00    +0.000 A 
ATOM      7  C   UNL     1       1.454   8.719  18.596  0.00  0.00    +0.000 C 
ATOM      8  C   UNL     1       2.710   8.508  18.043  0.00  0.00    +0.000 C 
ATOM      9  C   UNL     1       2.983   6.972  18.729  0.00  0.00    +0.000 C 
ATOM     10  C   UNL     1       2.119   6.906  20.029  0.00  0.00    +0.000 C 
ATOM     11  C   UNL     1       1.904   5.568  20.758  0.00  0.00    +0.000 C 
ENDROOT
BRANCH   1  12
ATOM     12  O   UNL     1      -0.587  12.225  20.111  0.00  0.00    +0.000 OA
BRANCH  12  13
ATOM     13  C   UNL     1      -1.212  12.308  18.760  0.00  0.00    +0.000 C 
BRANCH  13  17
ATOM     14  C   UNL     1      -5.400  11.486  18.616  0.00  0.00    +0.000 A 
ATOM     15  C   UNL     1      -4.876  12.215  19.686  0.00  0.00    +0.000 A 
ATOM     16  C   UNL     1      -3.518  12.495  19.711  0.00  0.00    +0.000 A 
ATOM     17  C   UNL     1      -2.681  12.018  18.678  0.00  0.00    +0.000 A 
ATOM     18  C   UNL     1      -3.190  11.183  17.685  0.00  0.00    +0.000 A 
ATOM     19  C   UNL     1      -4.549  10.937  17.651  0.00  0.00    +0.000 A 
BRANCH  14  21
ATOM     20  C   UNL     1      -7.322  12.821  17.901  0.00  0.00    +0.000 C 
ATOM     21  C   UNL     1      -6.881  11.441  18.374  0.00  0.00    +0.000 C 
ENDBRANCH  14  21
BRANCH  18  22
ATOM     22  O   UNL     1      -2.295  10.672  16.800  0.00  0.00    +0.000 OA
ATOM     23  C   UNL     1      -2.690  10.492  15.457  0.00  0.00    +0.000 C 
ENDBRANCH  18  22
ENDBRANCH  13  17
ENDBRANCH  12  13
ENDBRANCH   1  12
BRANCH   9  24
ATOM     24  C   UNL     1       3.903   7.117  17.295  0.00  0.00    +0.000 C 
BRANCH  24  25
ATOM     25  N   UNL     1       4.720   6.312  16.433  0.00  0.00    +0.000 NA
ATOM     26  C   UNL     1       6.109   6.474  16.707  0.00  0.00    +0.000 C 
ATOM     27  C   UNL     1       6.273   4.958  16.429  0.00  0.00    +0.000 C 
ATOM     28  C   UNL     1       4.740   4.871  16.666  0.00  0.00    +0.000 C 
BRANCH  27  29
ATOM     29  C   UNL     1       6.831   4.603  15.019  0.00  0.00    +0.000 C 
ATOM     30  O   UNL     1       6.406   3.747  14.250  0.00  0.00    +0.000 OA
BRANCH  29  31
ATOM     31  O   UNL     1       7.859   5.407  14.623  0.00  0.00    +0.000 OA
ATOM     32  H   UNL     1       7.730   6.343  14.857  0.00  0.00    +0.000 HD
ENDBRANCH  29  31
ENDBRANCH  27  29
ENDBRANCH  24  25
ENDBRANCH   9  24
TORSDOF 9
ENDMDL
MODEL 3
REMARK VINA RESULT:      -8.2      3.530      4.865
REMARK  Name = 
REMARK  12 active torsions:
REMARK  status: ('A' for Active; 'I' for Inactive)
REMARK    1  A    between atoms: C_1  and  C_2
REMARK    2  A    between atoms: C_2  and  C_3
REMARK    3  A    between atoms: C_6  and  C_7
REMARK    4  A    between atoms: C_7  and  O_8
REMARK    5  A    between atoms: O_8  and  C_9
REMARK    6  A    between atoms: C_17  and  C_18
REMARK    7  A    between atoms: C_18  and  N_19
REMARK    8  A    between atoms: C_21  and  C_22
REMARK    9  A    between atoms: C_22  and  O_24
REMARK   10  A    between atoms: C_26  and  C_27
REMARK   11  A    between atoms: C_28  and  O_29
REMARK   12  A    between atoms: O_29  and  C_30
REMARK                            x       y       z     vdW  Elec       q    Type
REMARK                         _______ _______ _______ _____ _____    ______ ____
ROOT
ATOM      1  C   UNL     1       2.315   7.223  19.302  0.00  0.00    +0.000 A 
ATOM      2  C   UNL     1       2.419   7.906  18.080  0.00  0.00    +0.000 A 
ATOM      3  C   UNL     1       1.827   9.353  17.832  0.00  0.00    +0.000 A 
ATOM      4  C   UNL     1       1.127  10.068  18.838  0.00  0.00    +0.000 A 
ATOM      5  C   UNL     1       1.058   9.110  19.787  0.00  0.00    +0.000 A 
ATOM      6  C   UNL     1       1.631   7.934  20.160  0.00  0.00    +0.000 A 
ATOM      7  C   UNL     1       0.177   9.352  20.832  0.00  0.00    +0.000 C 
ATOM      8  C   UNL     1       0.143  10.200  21.931  0.00  0.00    +0.000 C 
ATOM      9  C   UNL     1      -0.282  11.617  21.085  0.00  0.00    +0.000 C 
ATOM     10  C   UNL     1       0.221  11.427  19.618  0.00  0.00    +0.000 C 
ATOM     11  C   UNL     1      -0.232  12.389  18.505  0.00  0.00    +0.000 C 
ENDROOT
BRANCH   1  12
ATOM     12  O   UNL     1       2.674   5.988  19.737  0.00  0.00    +0.000 OA
BRANCH  12  13
ATOM     13  C   UNL     1       4.115   5.628  19.606  0.00  0.00    +0.000 C 
BRANCH  13  17
ATOM     14  C   UNL     1       5.433   4.426  15.726  0.00  0.00    +0.000 A 
ATOM     15  C   UNL     1       5.798   5.680  16.221  0.00  0.00    +0.000 A 
ATOM     16  C   UNL     1       5.383   6.051  17.491  0.00  0.00    +0.000 A 
ATOM     17  C   UNL     1       4.576   5.175  18.253  0.00  0.00    +0.000 A 
ATOM     18  C   UNL     1       4.111   3.984  17.700  0.00  0.00    +0.000 A 
ATOM     19  C   UNL     1       4.556   3.609  16.448  0.00  0.00    +0.000 A 
BRANCH  14  21
ATOM     20  C   UNL     1       6.986   4.943  13.907  0.00  0.00    +0.000 C 
ATOM     21  C   UNL     1       6.117   3.852  14.520  0.00  0.00    +0.000 C 
ENDBRANCH  14  21
BRANCH  18  22
ATOM     22  O   UNL     1       3.244   3.259  18.456  0.00  0.00    +0.000 OA
ATOM     23  C   UNL     1       3.339   1.851  18.441  0.00  0.00    +0.000 C 
ENDBRANCH  18  22
ENDBRANCH  13  17
ENDBRANCH  12  13
ENDBRANCH   1  12
BRANCH   9  24
ATOM     24  C   UNL     1      -0.803  11.756  22.708  0.00  0.00    +0.000 C 
BRANCH  24  25
ATOM     25  N   UNL     1      -1.548  12.651  23.546  0.00  0.00    +0.000 NA
ATOM     26  C   UNL     1      -1.176  14.011  23.339  0.00  0.00    +0.000 C 
ATOM     27  C   UNL     1      -2.672  14.377  23.520  0.00  0.00    +0.000 C 
ATOM     28  C   UNL     1      -2.951  12.880  23.216  0.00  0.00    +0.000 C 
BRANCH  27  29
ATOM     29  C   UNL     1      -3.048  14.937  24.924  0.00  0.00    +0.000 C 
ATOM     30  O   UNL     1      -2.305  15.066  25.891  0.00  0.00    +0.000 OA
BRANCH  29  31
ATOM     31  O   UNL     1      -4.335  15.378  25.007  0.00  0.00    +0.000 OA
ATOM     32  H   UNL     1      -4.765  15.483  24.139  0.00  0.00    +0.000 HD
ENDBRANCH  29  31
ENDBRANCH  27  29
ENDBRANCH  24  25
ENDBRANCH   9  24
TORSDOF 9
ENDMDL
MODEL 4
REMARK VINA RESULT:      -8.1      3.615      4.758
REMARK  Name = 
REMARK  12 active torsions:
REMARK  status: ('A' for Active; 'I' for Inactive)
REMARK    1  A    between atoms: C_1  and  C_2
REMARK    2  A    between atoms: C_2  and  C_3
REMARK    3  A    between atoms: C_6  and  C_7
REMARK    4  A    between atoms: C_7  and  O_8
REMARK    5  A    between atoms: O_8  and  C_9
REMARK    6  A    between atoms: C_17  and  C_18
REMARK    7  A    between atoms: C_18  and  N_19
REMARK    8  A    between atoms: C_21  and  C_22
REMARK    9  A    between atoms: C_22  and  O_24
REMARK   10  A    between atoms: C_26  and  C_27
REMARK   11  A    between atoms: C_28  and  O_29
REMARK   12  A    between atoms: O_29  and  C_30
REMARK                            x       y       z     vdW  Elec       q    Type
REMARK                         _______ _______ _______ _____ _____    ______ ____
ROOT
ATOM      1  C   UNL     1       2.844   6.961  19.460  0.00  0.00    +0.000 A 
ATOM      2  C   UNL     1       2.699   7.434  18.146  0.00  0.00    +0.000 A 
ATOM      3  C   UNL     1       1.781   8.661  17.753  0.00  0.00    +0.000 A 
ATOM      4  C   UNL     1       1.017   9.374  18.712  0.00  0.00    +0.000 A 
ATOM      5  C   UNL     1       1.236   8.598  19.795  0.00  0.00    +0.000 A 
ATOM      6  C   UNL     1       2.085   7.648  20.273  0.00  0.00    +0.000 A 
ATOM      7  C   UNL     1       0.405   8.823  20.884  0.00  0.00    +0.000 C 
ATOM      8  C   UNL     1       0.264   9.819  21.841  0.00  0.00    +0.000 C 
ATOM      9  C   UNL     1      -0.530  10.952  20.845  0.00  0.00    +0.000 C 
ATOM     10  C   UNL     1      -0.110  10.625  19.377  0.00  0.00    +0.000 C 
ATOM     11  C   UNL     1      -0.850  11.268  18.190  0.00  0.00    +0.000 C 
ENDROOT
BRANCH   1  12
ATOM     12  O   UNL     1       3.503   5.921  20.031  0.00  0.00    +0.000 OA
BRANCH  12  13
ATOM     13  C   UNL     1       3.544   4.648  19.255  0.00  0.00    +0.000 C 
BRANCH  13  17
ATOM     14  C   UNL     1       6.195   4.440  15.913  0.00  0.00    +0.000 A 
ATOM     15  C   UNL     1       4.851   4.095  15.751  0.00  0.00    +0.000 A 
ATOM     16  C   UNL     1       3.995   4.187  16.837  0.00  0.00    +0.000 A 
ATOM     17  C   UNL     1       4.492   4.598  18.094  0.00  0.00    +0.000 A 
ATOM     18  C   UNL     1       5.857   4.815  18.276  0.00  0.00    +0.000 A 
ATOM     19  C   UNL     1       6.696   4.752  17.182  0.00  0.00    +0.000 A 
BRANCH  14  21
ATOM     20  C   UNL     1       6.413   4.015  13.513  0.00  0.00    +0.000 C 
ATOM     21  C   UNL     1       7.074   4.673  14.719  0.00  0.00    +0.000 C 
ENDBRANCH  14  21
BRANCH  18  22
ATOM     22  O   UNL     1       6.267   5.090  19.543  0.00  0.00    +0.000 OA
ATOM     23  C   UNL     1       7.558   5.622  19.742  0.00  0.00    +0.000 C 
ENDBRANCH  18  22
ENDBRANCH  13  17
ENDBRANCH  12  13
ENDBRANCH   1  12
BRANCH   9  24
ATOM     24  C   UNL     1      -0.945  11.252  22.477  0.00  0.00    +0.000 C 
BRANCH  24  25
ATOM     25  N   UNL     1      -1.815  12.092  23.249  0.00  0.00    +0.000 NA
ATOM     26  C   UNL     1      -1.330  13.429  23.334  0.00  0.00    +0.000 C 
ATOM     27  C   UNL     1      -2.803  13.899  23.227  0.00  0.00    +0.000 C 
ATOM     28  C   UNL     1      -3.087  12.485  22.650  0.00  0.00    +0.000 C 
BRANCH  27  29
ATOM     29  C   UNL     1      -3.466  14.302  24.577  0.00  0.00    +0.000 C 
ATOM     30  O   UNL     1      -3.588  15.435  25.031  0.00  0.00    +0.000 OA
BRANCH  29  31
ATOM     31  O   UNL     1      -4.010  13.250  25.251  0.00  0.00    +0.000 OA
ATOM     32  H   UNL     1      -3.538  13.030  26.074  0.00  0.00    +0.000 HD
ENDBRANCH  29  31
ENDBRANCH  27  29
ENDBRANCH  24  25
ENDBRANCH   9  24
TORSDOF 9
ENDMDL
MODEL 5
REMARK VINA RESULT:      -8.1      4.053      5.362
REMARK  Name = 
REMARK  12 active torsions:
REMARK  status: ('A' for Active; 'I' for Inactive)
REMARK    1  A    between atoms: C_1  and  C_2
REMARK    2  A    between atoms: C_2  and  C_3
REMARK    3  A    between atoms: C_6  and  C_7
REMARK    4  A    between atoms: C_7  and  O_8
REMARK    5  A    between atoms: O_8  and  C_9
REMARK    6  A    between atoms: C_17  and  C_18
REMARK    7  A    between atoms: C_18  and  N_19
REMARK    8  A    between atoms: C_21  and  C_22
REMARK    9  A    between atoms: C_22  and  O_24
REMARK   10  A    between atoms: C_26  and  C_27
REMARK   11  A    between atoms: C_28  and  O_29
REMARK   12  A    between atoms: O_29  and  C_30
REMARK                            x       y       z     vdW  Elec       q    Type
REMARK                         _______ _______ _______ _____ _____    ______ ____
ROOT
ATOM      1  C   UNL     1       2.169   7.650  19.243  0.00  0.00    +0.000 A 
ATOM      2  C   UNL     1       2.505   8.425  18.122  0.00  0.00    +0.000 A 
ATOM      3  C   UNL     1       1.996   9.906  17.895  0.00  0.00    +0.000 A 
ATOM      4  C   UNL     1       1.138  10.561  18.816  0.00  0.00    +0.000 A 
ATOM      5  C   UNL     1       0.880   9.534  19.653  0.00  0.00    +0.000 A 
ATOM      6  C   UNL     1       1.354   8.313  20.022  0.00  0.00    +0.000 A 
ATOM      7  C   UNL     1      -0.171   9.721  20.540  0.00  0.00    +0.000 C 
ATOM      8  C   UNL     1      -0.389  10.479  21.682  0.00  0.00    +0.000 C 
ATOM      9  C   UNL     1      -0.626  11.973  20.897  0.00  0.00    +0.000 C 
ATOM     10  C   UNL     1       0.131  11.883  19.533  0.00  0.00    +0.000 C 
ATOM     11  C   UNL     1      -0.095  12.946  18.442  0.00  0.00    +0.000 C 
ENDROOT
BRANCH   1  12
ATOM     12  O   UNL     1       2.420   6.373  19.630  0.00  0.00    +0.000 OA
BRANCH  12  13
ATOM     13  C   UNL     1       3.836   5.914  19.538  0.00  0.00    +0.000 C 
BRANCH  13  17
ATOM     14  C   UNL     1       5.154   4.622  15.686  0.00  0.00    +0.000 A 
ATOM     15  C   UNL     1       5.368   5.945  16.081  0.00  0.00    +0.000 A 
ATOM     16  C   UNL     1       4.955   6.348  17.342  0.00  0.00    +0.000 A 
ATOM     17  C   UNL     1       4.302   5.431  18.196  0.00  0.00    +0.000 A 
ATOM     18  C   UNL     1       3.979   4.153  17.745  0.00  0.00    +0.000 A 
ATOM     19  C   UNL     1       4.421   3.751  16.500  0.00  0.00    +0.000 A 
BRANCH  14  21
ATOM     20  C   UNL     1       7.177   4.810  14.322  0.00  0.00    +0.000 C 
ATOM     21  C   UNL     1       5.862   4.058  14.489  0.00  0.00    +0.000 C 
ENDBRANCH  14  21
BRANCH  18  22
ATOM     22  O   UNL     1       3.245   3.377  18.586  0.00  0.00    +0.000 OA
ATOM     23  C   UNL     1       1.972   2.933  18.169  0.00  0.00    +0.000 C 
ENDBRANCH  18  22
ENDBRANCH  13  17
ENDBRANCH  12  13
ENDBRANCH   1  12
BRANCH   9  24
ATOM     24  C   UNL     1      -1.430  11.999  22.406  0.00  0.00    +0.000 C 
BRANCH  24  25
ATOM     25  N   UNL     1      -2.760  12.103  22.937  0.00  0.00    +0.000 NA
ATOM     26  C   UNL     1      -2.894  13.205  23.830  0.00  0.00    +0.000 C 
ATOM     27  C   UNL     1      -4.311  13.423  23.241  0.00  0.00    +0.000 C 
ATOM     28  C   UNL     1      -3.813  12.571  22.041  0.00  0.00    +0.000 C 
BRANCH  27  29
ATOM     29  C   UNL     1      -5.479  12.874  24.114  0.00  0.00    +0.000 C 
ATOM     30  O   UNL     1      -6.639  13.273  24.130  0.00  0.00    +0.000 OA
BRANCH  29  31
ATOM     31  O   UNL     1      -5.132  11.795  24.869  0.00  0.00    +0.000 OA
ATOM     32  H   UNL     1      -4.170  11.646  24.915  0.00  0.00    +0.000 HD
ENDBRANCH  29  31
ENDBRANCH  27  29
ENDBRANCH  24  25
ENDBRANCH   9  24
TORSDOF 9
ENDMDL
MODEL 6
REMARK VINA RESULT:      -7.9      3.561      9.654
REMARK  Name = 
REMARK  12 active torsions:
REMARK  status: ('A' for Active; 'I' for Inactive)
REMARK    1  A    between atoms: C_1  and  C_2
REMARK    2  A    between atoms: C_2  and  C_3
REMARK    3  A    between atoms: C_6  and  C_7
REMARK    4  A    between atoms: C_7  and  O_8
REMARK    5  A    between atoms: O_8  and  C_9
REMARK    6  A    between atoms: C_17  and  C_18
REMARK    7  A    between atoms: C_18  and  N_19
REMARK    8  A    between atoms: C_21  and  C_22
REMARK    9  A    between atoms: C_22  and  O_24
REMARK   10  A    between atoms: C_26  and  C_27
REMARK   11  A    between atoms: C_28  and  O_29
REMARK   12  A    between atoms: O_29  and  C_30
REMARK                            x       y       z     vdW  Elec       q    Type
REMARK                         _______ _______ _______ _____ _____    ______ ____
ROOT
ATOM      1  C   UNL     1       0.168  11.084  20.990  0.00  0.00    +0.000 A 
ATOM      2  C   UNL     1      -0.183  10.211  22.032  0.00  0.00    +0.000 A 
ATOM      3  C   UNL     1       0.246   8.688  22.083  0.00  0.00    +0.000 A 
ATOM      4  C   UNL     1       1.016   8.084  21.056  0.00  0.00    +0.000 A 
ATOM      5  C   UNL     1       1.039   9.100  20.166  0.00  0.00    +0.000 A 
ATOM      6  C   UNL     1       0.845  10.444  20.075  0.00  0.00    +0.000 A 
ATOM      7  C   UNL     1       1.470   8.777  18.886  0.00  0.00    +0.000 C 
ATOM      8  C   UNL     1       2.686   8.460  18.295  0.00  0.00    +0.000 C 
ATOM      9  C   UNL     1       2.779   6.855  18.861  0.00  0.00    +0.000 C 
ATOM     10  C   UNL     1       1.927   6.796  20.169  0.00  0.00    +0.000 C 
ATOM     11  C   UNL     1       1.559   5.441  20.802  0.00  0.00    +0.000 C 
ENDROOT
BRANCH   1  12
ATOM     12  O   UNL     1      -0.117  12.378  20.694  0.00  0.00    +0.000 OA
BRANCH  12  13
ATOM     13  C   UNL     1      -0.657  12.647  19.330  0.00  0.00    +0.000 C 
BRANCH  13  17
ATOM     14  C   UNL     1      -4.664  11.428  18.498  0.00  0.00    +0.000 A 
ATOM     15  C   UNL     1      -3.634  11.044  17.638  0.00  0.00    +0.000 A 
ATOM     16  C   UNL     1      -2.333  11.427  17.929  0.00  0.00    +0.000 A 
ATOM     17  C   UNL     1      -2.071  12.220  19.069  0.00  0.00    +0.000 A 
ATOM     18  C   UNL     1      -3.119  12.706  19.848  0.00  0.00    +0.000 A 
ATOM     19  C   UNL     1      -4.407  12.293  19.568  0.00  0.00    +0.000 A 
BRANCH  14  21
ATOM     20  C   UNL     1      -7.068  11.876  18.404  0.00  0.00    +0.000 C 
ATOM     21  C   UNL     1      -6.014  10.776  18.413  0.00  0.00    +0.000 C 
ENDBRANCH  14  21
BRANCH  18  22
ATOM     22  O   UNL     1      -2.788  13.559  20.853  0.00  0.00    +0.000 OA
ATOM     23  C   UNL     1      -3.414  14.822  20.909  0.00  0.00    +0.000 C 
ENDBRANCH  18  22
ENDBRANCH  13  17
ENDBRANCH  12  13
ENDBRANCH   1  12
BRANCH   9  24
ATOM     24  C   UNL     1       3.695   6.997  17.424  0.00  0.00    +0.000 C 
BRANCH  24  25
ATOM     25  N   UNL     1       4.905   6.490  16.843  0.00  0.00    +0.000 NA
ATOM     26  C   UNL     1       4.887   5.070  16.724  0.00  0.00    +0.000 C 
ATOM     27  C   UNL     1       5.627   5.241  15.373  0.00  0.00    +0.000 C 
ATOM     28  C   UNL     1       5.116   6.707  15.415  0.00  0.00    +0.000 C 
BRANCH  27  29
ATOM     29  C   UNL     1       7.163   4.984  15.425  0.00  0.00    +0.000 C 
ATOM     30  O   UNL     1       7.788   4.429  16.323  0.00  0.00    +0.000 OA
BRANCH  29  31
ATOM     31  O   UNL     1       7.819   5.378  14.298  0.00  0.00    +0.000 OA
ATOM     32  H   UNL     1       7.255   5.388  13.504  0.00  0.00    +0.000 HD
ENDBRANCH  29  31
ENDBRANCH  27  29
ENDBRANCH  24  25
ENDBRANCH   9  24
TORSDOF 9
ENDMDL
MODEL 7
REMARK VINA RESULT:      -7.8      4.559      6.147
REMARK  Name = 
REMARK  12 active torsions:
REMARK  status: ('A' for Active; 'I' for Inactive)
REMARK    1  A    between atoms: C_1  and  C_2
REMARK    2  A    between atoms: C_2  and  C_3
REMARK    3  A    between atoms: C_6  and  C_7
REMARK    4  A    between atoms: C_7  and  O_8
REMARK    5  A    between atoms: O_8  and  C_9
REMARK    6  A    between atoms: C_17  and  C_18
REMARK    7  A    between atoms: C_18  and  N_19
REMARK    8  A    between atoms: C_21  and  C_22
REMARK    9  A    between atoms: C_22  and  O_24
REMARK   10  A    between atoms: C_26  and  C_27
REMARK   11  A    between atoms: C_28  and  O_29
REMARK   12  A    between atoms: O_29  and  C_30
REMARK                            x       y       z     vdW  Elec       q    Type
REMARK                         _______ _______ _______ _____ _____    ______ ____
ROOT
ATOM      1  C   UNL     1       1.609   9.776  18.365  0.00  0.00    +0.000 A 
ATOM      2  C   UNL     1       2.298  10.954  18.041  0.00  0.00    +0.000 A 
ATOM      3  C   UNL     1       2.028  12.349  18.738  0.00  0.00    +0.000 A 
ATOM      4  C   UNL     1       1.045  12.513  19.748  0.00  0.00    +0.000 A 
ATOM      5  C   UNL     1       0.475  11.290  19.706  0.00  0.00    +0.000 A 
ATOM      6  C   UNL     1       0.704  10.019  19.276  0.00  0.00    +0.000 A 
ATOM      7  C   UNL     1      -0.739  11.162  20.369  0.00  0.00    +0.000 C 
ATOM      8  C   UNL     1      -1.150  11.118  21.694  0.00  0.00    +0.000 C 
ATOM      9  C   UNL     1      -1.017  12.788  22.007  0.00  0.00    +0.000 C 
ATOM     10  C   UNL     1       0.042  13.346  21.004  0.00  0.00    +0.000 C 
ATOM     11  C   UNL     1       0.215  14.863  20.812  0.00  0.00    +0.000 C 
ENDROOT
BRANCH   1  12
ATOM     12  O   UNL     1       1.614   8.506  17.886  0.00  0.00    +0.000 OA
BRANCH  12  13
ATOM     13  C   UNL     1       2.302   7.479  18.721  0.00  0.00    +0.000 C 
BRANCH  13  17
ATOM     14  C   UNL     1       5.286   5.175  16.714  0.00  0.00    +0.000 A 
ATOM     15  C   UNL     1       5.225   6.555  16.508  0.00  0.00    +0.000 A 
ATOM     16  C   UNL     1       4.266   7.297  17.182  0.00  0.00    +0.000 A 
ATOM     17  C   UNL     1       3.349   6.649  18.039  0.00  0.00    +0.000 A 
ATOM     18  C   UNL     1       3.334   5.259  18.137  0.00  0.00    +0.000 A 
ATOM     19  C   UNL     1       4.313   4.532  17.488  0.00  0.00    +0.000 A 
BRANCH  14  21
ATOM     20  C   UNL     1       7.552   4.518  17.360  0.00  0.00    +0.000 C 
ATOM     21  C   UNL     1       6.487   4.389  16.278  0.00  0.00    +0.000 C 
ENDBRANCH  14  21
BRANCH  18  22
ATOM     22  O   UNL     1       2.343   4.711  18.890  0.00  0.00    +0.000 OA
ATOM     23  C   UNL     1       1.413   3.850  18.270  0.00  0.00    +0.000 C 
ENDBRANCH  18  22
ENDBRANCH  13  17
ENDBRANCH  12  13
ENDBRANCH   1  12
BRANCH   9  24
ATOM     24  C   UNL     1      -2.166  12.107  23.076  0.00  0.00    +0.000 C 
BRANCH  24  25
ATOM     25  N   UNL     1      -3.574  12.158  23.348  0.00  0.00    +0.000 NA
ATOM     26  C   UNL     1      -3.898  13.169  24.298  0.00  0.00    +0.000 C 
ATOM     27  C   UNL     1      -5.180  13.441  23.469  0.00  0.00    +0.000 C 
ATOM     28  C   UNL     1      -4.445  12.707  22.314  0.00  0.00    +0.000 C 
BRANCH  27  29
ATOM     29  C   UNL     1      -6.483  12.810  24.045  0.00  0.00    +0.000 C 
ATOM     30  O   UNL     1      -6.857  11.648  23.923  0.00  0.00    +0.000 OA
BRANCH  29  31
ATOM     31  O   UNL     1      -7.209  13.669  24.814  0.00  0.00    +0.000 OA
ATOM     32  H   UNL     1      -7.653  14.368  24.301  0.00  0.00    +0.000 HD
ENDBRANCH  29  31
ENDBRANCH  27  29
ENDBRANCH  24  25
ENDBRANCH   9  24
TORSDOF 9
ENDMDL
MODEL 8
REMARK VINA RESULT:      -7.8      3.399      9.388
REMARK  Name = 
REMARK  12 active torsions:
REMARK  status: ('A' for Active; 'I' for Inactive)
REMARK    1  A    between atoms: C_1  and  C_2
REMARK    2  A    between atoms: C_2  and  C_3
REMARK    3  A    between atoms: C_6  and  C_7
REMARK    4  A    between atoms: C_7  and  O_8
REMARK    5  A    between atoms: O_8  and  C_9
REMARK    6  A    between atoms: C_17  and  C_18
REMARK    7  A    between atoms: C_18  and  N_19
REMARK    8  A    between atoms: C_21  and  C_22
REMARK    9  A    between atoms: C_22  and  O_24
REMARK   10  A    between atoms: C_26  and  C_27
REMARK   11  A    between atoms: C_28  and  O_29
REMARK   12  A    between atoms: O_29  and  C_30
REMARK                            x       y       z     vdW  Elec       q    Type
REMARK                         _______ _______ _______ _____ _____    ______ ____
ROOT
ATOM      1  C   UNL     1       1.301   8.981  20.157  0.00  0.00    +0.000 A 
ATOM      2  C   UNL     1       0.916   8.102  21.181  0.00  0.00    +0.000 A 
ATOM      3  C   UNL     1       1.354   6.582  21.242  0.00  0.00    +0.000 A 
ATOM      4  C   UNL     1       2.168   5.988  20.244  0.00  0.00    +0.000 A 
ATOM      5  C   UNL     1       2.218   7.007  19.360  0.00  0.00    +0.000 A 
ATOM      6  C   UNL     1       2.018   8.350  19.266  0.00  0.00    +0.000 A 
ATOM      7  C   UNL     1       2.701   6.693  18.096  0.00  0.00    +0.000 C 
ATOM      8  C   UNL     1       3.941   6.387  17.551  0.00  0.00    +0.000 C 
ATOM      9  C   UNL     1       4.024   4.781  18.115  0.00  0.00    +0.000 C 
ATOM     10  C   UNL     1       3.122   4.709  19.388  0.00  0.00    +0.000 C 
ATOM     11  C   UNL     1       2.740   3.350  20.001  0.00  0.00    +0.000 C 
ENDROOT
BRANCH   1  12
ATOM     12  O   UNL     1       1.018  10.274  19.855  0.00  0.00    +0.000 OA
BRANCH  12  13
ATOM     13  C   UNL     1       0.533  10.546  18.471  0.00  0.00    +0.000 C 
BRANCH  13  17
ATOM     14  C   UNL     1      -3.679  10.949  17.890  0.00  0.00    +0.000 A 
ATOM     15  C   UNL     1      -2.991   9.910  17.258  0.00  0.00    +0.000 A 
ATOM     16  C   UNL     1      -1.627   9.776  17.472  0.00  0.00    +0.000 A 
ATOM     17  C   UNL     1      -0.948  10.701  18.295  0.00  0.00    +0.000 A 
ATOM     18  C   UNL     1      -1.618  11.807  18.815  0.00  0.00    +0.000 A 
ATOM     19  C   UNL     1      -2.981  11.915  18.623  0.00  0.00    +0.000 A 
BRANCH  14  21
ATOM     20  C   UNL     1      -5.599  11.814  19.135  0.00  0.00    +0.000 C 
ATOM     21  C   UNL     1      -5.178  10.943  17.958  0.00  0.00    +0.000 C 
ENDBRANCH  14  21
BRANCH  18  22
ATOM     22  O   UNL     1      -0.864  12.712  19.496  0.00  0.00    +0.000 OA
ATOM     23  C   UNL     1      -1.507  13.614  20.369  0.00  0.00    +0.000 C 
ENDBRANCH  18  22
ENDBRANCH  13  17
ENDBRANCH  12  13
ENDBRANCH   1  12
BRANCH   9  24
ATOM     24  C   UNL     1       4.994   4.934  16.715  0.00  0.00    +0.000 C 
BRANCH  24  25
ATOM     25  N   UNL     1       5.178   4.310  15.436  0.00  0.00    +0.000 NA
ATOM     26  C   UNL     1       5.411   5.263  14.403  0.00  0.00    +0.000 C 
ATOM     27  C   UNL     1       6.419   4.257  13.793  0.00  0.00    +0.000 C 
ATOM     28  C   UNL     1       6.431   3.599  15.201  0.00  0.00    +0.000 C 
BRANCH  27  29
ATOM     29  C   UNL     1       5.879   3.432  12.588  0.00  0.00    +0.000 C 
ATOM     30  O   UNL     1       4.832   3.617  11.976  0.00  0.00    +0.000 OA
BRANCH  29  31
ATOM     31  O   UNL     1       6.734   2.456  12.170  0.00  0.00    +0.000 OA
ATOM     32  H   UNL     1       7.673   2.695  12.268  0.00  0.00    +0.000 HD
ENDBRANCH  29  31
ENDBRANCH  27  29
ENDBRANCH  24  25
ENDBRANCH   9  24
TORSDOF 9
ENDMDL
MODEL 9
REMARK VINA RESULT:      -7.8      3.643      5.054
REMARK  Name = 
REMARK  12 active torsions:
REMARK  status: ('A' for Active; 'I' for Inactive)
REMARK    1  A    between atoms: C_1  and  C_2
REMARK    2  A    between atoms: C_2  and  C_3
REMARK    3  A    between atoms: C_6  and  C_7
REMARK    4  A    between atoms: C_7  and  O_8
REMARK    5  A    between atoms: O_8  and  C_9
REMARK    6  A    between atoms: C_17  and  C_18
REMARK    7  A    between atoms: C_18  and  N_19
REMARK    8  A    between atoms: C_21  and  C_22
REMARK    9  A    between atoms: C_22  and  O_24
REMARK   10  A    between atoms: C_26  and  C_27
REMARK   11  A    between atoms: C_28  and  O_29
REMARK   12  A    between atoms: O_29  and  C_30
REMARK                            x       y       z     vdW  Elec       q    Type
REMARK                         _______ _______ _______ _____ _____    ______ ____
ROOT
ATOM      1  C   UNL     1       2.046   7.975  19.272  0.00  0.00    +0.000 A 
ATOM      2  C   UNL     1       1.707   8.477  18.005  0.00  0.00    +0.000 A 
ATOM      3  C   UNL     1       0.724   9.697  17.780  0.00  0.00    +0.000 A 
ATOM      4  C   UNL     1       0.096  10.372  18.857  0.00  0.00    +0.000 A 
ATOM      5  C   UNL     1       0.480   9.575  19.877  0.00  0.00    +0.000 A 
ATOM      6  C   UNL     1       1.402   8.629  20.203  0.00  0.00    +0.000 A 
ATOM      7  C   UNL     1      -0.190   9.760  21.079  0.00  0.00    +0.000 C 
ATOM      8  C   UNL     1      -0.205  10.730  22.072  0.00  0.00    +0.000 C 
ATOM      9  C   UNL     1      -1.151  11.871  21.231  0.00  0.00    +0.000 C 
ATOM     10  C   UNL     1      -0.942  11.587  19.709  0.00  0.00    +0.000 C 
ATOM     11  C   UNL     1      -1.854  12.245  18.658  0.00  0.00    +0.000 C 
ENDROOT
BRANCH   1  12
ATOM     12  O   UNL     1       2.795   6.934  19.716  0.00  0.00    +0.000 OA
BRANCH  12  13
ATOM     13  C   UNL     1       2.621   5.635  19.004  0.00  0.00    +0.000 C 
BRANCH  13  17
ATOM     14  C   UNL     1       5.461   4.800  15.926  0.00  0.00    +0.000 A 
ATOM     15  C   UNL     1       5.252   6.119  16.332  0.00  0.00    +0.000 A 
ATOM     16  C   UNL     1       4.343   6.377  17.348  0.00  0.00    +0.000 A 
ATOM     17  C   UNL     1       3.623   5.313  17.935  0.00  0.00    +0.000 A 
ATOM     18  C   UNL     1       3.743   4.018  17.435  0.00  0.00    +0.000 A 
ATOM     19  C   UNL     1       4.673   3.767  16.446  0.00  0.00    +0.000 A 
BRANCH  14  21
ATOM     20  C   UNL     1       6.134   3.923  13.743  0.00  0.00    +0.000 C 
ATOM     21  C   UNL     1       6.648   4.439  15.081  0.00  0.00    +0.000 C 
ENDBRANCH  14  21
BRANCH  18  22
ATOM     22  O   UNL     1       2.926   3.076  17.978  0.00  0.00    +0.000 OA
ATOM     23  C   UNL     1       3.438   1.783  18.213  0.00  0.00    +0.000 C 
ENDBRANCH  18  22
ENDBRANCH  13  17
ENDBRANCH  12  13
ENDBRANCH   1  12
BRANCH   9  24
ATOM     24  C   UNL     1      -1.330  12.125  22.913  0.00  0.00    +0.000 C 
BRANCH  24  25
ATOM     25  N   UNL     1      -1.559  13.196  23.840  0.00  0.00    +0.000 NA
ATOM     26  C   UNL     1      -1.023  14.431  23.374  0.00  0.00    +0.000 C 
ATOM     27  C   UNL     1      -2.268  15.125  23.983  0.00  0.00    +0.000 C 
ATOM     28  C   UNL     1      -2.919  13.714  23.956  0.00  0.00    +0.000 C 
BRANCH  27  29
ATOM     29  C   UNL     1      -2.030  15.810  25.362  0.00  0.00    +0.000 C 
ATOM     30  O   UNL     1      -1.366  15.377  26.298  0.00  0.00    +0.000 OA
BRANCH  29  31
ATOM     31  O   UNL     1      -2.588  17.051  25.455  0.00  0.00    +0.000 OA
ATOM     32  H   UNL     1      -2.052  17.679  25.972  0.00  0.00    +0.000 HD
ENDBRANCH  29  31
ENDBRANCH  27  29
ENDBRANCH  24  25
ENDBRANCH   9  24
TORSDOF 9
ENDMDL
