MODEL 1
REMARK VINA RESULT:      -7.2      0.000      0.000
REMARK  Name = 
REMARK  6 active torsions:
REMARK  status: ('A' for Active; 'I' for Inactive)
REMARK    1  A    between atoms: C_1  and  O_2
REMARK    2  A    between atoms: O_2  and  C_3
REMARK    3  A    between atoms: C_8  and  C_9
REMARK    4  A    between atoms: C_9  and  C_10
REMARK    5  A    between atoms: C_19  and  C_20
REMARK    6  A    between atoms: C_28  and  C_29
REMARK                            x       y       z     vdW  Elec       q    Type
REMARK                         _______ _______ _______ _____ _____    ______ ____
ROOT
ATOM      1  C   UNL     1      -4.308  11.160  17.820  0.00  0.00    +0.000 C 
ATOM      2  C   UNL     1      -2.879  11.660  18.103  0.00  0.00    +0.000 C 
ATOM      3  O   UNL     1      -2.536  11.436  19.480  0.00  0.00    +0.000 OA
ATOM      4  C   UNL     1      -1.830  12.425  20.076  0.00  0.00    +0.000 C 
ATOM      5  O   UNL     1      -1.636  13.542  19.603  0.00  0.00    +0.000 OA
ATOM      6  C   UNL     1      -1.284  11.989  21.436  0.00  0.00    +0.000 C 
ATOM      7  N   UNL     1      -1.721  13.027  22.374  0.00  0.00    +0.000 N 
ATOM      8  C   UNL     1      -2.911  12.809  23.046  0.00  0.00    +0.000 C 
ATOM      9  O   UNL     1      -3.195  11.708  23.505  0.00  0.00    +0.000 OA
ATOM     10  C   UNL     1      -3.827  14.030  23.130  0.00  0.00    +0.000 C 
ATOM     11  C   UNL     1      -3.985  14.651  21.731  0.00  0.00    +0.000 C 
ATOM     12  C   UNL     1      -5.192  13.659  23.766  0.00  0.00    +0.000 C 
ATOM     13  O   UNL     1      -6.271  13.976  22.861  0.00  0.00    +0.000 OA
ATOM     14  C   UNL     1      -6.728  12.959  22.070  0.00  0.00    +0.000 C 
ATOM     15  O   UNL     1      -6.616  11.772  22.323  0.00  0.00    +0.000 OA
ATOM     16  C   UNL     1      -7.306  13.555  20.805  0.00  0.00    +0.000 C 
ATOM     17  C   UNL     1      -7.566  12.545  19.683  0.00  0.00    +0.000 C 
ATOM     18  C   UNL     1      -6.380  11.674  19.222  0.00  0.00    +0.000 C 
ATOM     19  C   UNL     1      -5.367  12.269  18.211  0.00  0.00    +0.000 C 
ATOM     20  C   UNL     1      -6.065  12.873  16.986  0.00  0.00    +0.000 C 
ATOM     21  H   UNL     1      -1.504  13.974  22.087  0.00  0.00    +0.000 HD
ENDROOT
BRANCH   1  23
ATOM     22  C   UNL     1      -3.235  10.851  15.688  0.00  0.00    +0.000 C 
ATOM     23  O   UNL     1      -4.449  10.808  16.433  0.00  0.00    +0.000 OA
ENDBRANCH   1  23
BRANCH   6  24
ATOM     24  C   UNL     1       0.238  11.905  21.284  0.00  0.00    +0.000 C 
BRANCH  24  25
ATOM     25  C   UNL     1       0.750  10.570  20.817  0.00  0.00    +0.000 A 
ATOM     26  C   UNL     1       0.912   9.505  21.715  0.00  0.00    +0.000 A 
ATOM     27  C   UNL     1       1.359   8.264  21.262  0.00  0.00    +0.000 A 
ATOM     28  C   UNL     1       1.647   8.075  19.911  0.00  0.00    +0.000 A 
ATOM     29  C   UNL     1       1.488   9.126  19.013  0.00  0.00    +0.000 A 
ATOM     30  C   UNL     1       1.042  10.368  19.461  0.00  0.00    +0.000 A 
ENDBRANCH  24  25
ENDBRANCH   6  24
TORSDOF 3
ENDMDL
MODEL 2
REMARK VINA RESULT:      -7.0      1.777      2.930
REMARK  Name = 
REMARK  6 active torsions:
REMARK  status: ('A' for Active; 'I' for Inactive)
REMARK    1  A    between atoms: C_1  and  O_2
REMARK    2  A    between atoms: O_2  and  C_3
REMARK    3  A    between atoms: C_8  and  C_9
REMARK    4  A    between atoms: C_9  and  C_10
REMARK    5  A    between atoms: C_19  and  C_20
REMARK    6  A    between atoms: C_28  and  C_29
REMARK                            x       y       z     vdW  Elec       q    Type
REMARK                         _______ _______ _______ _____ _____    ______ ____
ROOT
ATOM      1  C   UNL     1      -4.857  11.533  18.974  0.00  0.00    +0.000 C 
ATOM      2  C   UNL     1      -3.539  11.530  18.176  0.00  0.00    +0.000 C 
ATOM      3  O   UNL     1      -2.436  11.211  19.040  0.00  0.00    +0.000 OA
ATOM      4  C   UNL     1      -1.298  11.912  18.820  0.00  0.00    +0.000 C 
ATOM      5  O   UNL     1      -1.202  12.898  18.094  0.00  0.00    +0.000 OA
ATOM      6  C   UNL     1      -0.115  11.325  19.590  0.00  0.00    +0.000 C 
ATOM      7  N   UNL     1       0.456  12.453  20.331  0.00  0.00    +0.000 N 
ATOM      8  C   UNL     1       0.011  12.646  21.627  0.00  0.00    +0.000 C 
ATOM      9  O   UNL     1      -0.154  11.705  22.395  0.00  0.00    +0.000 OA
ATOM     10  C   UNL     1      -0.278  14.102  21.990  0.00  0.00    +0.000 C 
ATOM     11  C   UNL     1      -1.168  14.735  20.906  0.00  0.00    +0.000 C 
ATOM     12  C   UNL     1      -0.908  14.210  23.403  0.00  0.00    +0.000 C 
ATOM     13  O   UNL     1      -2.192  14.863  23.333  0.00  0.00    +0.000 OA
ATOM     14  C   UNL     1      -3.291  14.053  23.257  0.00  0.00    +0.000 C 
ATOM     15  O   UNL     1      -3.335  12.897  23.642  0.00  0.00    +0.000 OA
ATOM     16  C   UNL     1      -4.395  14.801  22.542  0.00  0.00    +0.000 C 
ATOM     17  C   UNL     1      -5.573  13.931  22.095  0.00  0.00    +0.000 C 
ATOM     18  C   UNL     1      -5.258  12.713  21.203  0.00  0.00    +0.000 C 
ATOM     19  C   UNL     1      -5.071  12.933  19.680  0.00  0.00    +0.000 C 
ATOM     20  C   UNL     1      -6.230  13.729  19.068  0.00  0.00    +0.000 C 
ATOM     21  H   UNL     1       0.650  13.272  19.768  0.00  0.00    +0.000 HD
ENDROOT
BRANCH   1  23
ATOM     22  C   UNL     1      -6.888  10.289  18.628  0.00  0.00    +0.000 C 
ATOM     23  O   UNL     1      -5.967  11.243  18.106  0.00  0.00    +0.000 OA
ENDBRANCH   1  23
BRANCH   6  24
ATOM     24  C   UNL     1       0.835  10.738  18.541  0.00  0.00    +0.000 C 
BRANCH  24  25
ATOM     25  C   UNL     1       1.370   9.372  18.872  0.00  0.00    +0.000 A 
ATOM     26  C   UNL     1       2.052   8.613  17.910  0.00  0.00    +0.000 A 
ATOM     27  C   UNL     1       2.569   7.359  18.240  0.00  0.00    +0.000 A 
ATOM     28  C   UNL     1       2.411   6.855  19.529  0.00  0.00    +0.000 A 
ATOM     29  C   UNL     1       1.736   7.603  20.491  0.00  0.00    +0.000 A 
ATOM     30  C   UNL     1       1.218   8.855  20.165  0.00  0.00    +0.000 A 
ENDBRANCH  24  25
ENDBRANCH   6  24
TORSDOF 3
ENDMDL
MODEL 3
REMARK VINA RESULT:      -6.9      0.598      1.145
REMARK  Name = 
REMARK  6 active torsions:
REMARK  status: ('A' for Active; 'I' for Inactive)
REMARK    1  A    between atoms: C_1  and  O_2
REMARK    2  A    between atoms: O_2  and  C_3
REMARK    3  A    between atoms: C_8  and  C_9
REMARK    4  A    between atoms: C_9  and  C_10
REMARK    5  A    between atoms: C_19  and  C_20
REMARK    6  A    between atoms: C_28  and  C_29
REMARK                            x       y       z     vdW  Elec       q    Type
REMARK                         _______ _______ _______ _____ _____    ______ ____
ROOT
ATOM      1  C   UNL     1      -4.201  11.204  17.761  0.00  0.00    +0.000 C 
ATOM      2  C   UNL     1      -2.797  11.760  18.066  0.00  0.00    +0.000 C 
ATOM      3  O   UNL     1      -2.468  11.552  19.448  0.00  0.00    +0.000 OA
ATOM      4  C   UNL     1      -1.810  12.570  20.054  0.00  0.00    +0.000 C 
ATOM      5  O   UNL     1      -1.652  13.692  19.581  0.00  0.00    +0.000 OA
ATOM      6  C   UNL     1      -1.270  12.157  21.423  0.00  0.00    +0.000 C 
ATOM      7  N   UNL     1      -1.762  13.179  22.352  0.00  0.00    +0.000 N 
ATOM      8  C   UNL     1      -2.953  12.916  23.004  0.00  0.00    +0.000 C 
ATOM      9  O   UNL     1      -3.202  11.806  23.462  0.00  0.00    +0.000 OA
ATOM     10  C   UNL     1      -3.917  14.101  23.072  0.00  0.00    +0.000 C 
ATOM     11  C   UNL     1      -4.077  14.713  21.668  0.00  0.00    +0.000 C 
ATOM     12  C   UNL     1      -5.277  13.679  23.686  0.00  0.00    +0.000 C 
ATOM     13  O   UNL     1      -6.353  13.951  22.764  0.00  0.00    +0.000 OA
ATOM     14  C   UNL     1      -6.757  12.916  21.967  0.00  0.00    +0.000 C 
ATOM     15  O   UNL     1      -6.603  11.735  22.225  0.00  0.00    +0.000 OA
ATOM     16  C   UNL     1      -7.338  13.486  20.692  0.00  0.00    +0.000 C 
ATOM     17  C   UNL     1      -7.540  12.466  19.568  0.00  0.00    +0.000 C 
ATOM     18  C   UNL     1      -6.314  11.641  19.128  0.00  0.00    +0.000 C 
ATOM     19  C   UNL     1      -5.309  12.272  18.132  0.00  0.00    +0.000 C 
ATOM     20  C   UNL     1      -6.009  12.847  16.895  0.00  0.00    +0.000 C 
ATOM     21  H   UNL     1      -1.577  14.133  22.065  0.00  0.00    +0.000 HD
ENDROOT
BRANCH   1  23
ATOM     22  C   UNL     1      -3.167  10.166  15.852  0.00  0.00    +0.000 C 
ATOM     23  O   UNL     1      -4.306  10.845  16.373  0.00  0.00    +0.000 OA
ENDBRANCH   1  23
BRANCH   6  24
ATOM     24  C   UNL     1       0.256  12.132  21.295  0.00  0.00    +0.000 C 
BRANCH  24  25
ATOM     25  C   UNL     1       0.781  11.237  20.207  0.00  0.00    +0.000 A 
ATOM     26  C   UNL     1       1.409  11.772  19.073  0.00  0.00    +0.000 A 
ATOM     27  C   UNL     1       1.918  10.928  18.085  0.00  0.00    +0.000 A 
ATOM     28  C   UNL     1       1.805   9.546  18.221  0.00  0.00    +0.000 A 
ATOM     29  C   UNL     1       1.185   9.005  19.344  0.00  0.00    +0.000 A 
ATOM     30  C   UNL     1       0.675   9.845  20.333  0.00  0.00    +0.000 A 
ENDBRANCH  24  25
ENDBRANCH   6  24
TORSDOF 3
ENDMDL
MODEL 4
REMARK VINA RESULT:      -6.6      1.339      1.670
REMARK  Name = 
REMARK  6 active torsions:
REMARK  status: ('A' for Active; 'I' for Inactive)
REMARK    1  A    between atoms: C_1  and  O_2
REMARK    2  A    between atoms: O_2  and  C_3
REMARK    3  A    between atoms: C_8  and  C_9
REMARK    4  A    between atoms: C_9  and  C_10
REMARK    5  A    between atoms: C_19  and  C_20
REMARK    6  A    between atoms: C_28  and  C_29
REMARK                            x       y       z     vdW  Elec       q    Type
REMARK                         _______ _______ _______ _____ _____    ______ ____
ROOT
ATOM      1  C   UNL     1      -4.558  11.511  18.608  0.00  0.00    +0.000 C 
ATOM      2  C   UNL     1      -3.099  11.872  18.267  0.00  0.00    +0.000 C 
ATOM      3  O   UNL     1      -2.241  11.578  19.381  0.00  0.00    +0.000 OA
ATOM      4  C   UNL     1      -1.261  12.482  19.620  0.00  0.00    +0.000 C 
ATOM      5  O   UNL     1      -1.176  13.590  19.096  0.00  0.00    +0.000 OA
ATOM      6  C   UNL     1      -0.246  11.959  20.636  0.00  0.00    +0.000 C 
ATOM      7  N   UNL     1      -0.156  13.004  21.659  0.00  0.00    +0.000 N 
ATOM      8  C   UNL     1      -0.977  12.876  22.766  0.00  0.00    +0.000 C 
ATOM      9  O   UNL     1      -1.148  11.792  23.314  0.00  0.00    +0.000 OA
ATOM     10  C   UNL     1      -1.656  14.171  23.209  0.00  0.00    +0.000 C 
ATOM     11  C   UNL     1      -2.319  14.844  21.994  0.00  0.00    +0.000 C 
ATOM     12  C   UNL     1      -2.665  13.907  24.357  0.00  0.00    +0.000 C 
ATOM     13  O   UNL     1      -3.986  14.346  23.977  0.00  0.00    +0.000 OA
ATOM     14  C   UNL     1      -4.823  13.398  23.458  0.00  0.00    +0.000 C 
ATOM     15  O   UNL     1      -4.728  12.198  23.655  0.00  0.00    +0.000 OA
ATOM     16  C   UNL     1      -5.814  14.080  22.540  0.00  0.00    +0.000 C 
ATOM     17  C   UNL     1      -6.608  13.131  21.638  0.00  0.00    +0.000 C 
ATOM     18  C   UNL     1      -5.807  12.170  20.736  0.00  0.00    +0.000 C 
ATOM     19  C   UNL     1      -5.251  12.700  19.390  0.00  0.00    +0.000 C 
ATOM     20  C   UNL     1      -6.333  13.400  18.557  0.00  0.00    +0.000 C 
ATOM     21  H   UNL     1       0.011  13.936  21.297  0.00  0.00    +0.000 HD
ENDROOT
BRANCH   1  23
ATOM     22  C   UNL     1      -4.489  11.113  16.235  0.00  0.00    +0.000 C 
ATOM     23  O   UNL     1      -5.293  11.215  17.407  0.00  0.00    +0.000 OA
ENDBRANCH   1  23
BRANCH   6  24
ATOM     24  C   UNL     1       1.062  11.742  19.867  0.00  0.00    +0.000 C 
BRANCH  24  25
ATOM     25  C   UNL     1       1.385  10.304  19.571  0.00  0.00    +0.000 A 
ATOM     26  C   UNL     1       1.316   9.328  20.576  0.00  0.00    +0.000 A 
ATOM     27  C   UNL     1       1.591   7.992  20.280  0.00  0.00    +0.000 A 
ATOM     28  C   UNL     1       1.934   7.620  18.982  0.00  0.00    +0.000 A 
ATOM     29  C   UNL     1       2.004   8.582  17.978  0.00  0.00    +0.000 A 
ATOM     30  C   UNL     1       1.731   9.918  18.269  0.00  0.00    +0.000 A 
ENDBRANCH  24  25
ENDBRANCH   6  24
TORSDOF 3
ENDMDL
MODEL 5
REMARK VINA RESULT:      -6.3      2.784      5.009
REMARK  Name = 
REMARK  6 active torsions:
REMARK  status: ('A' for Active; 'I' for Inactive)
REMARK    1  A    between atoms: C_1  and  O_2
REMARK    2  A    between atoms: O_2  and  C_3
REMARK    3  A    between atoms: C_8  and  C_9
REMARK    4  A    between atoms: C_9  and  C_10
REMARK    5  A    between atoms: C_19  and  C_20
REMARK    6  A    between atoms: C_28  and  C_29
REMARK                            x       y       z     vdW  Elec       q    Type
REMARK                         _______ _______ _______ _____ _____    ______ ____
ROOT
ATOM      1  C   UNL     1      -3.454  12.921  20.998  0.00  0.00    +0.000 C 
ATOM      2  C   UNL     1      -2.796  12.319  19.742  0.00  0.00    +0.000 C 
ATOM      3  O   UNL     1      -1.413  12.025  19.997  0.00  0.00    +0.000 OA
ATOM      4  C   UNL     1      -0.559  12.296  18.982  0.00  0.00    +0.000 C 
ATOM      5  O   UNL     1      -0.841  12.932  17.970  0.00  0.00    +0.000 OA
ATOM      6  C   UNL     1       0.828  11.708  19.238  0.00  0.00    +0.000 C 
ATOM      7  N   UNL     1       1.757  12.828  19.061  0.00  0.00    +0.000 N 
ATOM      8  C   UNL     1       2.109  13.540  20.193  0.00  0.00    +0.000 C 
ATOM      9  O   UNL     1       2.359  12.977  21.253  0.00  0.00    +0.000 OA
ATOM     10  C   UNL     1       2.125  15.058  20.011  0.00  0.00    +0.000 C 
ATOM     11  C   UNL     1       0.810  15.510  19.352  0.00  0.00    +0.000 C 
ATOM     12  C   UNL     1       2.384  15.778  21.359  0.00  0.00    +0.000 C 
ATOM     13  O   UNL     1       1.301  16.682  21.663  0.00  0.00    +0.000 OA
ATOM     14  C   UNL     1       0.312  16.204  22.478  0.00  0.00    +0.000 C 
ATOM     15  O   UNL     1       0.443  15.290  23.273  0.00  0.00    +0.000 OA
ATOM     16  C   UNL     1      -0.972  16.937  22.159  0.00  0.00    +0.000 C 
ATOM     17  C   UNL     1      -2.234  16.305  22.751  0.00  0.00    +0.000 C 
ATOM     18  C   UNL     1      -2.512  14.825  22.417  0.00  0.00    +0.000 C 
ATOM     19  C   UNL     1      -3.188  14.480  21.066  0.00  0.00    +0.000 C 
ATOM     20  C   UNL     1      -4.460  15.304  20.832  0.00  0.00    +0.000 C 
ATOM     21  H   UNL     1       1.640  13.339  18.194  0.00  0.00    +0.000 HD
ENDROOT
BRANCH   1  23
ATOM     22  C   UNL     1      -5.349  12.036  19.808  0.00  0.00    +0.000 C 
ATOM     23  O   UNL     1      -4.869  12.662  20.994  0.00  0.00    +0.000 OA
ENDBRANCH   1  23
BRANCH   6  24
ATOM     24  C   UNL     1       1.019  10.587  18.211  0.00  0.00    +0.000 C 
BRANCH  24  25
ATOM     25  C   UNL     1       1.483   9.278  18.787  0.00  0.00    +0.000 A 
ATOM     26  C   UNL     1       1.168   8.919  20.106  0.00  0.00    +0.000 A 
ATOM     27  C   UNL     1       1.580   7.688  20.618  0.00  0.00    +0.000 A 
ATOM     28  C   UNL     1       2.307   6.807  19.820  0.00  0.00    +0.000 A 
ATOM     29  C   UNL     1       2.623   7.155  18.509  0.00  0.00    +0.000 A 
ATOM     30  C   UNL     1       2.214   8.384  17.994  0.00  0.00    +0.000 A 
ENDBRANCH  24  25
ENDBRANCH   6  24
TORSDOF 3
ENDMDL
MODEL 6
REMARK VINA RESULT:      -6.3      1.822      2.750
REMARK  Name = 
REMARK  6 active torsions:
REMARK  status: ('A' for Active; 'I' for Inactive)
REMARK    1  A    between atoms: C_1  and  O_2
REMARK    2  A    between atoms: O_2  and  C_3
REMARK    3  A    between atoms: C_8  and  C_9
REMARK    4  A    between atoms: C_9  and  C_10
REMARK    5  A    between atoms: C_19  and  C_20
REMARK    6  A    between atoms: C_28  and  C_29
REMARK                            x       y       z     vdW  Elec       q    Type
REMARK                         _______ _______ _______ _____ _____    ______ ____
ROOT
ATOM      1  C   UNL     1      -5.552  11.916  19.914  0.00  0.00    +0.000 C 
ATOM      2  C   UNL     1      -4.280  11.953  19.046  0.00  0.00    +0.000 C 
ATOM      3  O   UNL     1      -3.130  11.610  19.835  0.00  0.00    +0.000 OA
ATOM      4  C   UNL     1      -2.009  12.326  19.580  0.00  0.00    +0.000 C 
ATOM      5  O   UNL     1      -1.959  13.339  18.887  0.00  0.00    +0.000 OA
ATOM      6  C   UNL     1      -0.783  11.719  20.262  0.00  0.00    +0.000 C 
ATOM      7  N   UNL     1      -0.177  12.822  21.012  0.00  0.00    +0.000 N 
ATOM      8  C   UNL     1      -0.551  12.965  22.336  0.00  0.00    +0.000 C 
ATOM      9  O   UNL     1      -0.669  11.994  23.076  0.00  0.00    +0.000 OA
ATOM     10  C   UNL     1      -0.827  14.404  22.769  0.00  0.00    +0.000 C 
ATOM     11  C   UNL     1      -1.779  15.070  21.759  0.00  0.00    +0.000 C 
ATOM     12  C   UNL     1      -1.379  14.455  24.217  0.00  0.00    +0.000 C 
ATOM     13  O   UNL     1      -2.668  15.101  24.243  0.00  0.00    +0.000 OA
ATOM     14  C   UNL     1      -3.766  14.287  24.197  0.00  0.00    +0.000 C 
ATOM     15  O   UNL     1      -3.783  13.117  24.540  0.00  0.00    +0.000 OA
ATOM     16  C   UNL     1      -4.910  15.054  23.572  0.00  0.00    +0.000 C 
ATOM     17  C   UNL     1      -6.107  14.193  23.158  0.00  0.00    +0.000 C 
ATOM     18  C   UNL     1      -5.836  13.011  22.205  0.00  0.00    +0.000 C 
ATOM     19  C   UNL     1      -5.734  13.288  20.683  0.00  0.00    +0.000 C 
ATOM     20  C   UNL     1      -6.929  14.098  20.165  0.00  0.00    +0.000 C 
ATOM     21  H   UNL     1      -0.018  13.664  20.470  0.00  0.00    +0.000 HD
ENDROOT
BRANCH   1  23
ATOM     22  C   UNL     1      -6.960  10.267  18.869  0.00  0.00    +0.000 C 
ATOM     23  O   UNL     1      -6.707  11.651  19.098  0.00  0.00    +0.000 OA
ENDBRANCH   1  23
BRANCH   6  24
ATOM     24  C   UNL     1       0.111  11.178  19.141  0.00  0.00    +0.000 C 
BRANCH  24  25
ATOM     25  C   UNL     1       0.800   9.879  19.458  0.00  0.00    +0.000 A 
ATOM     26  C   UNL     1       0.670   9.284  20.721  0.00  0.00    +0.000 A 
ATOM     27  C   UNL     1       1.291   8.063  20.991  0.00  0.00    +0.000 A 
ATOM     28  C   UNL     1       2.043   7.428  20.005  0.00  0.00    +0.000 A 
ATOM     29  C   UNL     1       2.176   8.012  18.748  0.00  0.00    +0.000 A 
ATOM     30  C   UNL     1       1.558   9.231  18.474  0.00  0.00    +0.000 A 
ENDBRANCH  24  25
ENDBRANCH   6  24
TORSDOF 3
ENDMDL
MODEL 7
REMARK VINA RESULT:      -6.2      2.914      5.672
REMARK  Name = 
REMARK  6 active torsions:
REMARK  status: ('A' for Active; 'I' for Inactive)
REMARK    1  A    between atoms: C_1  and  O_2
REMARK    2  A    between atoms: O_2  and  C_3
REMARK    3  A    between atoms: C_8  and  C_9
REMARK    4  A    between atoms: C_9  and  C_10
REMARK    5  A    between atoms: C_19  and  C_20
REMARK    6  A    between atoms: C_28  and  C_29
REMARK                            x       y       z     vdW  Elec       q    Type
REMARK                         _______ _______ _______ _____ _____    ______ ____
ROOT
ATOM      1  C   UNL     1      -2.810  12.820  22.571  0.00  0.00    +0.000 C 
ATOM      2  C   UNL     1      -2.607  12.169  21.190  0.00  0.00    +0.000 C 
ATOM      3  O   UNL     1      -1.205  12.008  20.918  0.00  0.00    +0.000 OA
ATOM      4  C   UNL     1      -0.823  12.261  19.643  0.00  0.00    +0.000 C 
ATOM      5  O   UNL     1      -1.527  12.786  18.784  0.00  0.00    +0.000 OA
ATOM      6  C   UNL     1       0.613  11.808  19.384  0.00  0.00    +0.000 C 
ATOM      7  N   UNL     1       1.287  12.979  18.816  0.00  0.00    +0.000 N 
ATOM      8  C   UNL     1       1.958  13.809  19.696  0.00  0.00    +0.000 C 
ATOM      9  O   UNL     1       2.641  13.357  20.608  0.00  0.00    +0.000 OA
ATOM     10  C   UNL     1       1.746  15.303  19.450  0.00  0.00    +0.000 C 
ATOM     11  C   UNL     1       0.241  15.592  19.316  0.00  0.00    +0.000 C 
ATOM     12  C   UNL     1       2.411  16.151  20.564  0.00  0.00    +0.000 C 
ATOM     13  O   UNL     1       1.430  16.988  21.212  0.00  0.00    +0.000 OA
ATOM     14  C   UNL     1       0.871  16.502  22.362  0.00  0.00    +0.000 C 
ATOM     15  O   UNL     1       1.383  15.671  23.091  0.00  0.00    +0.000 OA
ATOM     16  C   UNL     1      -0.510  17.102  22.517  0.00  0.00    +0.000 C 
ATOM     17  C   UNL     1      -1.387  16.423  23.572  0.00  0.00    +0.000 C 
ATOM     18  C   UNL     1      -1.613  14.903  23.438  0.00  0.00    +0.000 C 
ATOM     19  C   UNL     1      -2.702  14.395  22.460  0.00  0.00    +0.000 C 
ATOM     20  C   UNL     1      -4.049  15.093  22.686  0.00  0.00    +0.000 C 
ATOM     21  H   UNL     1       0.803  13.406  18.034  0.00  0.00    +0.000 HD
ENDROOT
BRANCH   1  23
ATOM     22  C   UNL     1      -4.124  12.373  24.538  0.00  0.00    +0.000 C 
ATOM     23  O   UNL     1      -4.089  12.449  23.115  0.00  0.00    +0.000 OA
ENDBRANCH   1  23
BRANCH   6  24
ATOM     24  C   UNL     1       0.524  10.624  18.415  0.00  0.00    +0.000 C 
BRANCH  24  25
ATOM     25  C   UNL     1       1.182   9.362  18.902  0.00  0.00    +0.000 A 
ATOM     26  C   UNL     1       1.077   8.967  20.243  0.00  0.00    +0.000 A 
ATOM     27  C   UNL     1       1.667   7.778  20.674  0.00  0.00    +0.000 A 
ATOM     28  C   UNL     1       2.364   6.976  19.773  0.00  0.00    +0.000 A 
ATOM     29  C   UNL     1       2.472   7.360  18.439  0.00  0.00    +0.000 A 
ATOM     30  C   UNL     1       1.884   8.547  18.004  0.00  0.00    +0.000 A 
ENDBRANCH  24  25
ENDBRANCH   6  24
TORSDOF 3
ENDMDL
MODEL 8
REMARK VINA RESULT:      -6.2      2.875      5.318
REMARK  Name = 
REMARK  6 active torsions:
REMARK  status: ('A' for Active; 'I' for Inactive)
REMARK    1  A    between atoms: C_1  and  O_2
REMARK    2  A    between atoms: O_2  and  C_3
REMARK    3  A    between atoms: C_8  and  C_9
REMARK    4  A    between atoms: C_9  and  C_10
REMARK    5  A    between atoms: C_19  and  C_20
REMARK    6  A    between atoms: C_28  and  C_29
REMARK                            x       y       z     vdW  Elec       q    Type
REMARK                         _______ _______ _______ _____ _____    ______ ____
ROOT
ATOM      1  C   UNL     1      -3.294  13.082  21.097  0.00  0.00    +0.000 C 
ATOM      2  C   UNL     1      -2.678  12.425  19.847  0.00  0.00    +0.000 C 
ATOM      3  O   UNL     1      -1.294  12.118  20.078  0.00  0.00    +0.000 OA
ATOM      4  C   UNL     1      -0.463  12.340  19.032  0.00  0.00    +0.000 C 
ATOM      5  O   UNL     1      -0.761  12.944  18.006  0.00  0.00    +0.000 OA
ATOM      6  C   UNL     1       0.922  11.738  19.274  0.00  0.00    +0.000 C 
ATOM      7  N   UNL     1       1.863  12.835  19.033  0.00  0.00    +0.000 N 
ATOM      8  C   UNL     1       2.255  13.582  20.130  0.00  0.00    +0.000 C 
ATOM      9  O   UNL     1       2.523  13.052  21.203  0.00  0.00    +0.000 OA
ATOM     10  C   UNL     1       2.290  15.091  19.893  0.00  0.00    +0.000 C 
ATOM     11  C   UNL     1       0.965  15.541  19.252  0.00  0.00    +0.000 C 
ATOM     12  C   UNL     1       2.595  15.855  21.208  0.00  0.00    +0.000 C 
ATOM     13  O   UNL     1       1.534  16.786  21.507  0.00  0.00    +0.000 OA
ATOM     14  C   UNL     1       0.560  16.353  22.363  0.00  0.00    +0.000 C 
ATOM     15  O   UNL     1       0.697  15.466  23.187  0.00  0.00    +0.000 OA
ATOM     16  C   UNL     1      -0.721  17.096  22.051  0.00  0.00    +0.000 C 
ATOM     17  C   UNL     1      -1.977  16.505  22.697  0.00  0.00    +0.000 C 
ATOM     18  C   UNL     1      -2.286  15.019  22.423  0.00  0.00    +0.000 C 
ATOM     19  C   UNL     1      -3.002  14.638  21.103  0.00  0.00    +0.000 C 
ATOM     20  C   UNL     1      -4.267  15.474  20.872  0.00  0.00    +0.000 C 
ATOM     21  H   UNL     1       1.731  13.318  18.152  0.00  0.00    +0.000 HD
ENDROOT
BRANCH   1  23
ATOM     22  C   UNL     1      -5.254  12.749  22.454  0.00  0.00    +0.000 C 
ATOM     23  O   UNL     1      -4.712  12.846  21.139  0.00  0.00    +0.000 OA
ENDBRANCH   1  23
BRANCH   6  24
ATOM     24  C   UNL     1       1.068  10.579  18.283  0.00  0.00    +0.000 C 
BRANCH  24  25
ATOM     25  C   UNL     1       1.423   9.258  18.908  0.00  0.00    +0.000 A 
ATOM     26  C   UNL     1       2.107   8.275  18.178  0.00  0.00    +0.000 A 
ATOM     27  C   UNL     1       2.457   7.066  18.781  0.00  0.00    +0.000 A 
ATOM     28  C   UNL     1       2.128   6.829  20.114  0.00  0.00    +0.000 A 
ATOM     29  C   UNL     1       1.451   7.799  20.847  0.00  0.00    +0.000 A 
ATOM     30  C   UNL     1       1.099   9.008  20.249  0.00  0.00    +0.000 A 
ENDBRANCH  24  25
ENDBRANCH   6  24
TORSDOF 3
ENDMDL
MODEL 9
REMARK VINA RESULT:      -6.1      2.248      4.447
REMARK  Name = 
REMARK  6 active torsions:
REMARK  status: ('A' for Active; 'I' for Inactive)
REMARK    1  A    between atoms: C_1  and  O_2
REMARK    2  A    between atoms: O_2  and  C_3
REMARK    3  A    between atoms: C_8  and  C_9
REMARK    4  A    between atoms: C_9  and  C_10
REMARK    5  A    between atoms: C_19  and  C_20
REMARK    6  A    between atoms: C_28  and  C_29
REMARK                            x       y       z     vdW  Elec       q    Type
REMARK                         _______ _______ _______ _____ _____    ______ ____
ROOT
ATOM      1  C   UNL     1      -2.796  10.933  18.575  0.00  0.00    +0.000 C 
ATOM      2  C   UNL     1      -1.978  12.012  19.308  0.00  0.00    +0.000 C 
ATOM      3  O   UNL     1      -2.330  12.042  20.701  0.00  0.00    +0.000 OA
ATOM      4  C   UNL     1      -2.409  13.273  21.259  0.00  0.00    +0.000 C 
ATOM      5  O   UNL     1      -2.395  14.334  20.640  0.00  0.00    +0.000 OA
ATOM      6  C   UNL     1      -2.519  13.197  22.782  0.00  0.00    +0.000 C 
ATOM      7  N   UNL     1      -3.694  14.004  23.122  0.00  0.00    +0.000 N 
ATOM      8  C   UNL     1      -4.903  13.341  23.237  0.00  0.00    +0.000 C 
ATOM      9  O   UNL     1      -4.986  12.256  23.800  0.00  0.00    +0.000 OA
ATOM     10  C   UNL     1      -6.086  14.056  22.585  0.00  0.00    +0.000 C 
ATOM     11  C   UNL     1      -5.712  14.462  21.149  0.00  0.00    +0.000 C 
ATOM     12  C   UNL     1      -7.363  13.178  22.634  0.00  0.00    +0.000 C 
ATOM     13  O   UNL     1      -7.866  12.947  21.301  0.00  0.00    +0.000 OA
ATOM     14  C   UNL     1      -7.480  11.785  20.692  0.00  0.00    +0.000 C 
ATOM     15  O   UNL     1      -7.116  10.778  21.274  0.00  0.00    +0.000 OA
ATOM     16  C   UNL     1      -7.499  11.997  19.194  0.00  0.00    +0.000 C 
ATOM     17  C   UNL     1      -6.792  10.906  18.385  0.00  0.00    +0.000 C 
ATOM     18  C   UNL     1      -5.323  10.598  18.738  0.00  0.00    +0.000 C 
ATOM     19  C   UNL     1      -4.210  11.504  18.153  0.00  0.00    +0.000 C 
ATOM     20  C   UNL     1      -4.346  11.675  16.635  0.00  0.00    +0.000 C 
ATOM     21  H   UNL     1      -3.698  14.934  22.717  0.00  0.00    +0.000 HD
ENDROOT
BRANCH   1  23
ATOM     22  C   UNL     1      -0.763  10.006  17.679  0.00  0.00    +0.000 C 
ATOM     23  O   UNL     1      -2.084  10.469  17.414  0.00  0.00    +0.000 OA
ENDBRANCH   1  23
BRANCH   6  24
ATOM     24  C   UNL     1      -1.208  13.762  23.338  0.00  0.00    +0.000 C 
BRANCH  24  25
ATOM     25  C   UNL     1      -1.328  15.121  23.972  0.00  0.00    +0.000 A 
ATOM     26  C   UNL     1      -1.568  15.256  25.347  0.00  0.00    +0.000 A 
ATOM     27  C   UNL     1      -1.647  16.523  25.927  0.00  0.00    +0.000 A 
ATOM     28  C   UNL     1      -1.487  17.662  25.141  0.00  0.00    +0.000 A 
ATOM     29  C   UNL     1      -1.247  17.537  23.775  0.00  0.00    +0.000 A 
ATOM     30  C   UNL     1      -1.168  16.274  23.192  0.00  0.00    +0.000 A 
ENDBRANCH  24  25
ENDBRANCH   6  24
TORSDOF 3
ENDMDL
