MODEL 1
REMARK VINA RESULT:      -7.6      0.000      0.000
REMARK  Name = 
REMARK  12 active torsions:
REMARK  status: ('A' for Active; 'I' for Inactive)
REMARK    1  A    between atoms: C_1  and  C_2
REMARK    2  A    between atoms: C_4  and  C_5
REMARK    3  A    between atoms: C_7  and  N_8
REMARK    4  A    between atoms: N_8  and  S_9
REMARK    5  A    between atoms: S_9  and  C_12
REMARK    6  A    between atoms: C_12  and  C_13
REMARK    7  A    between atoms: C_13  and  C_14
REMARK    8  A    between atoms: C_14  and  S_15
REMARK    9  A    between atoms: S_15  and  N_18
REMARK   10  A    between atoms: N_18  and  C_19
REMARK   11  A    between atoms: C_21  and  C_22
REMARK   12  A    between atoms: C_24  and  C_25
REMARK                            x       y       z     vdW  Elec       q    Type
REMARK                         _______ _______ _______ _____ _____    ______ ____
ROOT
ATOM      1  C   UNL     1       1.379   6.143  20.768  0.00  0.00    +0.000 C 
ENDROOT
BRANCH   1   2
ATOM      2  C   UNL     1       2.374   4.988  20.853  0.00  0.00    +0.000 C 
BRANCH   2   3
ATOM      3  S   UNL     1       2.391   4.026  19.329  0.00  0.00    +0.000 S 
ATOM      4  O   UNL     1       1.020   3.797  18.926  0.00  0.00    +0.000 OA
ATOM      5  O   UNL     1       3.307   2.912  19.480  0.00  0.00    +0.000 OA
BRANCH   3   6
ATOM      6  N   UNL     1       3.021   5.119  18.217  0.00  0.00    +0.000 N 
ATOM      7  H   UNL     1       2.331   5.392  17.514  0.00  0.00    +0.000 HD
BRANCH   6  14
ATOM      8  C   UNL     1       7.794   5.774  19.196  0.00  0.00    +0.000 C 
ATOM      9  C   UNL     1       6.722   5.319  18.251  0.00  0.00    +0.000 A 
ATOM     10  C   UNL     1       7.033   4.844  16.973  0.00  0.00    +0.000 A 
ATOM     11  C   UNL     1       6.020   4.434  16.093  0.00  0.00    +0.000 A 
ATOM     12  C   UNL     1       6.371   3.938  14.720  0.00  0.00    +0.000 C 
ATOM     13  C   UNL     1       4.679   4.500  16.506  0.00  0.00    +0.000 A 
ATOM     14  C   UNL     1       4.365   4.982  17.776  0.00  0.00    +0.000 A 
ATOM     15  C   UNL     1       5.382   5.386  18.641  0.00  0.00    +0.000 A 
ENDBRANCH   6  14
ENDBRANCH   3   6
ENDBRANCH   2   3
ENDBRANCH   1   2
BRANCH   1  16
ATOM     16  C   UNL     1       2.017   7.496  20.467  0.00  0.00    +0.000 C 
BRANCH  16  17
ATOM     17  S   UNL     1       1.002   8.807  21.186  0.00  0.00    +0.000 S 
ATOM     18  O   UNL     1      -0.375   8.341  21.177  0.00  0.00    +0.000 OA
ATOM     19  O   UNL     1       1.619   9.279  22.402  0.00  0.00    +0.000 OA
BRANCH  17  20
ATOM     20  N   UNL     1       1.050  10.012  20.006  0.00  0.00    +0.000 N 
ATOM     21  H   UNL     1       1.723   9.731  19.288  0.00  0.00    +0.000 HD
BRANCH  20  22
ATOM     22  C   UNL     1      -0.194  10.485  19.489  0.00  0.00    +0.000 A 
ATOM     23  C   UNL     1      -0.909  11.436  20.215  0.00  0.00    +0.000 A 
ATOM     24  C   UNL     1      -2.131  11.919  19.733  0.00  0.00    +0.000 A 
ATOM     25  C   UNL     1      -2.901  12.956  20.494  0.00  0.00    +0.000 C 
ATOM     26  C   UNL     1      -2.630  11.430  18.517  0.00  0.00    +0.000 A 
ATOM     27  C   UNL     1      -1.924  10.464  17.788  0.00  0.00    +0.000 A 
ATOM     28  C   UNL     1      -2.466   9.951  16.484  0.00  0.00    +0.000 C 
ATOM     29  C   UNL     1      -0.704   9.986  18.287  0.00  0.00    +0.000 A 
ENDBRANCH  20  22
ENDBRANCH  17  20
ENDBRANCH  16  17
ENDBRANCH   1  16
TORSDOF 8
ENDMDL
MODEL 2
REMARK VINA RESULT:      -7.4      2.889      8.716
REMARK  Name = 
REMARK  12 active torsions:
REMARK  status: ('A' for Active; 'I' for Inactive)
REMARK    1  A    between atoms: C_1  and  C_2
REMARK    2  A    between atoms: C_4  and  C_5
REMARK    3  A    between atoms: C_7  and  N_8
REMARK    4  A    between atoms: N_8  and  S_9
REMARK    5  A    between atoms: S_9  and  C_12
REMARK    6  A    between atoms: C_12  and  C_13
REMARK    7  A    between atoms: C_13  and  C_14
REMARK    8  A    between atoms: C_14  and  S_15
REMARK    9  A    between atoms: S_15  and  N_18
REMARK   10  A    between atoms: N_18  and  C_19
REMARK   11  A    between atoms: C_21  and  C_22
REMARK   12  A    between atoms: C_24  and  C_25
REMARK                            x       y       z     vdW  Elec       q    Type
REMARK                         _______ _______ _______ _____ _____    ______ ____
ROOT
ATOM      1  C   UNL     1       5.002   3.557  18.908  0.00  0.00    +0.000 C 
ENDROOT
BRANCH   1   2
ATOM      2  C   UNL     1       3.744   3.567  19.773  0.00  0.00    +0.000 C 
BRANCH   2   3
ATOM      3  S   UNL     1       2.552   4.781  19.181  0.00  0.00    +0.000 S 
ATOM      4  O   UNL     1       1.246   4.413  19.684  0.00  0.00    +0.000 OA
ATOM      5  O   UNL     1       2.758   4.996  17.762  0.00  0.00    +0.000 OA
BRANCH   3   6
ATOM      6  N   UNL     1       2.995   6.167  20.024  0.00  0.00    +0.000 N 
ATOM      7  H   UNL     1       3.500   5.948  20.885  0.00  0.00    +0.000 HD
BRANCH   6  14
ATOM      8  C   UNL     1       1.372  10.251  17.822  0.00  0.00    +0.000 C 
ATOM      9  C   UNL     1       1.322   9.308  18.986  0.00  0.00    +0.000 A 
ATOM     10  C   UNL     1       0.493   9.551  20.086  0.00  0.00    +0.000 A 
ATOM     11  C   UNL     1       0.466   8.667  21.175  0.00  0.00    +0.000 A 
ATOM     12  C   UNL     1      -0.421   8.951  22.353  0.00  0.00    +0.000 C 
ATOM     13  C   UNL     1       1.280   7.522  21.155  0.00  0.00    +0.000 A 
ATOM     14  C   UNL     1       2.114   7.282  20.064  0.00  0.00    +0.000 A 
ATOM     15  C   UNL     1       2.131   8.169  18.988  0.00  0.00    +0.000 A 
ENDBRANCH   6  14
ENDBRANCH   3   6
ENDBRANCH   2   3
ENDBRANCH   1   2
BRANCH   1  16
ATOM     16  C   UNL     1       5.854   4.817  19.030  0.00  0.00    +0.000 C 
BRANCH  16  17
ATOM     17  S   UNL     1       6.704   5.117  17.463  0.00  0.00    +0.000 S 
ATOM     18  O   UNL     1       6.596   6.538  17.180  0.00  0.00    +0.000 OA
ATOM     19  O   UNL     1       7.986   4.456  17.480  0.00  0.00    +0.000 OA
BRANCH  17  20
ATOM     20  N   UNL     1       5.686   4.381  16.336  0.00  0.00    +0.000 N 
ATOM     21  H   UNL     1       4.737   4.733  16.483  0.00  0.00    +0.000 HD
BRANCH  20  22
ATOM     22  C   UNL     1       6.103   4.376  14.969  0.00  0.00    +0.000 A 
ATOM     23  C   UNL     1       5.384   3.618  14.048  0.00  0.00    +0.000 A 
ATOM     24  C   UNL     1       5.767   3.594  12.702  0.00  0.00    +0.000 A 
ATOM     25  C   UNL     1       4.992   2.798  11.695  0.00  0.00    +0.000 C 
ATOM     26  C   UNL     1       6.886   4.335  12.295  0.00  0.00    +0.000 A 
ATOM     27  C   UNL     1       7.623   5.090  13.218  0.00  0.00    +0.000 A 
ATOM     28  C   UNL     1       8.816   5.883  12.770  0.00  0.00    +0.000 C 
ATOM     29  C   UNL     1       7.229   5.098  14.564  0.00  0.00    +0.000 A 
ENDBRANCH  20  22
ENDBRANCH  17  20
ENDBRANCH  16  17
ENDBRANCH   1  16
TORSDOF 8
ENDMDL
MODEL 3
REMARK VINA RESULT:      -7.4      2.151      8.285
REMARK  Name = 
REMARK  12 active torsions:
REMARK  status: ('A' for Active; 'I' for Inactive)
REMARK    1  A    between atoms: C_1  and  C_2
REMARK    2  A    between atoms: C_4  and  C_5
REMARK    3  A    between atoms: C_7  and  N_8
REMARK    4  A    between atoms: N_8  and  S_9
REMARK    5  A    between atoms: S_9  and  C_12
REMARK    6  A    between atoms: C_12  and  C_13
REMARK    7  A    between atoms: C_13  and  C_14
REMARK    8  A    between atoms: C_14  and  S_15
REMARK    9  A    between atoms: S_15  and  N_18
REMARK   10  A    between atoms: N_18  and  C_19
REMARK   11  A    between atoms: C_21  and  C_22
REMARK   12  A    between atoms: C_24  and  C_25
REMARK                            x       y       z     vdW  Elec       q    Type
REMARK                         _______ _______ _______ _____ _____    ______ ____
ROOT
ATOM      1  C   UNL     1       1.634   4.375  17.756  0.00  0.00    +0.000 C 
ENDROOT
BRANCH   1   2
ATOM      2  C   UNL     1       2.267   5.688  18.209  0.00  0.00    +0.000 C 
BRANCH   2   3
ATOM      3  S   UNL     1       2.264   5.831  20.005  0.00  0.00    +0.000 S 
ATOM      4  O   UNL     1       3.401   5.095  20.517  0.00  0.00    +0.000 OA
ATOM      5  O   UNL     1       0.930   5.560  20.502  0.00  0.00    +0.000 OA
BRANCH   3   6
ATOM      6  N   UNL     1       2.626   7.457  20.241  0.00  0.00    +0.000 N 
ATOM      7  H   UNL     1       3.448   7.585  20.834  0.00  0.00    +0.000 HD
BRANCH   6  14
ATOM      8  C   UNL     1      -0.483   9.754  23.278  0.00  0.00    +0.000 C 
ATOM      9  C   UNL     1       0.026   9.524  21.887  0.00  0.00    +0.000 A 
ATOM     10  C   UNL     1      -0.553  10.162  20.785  0.00  0.00    +0.000 A 
ATOM     11  C   UNL     1      -0.075   9.928  19.487  0.00  0.00    +0.000 A 
ATOM     12  C   UNL     1      -0.717  10.612  18.314  0.00  0.00    +0.000 C 
ATOM     13  C   UNL     1       1.000   9.045  19.295  0.00  0.00    +0.000 A 
ATOM     14  C   UNL     1       1.573   8.400  20.391  0.00  0.00    +0.000 A 
ATOM     15  C   UNL     1       1.089   8.642  21.676  0.00  0.00    +0.000 A 
ENDBRANCH   6  14
ENDBRANCH   3   6
ENDBRANCH   2   3
ENDBRANCH   1   2
BRANCH   1  16
ATOM     16  C   UNL     1       2.598   3.428  17.047  0.00  0.00    +0.000 C 
BRANCH  16  17
ATOM     17  S   UNL     1       3.362   2.332  18.265  0.00  0.00    +0.000 S 
ATOM     18  O   UNL     1       2.487   2.300  19.425  0.00  0.00    +0.000 OA
ATOM     19  O   UNL     1       3.783   1.115  17.617  0.00  0.00    +0.000 OA
BRANCH  17  20
ATOM     20  N   UNL     1       4.708   3.215  18.773  0.00  0.00    +0.000 N 
ATOM     21  H   UNL     1       5.317   2.590  19.308  0.00  0.00    +0.000 HD
BRANCH  20  22
ATOM     22  C   UNL     1       5.391   4.005  17.799  0.00  0.00    +0.000 A 
ATOM     23  C   UNL     1       5.421   3.567  16.477  0.00  0.00    +0.000 A 
ATOM     24  C   UNL     1       6.080   4.320  15.499  0.00  0.00    +0.000 A 
ATOM     25  C   UNL     1       6.105   3.871  14.069  0.00  0.00    +0.000 C 
ATOM     26  C   UNL     1       6.716   5.514  15.867  0.00  0.00    +0.000 A 
ATOM     27  C   UNL     1       6.702   5.955  17.198  0.00  0.00    +0.000 A 
ATOM     28  C   UNL     1       7.382   7.239  17.579  0.00  0.00    +0.000 C 
ATOM     29  C   UNL     1       6.042   5.186  18.166  0.00  0.00    +0.000 A 
ENDBRANCH  20  22
ENDBRANCH  17  20
ENDBRANCH  16  17
ENDBRANCH   1  16
TORSDOF 8
ENDMDL
MODEL 4
REMARK VINA RESULT:      -7.4      0.860      8.747
REMARK  Name = 
REMARK  12 active torsions:
REMARK  status: ('A' for Active; 'I' for Inactive)
REMARK    1  A    between atoms: C_1  and  C_2
REMARK    2  A    between atoms: C_4  and  C_5
REMARK    3  A    between atoms: C_7  and  N_8
REMARK    4  A    between atoms: N_8  and  S_9
REMARK    5  A    between atoms: S_9  and  C_12
REMARK    6  A    between atoms: C_12  and  C_13
REMARK    7  A    between atoms: C_13  and  C_14
REMARK    8  A    between atoms: C_14  and  S_15
REMARK    9  A    between atoms: S_15  and  N_18
REMARK   10  A    between atoms: N_18  and  C_19
REMARK   11  A    between atoms: C_21  and  C_22
REMARK   12  A    between atoms: C_24  and  C_25
REMARK                            x       y       z     vdW  Elec       q    Type
REMARK                         _______ _______ _______ _____ _____    ______ ____
ROOT
ATOM      1  C   UNL     1       1.511   6.252  20.268  0.00  0.00    +0.000 C 
ENDROOT
BRANCH   1   2
ATOM      2  C   UNL     1       2.134   7.544  20.791  0.00  0.00    +0.000 C 
BRANCH   2   3
ATOM      3  S   UNL     1       0.870   8.770  21.176  0.00  0.00    +0.000 S 
ATOM      4  O   UNL     1       1.332   9.554  22.302  0.00  0.00    +0.000 OA
ATOM      5  O   UNL     1      -0.426   8.122  21.214  0.00  0.00    +0.000 OA
BRANCH   3   6
ATOM      6  N   UNL     1       0.941   9.795  19.844  0.00  0.00    +0.000 N 
ATOM      7  H   UNL     1       1.757  10.409  19.874  0.00  0.00    +0.000 HD
BRANCH   6  14
ATOM      8  C   UNL     1      -2.772  12.967  20.413  0.00  0.00    +0.000 C 
ATOM      9  C   UNL     1      -2.100  11.902  19.600  0.00  0.00    +0.000 A 
ATOM     10  C   UNL     1      -2.662  11.431  18.408  0.00  0.00    +0.000 A 
ATOM     11  C   UNL     1      -2.030  10.424  17.664  0.00  0.00    +0.000 A 
ATOM     12  C   UNL     1      -2.654   9.923  16.394  0.00  0.00    +0.000 C 
ATOM     13  C   UNL     1      -0.815   9.887  18.121  0.00  0.00    +0.000 A 
ATOM     14  C   UNL     1      -0.257  10.347  19.313  0.00  0.00    +0.000 A 
ATOM     15  C   UNL     1      -0.896  11.349  20.044  0.00  0.00    +0.000 A 
ENDBRANCH   6  14
ENDBRANCH   3   6
ENDBRANCH   2   3
ENDBRANCH   1   2
BRANCH   1  16
ATOM     16  C   UNL     1       1.992   5.846  18.878  0.00  0.00    +0.000 C 
BRANCH  16  17
ATOM     17  S   UNL     1       1.725   4.073  18.649  0.00  0.00    +0.000 S 
ATOM     18  O   UNL     1       0.826   3.633  19.703  0.00  0.00    +0.000 OA
ATOM     19  O   UNL     1       1.431   3.807  17.262  0.00  0.00    +0.000 OA
BRANCH  17  20
ATOM     20  N   UNL     1       3.220   3.409  19.063  0.00  0.00    +0.000 N 
ATOM     21  H   UNL     1       3.137   2.391  19.036  0.00  0.00    +0.000 HD
BRANCH  20  22
ATOM     22  C   UNL     1       4.379   3.920  18.401  0.00  0.00    +0.000 A 
ATOM     23  C   UNL     1       4.512   3.723  17.028  0.00  0.00    +0.000 A 
ATOM     24  C   UNL     1       5.636   4.213  16.352  0.00  0.00    +0.000 A 
ATOM     25  C   UNL     1       5.784   4.026  14.872  0.00  0.00    +0.000 C 
ATOM     26  C   UNL     1       6.626   4.895  17.072  0.00  0.00    +0.000 A 
ATOM     27  C   UNL     1       6.506   5.085  18.456  0.00  0.00    +0.000 A 
ATOM     28  C   UNL     1       7.571   5.822  19.216  0.00  0.00    +0.000 C 
ATOM     29  C   UNL     1       5.377   4.583  19.120  0.00  0.00    +0.000 A 
ENDBRANCH  20  22
ENDBRANCH  17  20
ENDBRANCH  16  17
ENDBRANCH   1  16
TORSDOF 8
ENDMDL
MODEL 5
REMARK VINA RESULT:      -7.2      0.933      1.903
REMARK  Name = 
REMARK  12 active torsions:
REMARK  status: ('A' for Active; 'I' for Inactive)
REMARK    1  A    between atoms: C_1  and  C_2
REMARK    2  A    between atoms: C_4  and  C_5
REMARK    3  A    between atoms: C_7  and  N_8
REMARK    4  A    between atoms: N_8  and  S_9
REMARK    5  A    between atoms: S_9  and  C_12
REMARK    6  A    between atoms: C_12  and  C_13
REMARK    7  A    between atoms: C_13  and  C_14
REMARK    8  A    between atoms: C_14  and  S_15
REMARK    9  A    between atoms: S_15  and  N_18
REMARK   10  A    between atoms: N_18  and  C_19
REMARK   11  A    between atoms: C_21  and  C_22
REMARK   12  A    between atoms: C_24  and  C_25
REMARK                            x       y       z     vdW  Elec       q    Type
REMARK                         _______ _______ _______ _____ _____    ______ ____
ROOT
ATOM      1  C   UNL     1       1.872   6.595  19.991  0.00  0.00    +0.000 C 
ENDROOT
BRANCH   1   2
ATOM      2  C   UNL     1       1.820   5.074  20.109  0.00  0.00    +0.000 C 
BRANCH   2   3
ATOM      3  S   UNL     1       2.310   4.281  18.567  0.00  0.00    +0.000 S 
ATOM      4  O   UNL     1       1.115   4.029  17.790  0.00  0.00    +0.000 OA
ATOM      5  O   UNL     1       3.236   3.205  18.859  0.00  0.00    +0.000 OA
BRANCH   3   6
ATOM      6  N   UNL     1       3.125   5.516  17.767  0.00  0.00    +0.000 N 
ATOM      7  H   UNL     1       2.548   5.955  17.048  0.00  0.00    +0.000 HD
BRANCH   6  14
ATOM      8  C   UNL     1       6.577   4.149  14.544  0.00  0.00    +0.000 C 
ATOM      9  C   UNL     1       6.217   4.688  15.895  0.00  0.00    +0.000 A 
ATOM     10  C   UNL     1       7.198   4.979  16.848  0.00  0.00    +0.000 A 
ATOM     11  C   UNL     1       6.847   5.470  18.115  0.00  0.00    +0.000 A 
ATOM     12  C   UNL     1       7.914   5.765  19.130  0.00  0.00    +0.000 C 
ATOM     13  C   UNL     1       5.492   5.675  18.425  0.00  0.00    +0.000 A 
ATOM     14  C   UNL     1       4.511   5.377  17.480  0.00  0.00    +0.000 A 
ATOM     15  C   UNL     1       4.874   4.889  16.225  0.00  0.00    +0.000 A 
ENDBRANCH   6  14
ENDBRANCH   3   6
ENDBRANCH   2   3
ENDBRANCH   1   2
BRANCH   1  16
ATOM     16  C   UNL     1       1.908   7.325  21.331  0.00  0.00    +0.000 C 
BRANCH  16  17
ATOM     17  S   UNL     1       0.937   8.845  21.209  0.00  0.00    +0.000 S 
ATOM     18  O   UNL     1      -0.464   8.470  21.300  0.00  0.00    +0.000 OA
ATOM     19  O   UNL     1       1.498   9.843  22.085  0.00  0.00    +0.000 OA
BRANCH  17  20
ATOM     20  N   UNL     1       1.151   9.301  19.598  0.00  0.00    +0.000 N 
ATOM     21  H   UNL     1       1.305   8.455  19.043  0.00  0.00    +0.000 HD
BRANCH  20  22
ATOM     22  C   UNL     1       0.202  10.206  19.033  0.00  0.00    +0.000 A 
ATOM     23  C   UNL     1       0.263  11.553  19.385  0.00  0.00    +0.000 A 
ATOM     24  C   UNL     1      -0.653  12.465  18.847  0.00  0.00    +0.000 A 
ATOM     25  C   UNL     1      -0.588  13.920  19.201  0.00  0.00    +0.000 C 
ATOM     26  C   UNL     1      -1.635  12.005  17.957  0.00  0.00    +0.000 A 
ATOM     27  C   UNL     1      -1.712  10.650  17.609  0.00  0.00    +0.000 A 
ATOM     28  C   UNL     1      -2.765  10.170  16.652  0.00  0.00    +0.000 C 
ATOM     29  C   UNL     1      -0.791   9.749  18.162  0.00  0.00    +0.000 A 
ENDBRANCH  20  22
ENDBRANCH  17  20
ENDBRANCH  16  17
ENDBRANCH   1  16
TORSDOF 8
ENDMDL
MODEL 6
REMARK VINA RESULT:      -7.2      1.165      8.492
REMARK  Name = 
REMARK  12 active torsions:
REMARK  status: ('A' for Active; 'I' for Inactive)
REMARK    1  A    between atoms: C_1  and  C_2
REMARK    2  A    between atoms: C_4  and  C_5
REMARK    3  A    between atoms: C_7  and  N_8
REMARK    4  A    between atoms: N_8  and  S_9
REMARK    5  A    between atoms: S_9  and  C_12
REMARK    6  A    between atoms: C_12  and  C_13
REMARK    7  A    between atoms: C_13  and  C_14
REMARK    8  A    between atoms: C_14  and  S_15
REMARK    9  A    between atoms: S_15  and  N_18
REMARK   10  A    between atoms: N_18  and  C_19
REMARK   11  A    between atoms: C_21  and  C_22
REMARK   12  A    between atoms: C_24  and  C_25
REMARK                            x       y       z     vdW  Elec       q    Type
REMARK                         _______ _______ _______ _____ _____    ______ ____
ROOT
ATOM      1  C   UNL     1       2.388   6.719  19.958  0.00  0.00    +0.000 C 
ENDROOT
BRANCH   1   2
ATOM      2  C   UNL     1       1.131   6.849  20.815  0.00  0.00    +0.000 C 
BRANCH   2   3
ATOM      3  S   UNL     1       0.780   8.573  21.204  0.00  0.00    +0.000 S 
ATOM      4  O   UNL     1       1.755   9.023  22.174  0.00  0.00    +0.000 OA
ATOM      5  O   UNL     1      -0.638   8.722  21.465  0.00  0.00    +0.000 OA
BRANCH   3   6
ATOM      6  N   UNL     1       1.166   9.356  19.766  0.00  0.00    +0.000 N 
ATOM      7  H   UNL     1       2.140   9.664  19.746  0.00  0.00    +0.000 HD
BRANCH   6  14
ATOM      8  C   UNL     1      -0.874  13.823  19.542  0.00  0.00    +0.000 C 
ATOM      9  C   UNL     1      -0.808  12.410  19.046  0.00  0.00    +0.000 A 
ATOM     10  C   UNL     1      -1.689  11.940  18.066  0.00  0.00    +0.000 A 
ATOM     11  C   UNL     1      -1.626  10.611  17.621  0.00  0.00    +0.000 A 
ATOM     12  C   UNL     1      -2.587  10.121  16.577  0.00  0.00    +0.000 C 
ATOM     13  C   UNL     1      -0.662   9.746  18.164  0.00  0.00    +0.000 A 
ATOM     14  C   UNL     1       0.212  10.208  19.148  0.00  0.00    +0.000 A 
ATOM     15  C   UNL     1       0.138  11.532  19.582  0.00  0.00    +0.000 A 
ENDBRANCH   6  14
ENDBRANCH   3   6
ENDBRANCH   2   3
ENDBRANCH   1   2
BRANCH   1  16
ATOM     16  C   UNL     1       3.139   5.404  20.145  0.00  0.00    +0.000 C 
BRANCH  16  17
ATOM     17  S   UNL     1       2.727   4.284  18.788  0.00  0.00    +0.000 S 
ATOM     18  O   UNL     1       1.900   3.224  19.340  0.00  0.00    +0.000 OA
ATOM     19  O   UNL     1       2.290   5.052  17.648  0.00  0.00    +0.000 OA
BRANCH  17  20
ATOM     20  N   UNL     1       4.204   3.538  18.453  0.00  0.00    +0.000 N 
ATOM     21  H   UNL     1       4.024   2.555  18.234  0.00  0.00    +0.000 HD
BRANCH  20  22
ATOM     22  C   UNL     1       5.084   4.190  17.537  0.00  0.00    +0.000 A 
ATOM     23  C   UNL     1       5.826   5.284  17.978  0.00  0.00    +0.000 A 
ATOM     24  C   UNL     1       6.698   5.943  17.103  0.00  0.00    +0.000 A 
ATOM     25  C   UNL     1       7.516   7.110  17.568  0.00  0.00    +0.000 C 
ATOM     26  C   UNL     1       6.810   5.495  15.780  0.00  0.00    +0.000 A 
ATOM     27  C   UNL     1       6.057   4.403  15.325  0.00  0.00    +0.000 A 
ATOM     28  C   UNL     1       6.189   3.928  13.907  0.00  0.00    +0.000 C 
ATOM     29  C   UNL     1       5.184   3.758  16.212  0.00  0.00    +0.000 A 
ENDBRANCH  20  22
ENDBRANCH  17  20
ENDBRANCH  16  17
ENDBRANCH   1  16
TORSDOF 8
ENDMDL
MODEL 7
REMARK VINA RESULT:      -7.2      0.809      8.915
REMARK  Name = 
REMARK  12 active torsions:
REMARK  status: ('A' for Active; 'I' for Inactive)
REMARK    1  A    between atoms: C_1  and  C_2
REMARK    2  A    between atoms: C_4  and  C_5
REMARK    3  A    between atoms: C_7  and  N_8
REMARK    4  A    between atoms: N_8  and  S_9
REMARK    5  A    between atoms: S_9  and  C_12
REMARK    6  A    between atoms: C_12  and  C_13
REMARK    7  A    between atoms: C_13  and  C_14
REMARK    8  A    between atoms: C_14  and  S_15
REMARK    9  A    between atoms: S_15  and  N_18
REMARK   10  A    between atoms: N_18  and  C_19
REMARK   11  A    between atoms: C_21  and  C_22
REMARK   12  A    between atoms: C_24  and  C_25
REMARK                            x       y       z     vdW  Elec       q    Type
REMARK                         _______ _______ _______ _____ _____    ______ ____
ROOT
ATOM      1  C   UNL     1       2.525   6.933  20.218  0.00  0.00    +0.000 C 
ENDROOT
BRANCH   1   2
ATOM      2  C   UNL     1       1.553   8.015  19.754  0.00  0.00    +0.000 C 
BRANCH   2   3
ATOM      3  S   UNL     1       0.832   8.891  21.154  0.00  0.00    +0.000 S 
ATOM      4  O   UNL     1       1.830   8.967  22.200  0.00  0.00    +0.000 OA
ATOM      5  O   UNL     1      -0.482   8.345  21.431  0.00  0.00    +0.000 OA
BRANCH   3   6
ATOM      6  N   UNL     1       0.672  10.456  20.559  0.00  0.00    +0.000 N 
ATOM      7  H   UNL     1       1.131  11.144  21.159  0.00  0.00    +0.000 HD
BRANCH   6  14
ATOM      8  C   UNL     1      -2.289  10.142  16.647  0.00  0.00    +0.000 C 
ATOM      9  C   UNL     1      -2.001  10.714  18.003  0.00  0.00    +0.000 A 
ATOM     10  C   UNL     1      -2.859  11.645  18.598  0.00  0.00    +0.000 A 
ATOM     11  C   UNL     1      -2.570  12.182  19.862  0.00  0.00    +0.000 A 
ATOM     12  C   UNL     1      -3.496  13.190  20.480  0.00  0.00    +0.000 C 
ATOM     13  C   UNL     1      -1.406  11.776  20.535  0.00  0.00    +0.000 A 
ATOM     14  C   UNL     1      -0.544  10.855  19.941  0.00  0.00    +0.000 A 
ATOM     15  C   UNL     1      -0.843  10.329  18.684  0.00  0.00    +0.000 A 
ENDBRANCH   6  14
ENDBRANCH   3   6
ENDBRANCH   2   3
ENDBRANCH   1   2
BRANCH   1  16
ATOM     16  C   UNL     1       1.886   5.563  20.419  0.00  0.00    +0.000 C 
BRANCH  16  17
ATOM     17  S   UNL     1       2.074   4.589  18.908  0.00  0.00    +0.000 S 
ATOM     18  O   UNL     1       1.048   3.560  18.927  0.00  0.00    +0.000 OA
ATOM     19  O   UNL     1       2.215   5.478  17.780  0.00  0.00    +0.000 OA
BRANCH  17  20
ATOM     20  N   UNL     1       3.517   3.755  19.173  0.00  0.00    +0.000 N 
ATOM     21  H   UNL     1       3.320   2.753  19.133  0.00  0.00    +0.000 HD
BRANCH  20  22
ATOM     22  C   UNL     1       4.664   4.157  18.422  0.00  0.00    +0.000 A 
ATOM     23  C   UNL     1       5.657   4.902  19.055  0.00  0.00    +0.000 A 
ATOM     24  C   UNL     1       6.793   5.309  18.345  0.00  0.00    +0.000 A 
ATOM     25  C   UNL     1       7.878   6.095  19.017  0.00  0.00    +0.000 C 
ATOM     26  C   UNL     1       6.915   4.965  16.992  0.00  0.00    +0.000 A 
ATOM     27  C   UNL     1       5.914   4.228  16.344  0.00  0.00    +0.000 A 
ATOM     28  C   UNL     1       6.058   3.860  14.896  0.00  0.00    +0.000 C 
ATOM     29  C   UNL     1       4.779   3.833  17.068  0.00  0.00    +0.000 A 
ENDBRANCH  20  22
ENDBRANCH  17  20
ENDBRANCH  16  17
ENDBRANCH   1  16
TORSDOF 8
ENDMDL
MODEL 8
REMARK VINA RESULT:      -7.2      2.992      8.670
REMARK  Name = 
REMARK  12 active torsions:
REMARK  status: ('A' for Active; 'I' for Inactive)
REMARK    1  A    between atoms: C_1  and  C_2
REMARK    2  A    between atoms: C_4  and  C_5
REMARK    3  A    between atoms: C_7  and  N_8
REMARK    4  A    between atoms: N_8  and  S_9
REMARK    5  A    between atoms: S_9  and  C_12
REMARK    6  A    between atoms: C_12  and  C_13
REMARK    7  A    between atoms: C_13  and  C_14
REMARK    8  A    between atoms: C_14  and  S_15
REMARK    9  A    between atoms: S_15  and  N_18
REMARK   10  A    between atoms: N_18  and  C_19
REMARK   11  A    between atoms: C_21  and  C_22
REMARK   12  A    between atoms: C_24  and  C_25
REMARK                            x       y       z     vdW  Elec       q    Type
REMARK                         _______ _______ _______ _____ _____    ______ ____
ROOT
ATOM      1  C   UNL     1       4.576   4.320  18.808  0.00  0.00    +0.000 C 
ENDROOT
BRANCH   1   2
ATOM      2  C   UNL     1       3.490   3.444  19.426  0.00  0.00    +0.000 C 
BRANCH   2   3
ATOM      3  S   UNL     1       2.241   4.439  20.259  0.00  0.00    +0.000 S 
ATOM      4  O   UNL     1       2.161   4.002  21.637  0.00  0.00    +0.000 OA
ATOM      5  O   UNL     1       1.049   4.493  19.436  0.00  0.00    +0.000 OA
BRANCH   3   6
ATOM      6  N   UNL     1       2.957   5.961  20.301  0.00  0.00    +0.000 N 
ATOM      7  H   UNL     1       3.748   5.995  20.947  0.00  0.00    +0.000 HD
BRANCH   6  14
ATOM      8  C   UNL     1       1.676   9.944  17.720  0.00  0.00    +0.000 C 
ATOM      9  C   UNL     1       1.524   9.102  18.951  0.00  0.00    +0.000 A 
ATOM     10  C   UNL     1       0.672   9.482  19.993  0.00  0.00    +0.000 A 
ATOM     11  C   UNL     1       0.549   8.692  21.146  0.00  0.00    +0.000 A 
ATOM     12  C   UNL     1      -0.361   9.122  22.259  0.00  0.00    +0.000 C 
ATOM     13  C   UNL     1       1.290   7.503  21.250  0.00  0.00    +0.000 A 
ATOM     14  C   UNL     1       2.147   7.125  20.217  0.00  0.00    +0.000 A 
ATOM     15  C   UNL     1       2.260   7.921  19.076  0.00  0.00    +0.000 A 
ENDBRANCH   6  14
ENDBRANCH   3   6
ENDBRANCH   2   3
ENDBRANCH   1   2
BRANCH   1  16
ATOM     16  C   UNL     1       4.117   5.121  17.593  0.00  0.00    +0.000 C 
BRANCH  16  17
ATOM     17  S   UNL     1       5.564   5.750  16.710  0.00  0.00    +0.000 S 
ATOM     18  O   UNL     1       5.078   6.484  15.554  0.00  0.00    +0.000 OA
ATOM     19  O   UNL     1       6.471   6.359  17.652  0.00  0.00    +0.000 OA
BRANCH  17  20
ATOM     20  N   UNL     1       6.251   4.349  16.066  0.00  0.00    +0.000 N 
ATOM     21  H   UNL     1       5.710   3.546  16.395  0.00  0.00    +0.000 HD
BRANCH  20  22
ATOM     22  C   UNL     1       6.532   4.332  14.666  0.00  0.00    +0.000 A 
ATOM     23  C   UNL     1       7.471   5.225  14.155  0.00  0.00    +0.000 A 
ATOM     24  C   UNL     1       7.769   5.231  12.788  0.00  0.00    +0.000 A 
ATOM     25  C   UNL     1       8.791   6.173  12.227  0.00  0.00    +0.000 C 
ATOM     26  C   UNL     1       7.106   4.334  11.938  0.00  0.00    +0.000 A 
ATOM     27  C   UNL     1       6.149   3.442  12.441  0.00  0.00    +0.000 A 
ATOM     28  C   UNL     1       5.448   2.482  11.523  0.00  0.00    +0.000 C 
ATOM     29  C   UNL     1       5.858   3.453  13.813  0.00  0.00    +0.000 A 
ENDBRANCH  20  22
ENDBRANCH  17  20
ENDBRANCH  16  17
ENDBRANCH   1  16
TORSDOF 8
ENDMDL
MODEL 9
REMARK VINA RESULT:      -7.1      2.623      4.348
REMARK  Name = 
REMARK  12 active torsions:
REMARK  status: ('A' for Active; 'I' for Inactive)
REMARK    1  A    between atoms: C_1  and  C_2
REMARK    2  A    between atoms: C_4  and  C_5
REMARK    3  A    between atoms: C_7  and  N_8
REMARK    4  A    between atoms: N_8  and  S_9
REMARK    5  A    between atoms: S_9  and  C_12
REMARK    6  A    between atoms: C_12  and  C_13
REMARK    7  A    between atoms: C_13  and  C_14
REMARK    8  A    between atoms: C_14  and  S_15
REMARK    9  A    between atoms: S_15  and  N_18
REMARK   10  A    between atoms: N_18  and  C_19
REMARK   11  A    between atoms: C_21  and  C_22
REMARK   12  A    between atoms: C_24  and  C_25
REMARK                            x       y       z     vdW  Elec       q    Type
REMARK                         _______ _______ _______ _____ _____    ______ ____
ROOT
ATOM      1  C   UNL     1       4.366   3.885  18.793  0.00  0.00    +0.000 C 
ENDROOT
BRANCH   1   2
ATOM      2  C   UNL     1       5.802   4.389  18.910  0.00  0.00    +0.000 C 
BRANCH   2   3
ATOM      3  S   UNL     1       6.412   5.001  17.328  0.00  0.00    +0.000 S 
ATOM      4  O   UNL     1       7.854   4.875  17.323  0.00  0.00    +0.000 OA
ATOM      5  O   UNL     1       5.784   6.274  17.037  0.00  0.00    +0.000 OA
BRANCH   3   6
ATOM      6  N   UNL     1       5.847   3.841  16.248  0.00  0.00    +0.000 N 
ATOM      7  H   UNL     1       5.863   2.902  16.650  0.00  0.00    +0.000 HD
BRANCH   6  14
ATOM      8  C   UNL     1       8.646   5.918  12.781  0.00  0.00    +0.000 C 
ATOM      9  C   UNL     1       7.528   4.990  13.150  0.00  0.00    +0.000 A 
ATOM     10  C   UNL     1       6.787   4.318  12.173  0.00  0.00    +0.000 A 
ATOM     11  C   UNL     1       5.734   3.462  12.531  0.00  0.00    +0.000 A 
ATOM     12  C   UNL     1       4.941   2.759  11.468  0.00  0.00    +0.000 C 
ATOM     13  C   UNL     1       5.426   3.278  13.889  0.00  0.00    +0.000 A 
ATOM     14  C   UNL     1       6.157   3.953  14.866  0.00  0.00    +0.000 A 
ATOM     15  C   UNL     1       7.201   4.801  14.495  0.00  0.00    +0.000 A 
ENDBRANCH   6  14
ENDBRANCH   3   6
ENDBRANCH   2   3
ENDBRANCH   1   2
BRANCH   1  16
ATOM     16  C   UNL     1       3.513   4.134  20.034  0.00  0.00    +0.000 C 
BRANCH  16  17
ATOM     17  S   UNL     1       2.176   5.277  19.619  0.00  0.00    +0.000 S 
ATOM     18  O   UNL     1       2.125   5.373  18.170  0.00  0.00    +0.000 OA
ATOM     19  O   UNL     1       1.001   4.937  20.384  0.00  0.00    +0.000 OA
BRANCH  17  20
ATOM     20  N   UNL     1       2.784   6.768  20.123  0.00  0.00    +0.000 N 
ATOM     21  H   UNL     1       3.597   6.994  19.545  0.00  0.00    +0.000 HD
BRANCH  20  22
ATOM     22  C   UNL     1       1.858   7.845  20.278  0.00  0.00    +0.000 A 
ATOM     23  C   UNL     1       1.323   8.097  21.540  0.00  0.00    +0.000 A 
ATOM     24  C   UNL     1       0.414   9.145  21.724  0.00  0.00    +0.000 A 
ATOM     25  C   UNL     1      -0.156   9.441  23.078  0.00  0.00    +0.000 C 
ATOM     26  C   UNL     1       0.044   9.932  20.623  0.00  0.00    +0.000 A 
ATOM     27  C   UNL     1       0.567   9.676  19.348  0.00  0.00    +0.000 A 
ATOM     28  C   UNL     1       0.168  10.528  18.178  0.00  0.00    +0.000 C 
ATOM     29  C   UNL     1       1.472   8.618  19.180  0.00  0.00    +0.000 A 
ENDBRANCH  20  22
ENDBRANCH  17  20
ENDBRANCH  16  17
ENDBRANCH   1  16
TORSDOF 8
ENDMDL
