MODEL 1
REMARK VINA RESULT:      -8.5      0.000      0.000
REMARK  Name = 
REMARK  6 active torsions:
REMARK  status: ('A' for Active; 'I' for Inactive)
REMARK    1  A    between atoms: S_2  and  N_4
REMARK    2  A    between atoms: S_2  and  C_25
REMARK    3  A    between atoms: N_4  and  C_5
REMARK    4  A    between atoms: C_5  and  C_6
REMARK    5  A    between atoms: C_9  and  N_10
REMARK    6  A    between atoms: C_12  and  C_13
REMARK                            x       y       z     vdW  Elec       q    Type
REMARK                         _______ _______ _______ _____ _____    ______ ____
ROOT
ATOM      1  C   UNL     1       1.131   9.776  19.406  0.00  0.00    +0.000 A 
ATOM      2  C   UNL     1       1.342   8.730  20.313  0.00  0.00    +0.000 A 
ATOM      3  C   UNL     1       2.023   7.570  19.929  0.00  0.00    +0.000 A 
ATOM      4  C   UNL     1       2.511   7.426  18.625  0.00  0.00    +0.000 A 
ATOM      5  C   UNL     1       2.274   8.459  17.703  0.00  0.00    +0.000 A 
ATOM      6  C   UNL     1       1.604   9.627  18.096  0.00  0.00    +0.000 A 
ENDROOT
BRANCH   4   7
ATOM      7  N   UNL     1       3.237   6.268  18.208  0.00  0.00    +0.000 N 
ATOM      8  N   UNL     1       4.532   6.394  17.792  0.00  0.00    +0.000 NA
ATOM      9  C   UNL     1       4.939   5.156  17.446  0.00  0.00    +0.000 A 
ATOM     10  C   UNL     1       3.918   4.212  17.700  0.00  0.00    +0.000 A 
ATOM     11  C   UNL     1       2.847   4.939  18.175  0.00  0.00    +0.000 A 
ATOM     12  C   UNL     1       1.553   4.340  18.615  0.00  0.00    +0.000 C 
ATOM     13  C   UNL     1       1.683   2.814  18.778  0.00  0.00    +0.000 C 
ATOM     14  C   UNL     1       2.488   2.174  17.634  0.00  0.00    +0.000 C 
ATOM     15  C   UNL     1       3.922   2.727  17.582  0.00  0.00    +0.000 C 
BRANCH   9  16
ATOM     16  C   UNL     1       6.314   4.848  16.909  0.00  0.00    +0.000 C 
ATOM     17  F   UNL     1       6.317   4.007  15.842  0.00  0.00    +0.000 F 
ATOM     18  F   UNL     1       6.961   5.981  16.517  0.00  0.00    +0.000 F 
ATOM     19  F   UNL     1       7.103   4.270  17.858  0.00  0.00    +0.000 F 
ENDBRANCH   9  16
ENDBRANCH   4   7
BRANCH   1  20
ATOM     20  C   UNL     1       0.361  11.008  19.824  0.00  0.00    +0.000 C 
BRANCH  20  21
ATOM     21  N   UNL     1      -1.092  10.808  19.722  0.00  0.00    +0.000 NA
ATOM     22  H   UNL     1      -1.363   9.876  19.410  0.00  0.00    +0.000 HD
BRANCH  21  24
ATOM     23  O   UNL     1      -3.043  12.415  19.595  0.00  0.00    +0.000 OA
ATOM     24  S   UNL     1      -1.923  11.952  18.804  0.00  0.00    +0.000 S 
ATOM     25  O   UNL     1      -0.915  12.875  18.331  0.00  0.00    +0.000 OA
BRANCH  24  26
ATOM     26  C   UNL     1      -2.635  11.162  17.336  0.00  0.00    +0.000 C 
ATOM     27  C   UNL     1      -1.935   9.885  16.940  0.00  0.00    +0.000 C 
ATOM     28  C   UNL     1      -3.314   9.832  17.533  0.00  0.00    +0.000 C 
ENDBRANCH  24  26
ENDBRANCH  21  24
ENDBRANCH  20  21
ENDBRANCH   1  20
TORSDOF 6
ENDMDL
MODEL 2
REMARK VINA RESULT:      -8.3      1.847      2.980
REMARK  Name = 
REMARK  6 active torsions:
REMARK  status: ('A' for Active; 'I' for Inactive)
REMARK    1  A    between atoms: S_2  and  N_4
REMARK    2  A    between atoms: S_2  and  C_25
REMARK    3  A    between atoms: N_4  and  C_5
REMARK    4  A    between atoms: C_5  and  C_6
REMARK    5  A    between atoms: C_9  and  N_10
REMARK    6  A    between atoms: C_12  and  C_13
REMARK                            x       y       z     vdW  Elec       q    Type
REMARK                         _______ _______ _______ _____ _____    ______ ____
ROOT
ATOM      1  C   UNL     1       1.067   9.620  19.532  0.00  0.00    +0.000 A 
ATOM      2  C   UNL     1       1.430   9.430  18.193  0.00  0.00    +0.000 A 
ATOM      3  C   UNL     1       2.034   8.240  17.773  0.00  0.00    +0.000 A 
ATOM      4  C   UNL     1       2.292   7.209  18.683  0.00  0.00    +0.000 A 
ATOM      5  C   UNL     1       1.959   7.408  20.032  0.00  0.00    +0.000 A 
ATOM      6  C   UNL     1       1.340   8.595  20.448  0.00  0.00    +0.000 A 
ENDROOT
BRANCH   4   7
ATOM      7  N   UNL     1       2.880   5.970  18.281  0.00  0.00    +0.000 N 
ATOM      8  N   UNL     1       2.352   4.793  18.730  0.00  0.00    +0.000 NA
ATOM      9  C   UNL     1       3.118   3.813  18.211  0.00  0.00    +0.000 A 
ATOM     10  C   UNL     1       4.113   4.359  17.368  0.00  0.00    +0.000 A 
ATOM     11  C   UNL     1       3.949   5.727  17.434  0.00  0.00    +0.000 A 
ATOM     12  C   UNL     1       4.764   6.710  16.662  0.00  0.00    +0.000 C 
ATOM     13  C   UNL     1       5.573   6.003  15.558  0.00  0.00    +0.000 C 
ATOM     14  C   UNL     1       6.199   4.687  16.049  0.00  0.00    +0.000 C 
ATOM     15  C   UNL     1       5.122   3.688  16.500  0.00  0.00    +0.000 C 
BRANCH   9  16
ATOM     16  C   UNL     1       2.892   2.346  18.474  0.00  0.00    +0.000 C 
ATOM     17  F   UNL     1       4.013   1.666  18.828  0.00  0.00    +0.000 F 
ATOM     18  F   UNL     1       1.984   2.154  19.472  0.00  0.00    +0.000 F 
ATOM     19  F   UNL     1       2.387   1.713  17.377  0.00  0.00    +0.000 F 
ENDBRANCH   9  16
ENDBRANCH   4   7
BRANCH   1  20
ATOM     20  C   UNL     1       0.449  10.925  19.980  0.00  0.00    +0.000 C 
BRANCH  20  21
ATOM     21  N   UNL     1      -1.021  10.880  19.933  0.00  0.00    +0.000 NA
ATOM     22  H   UNL     1      -1.402   9.963  19.704  0.00  0.00    +0.000 HD
BRANCH  21  24
ATOM     23  O   UNL     1      -2.738  12.730  19.752  0.00  0.00    +0.000 OA
ATOM     24  S   UNL     1      -1.755  12.036  18.949  0.00  0.00    +0.000 S 
ATOM     25  O   UNL     1      -0.668  12.754  18.319  0.00  0.00    +0.000 OA
BRANCH  24  26
ATOM     26  C   UNL     1      -2.675  11.215  17.620  0.00  0.00    +0.000 C 
ATOM     27  C   UNL     1      -1.902  10.111  16.944  0.00  0.00    +0.000 C 
ATOM     28  C   UNL     1      -3.060   9.776  17.839  0.00  0.00    +0.000 C 
ENDBRANCH  24  26
ENDBRANCH  21  24
ENDBRANCH  20  21
ENDBRANCH   1  20
TORSDOF 6
ENDMDL
MODEL 3
REMARK VINA RESULT:      -8.3      1.923      2.863
REMARK  Name = 
REMARK  6 active torsions:
REMARK  status: ('A' for Active; 'I' for Inactive)
REMARK    1  A    between atoms: S_2  and  N_4
REMARK    2  A    between atoms: S_2  and  C_25
REMARK    3  A    between atoms: N_4  and  C_5
REMARK    4  A    between atoms: C_5  and  C_6
REMARK    5  A    between atoms: C_9  and  N_10
REMARK    6  A    between atoms: C_12  and  C_13
REMARK                            x       y       z     vdW  Elec       q    Type
REMARK                         _______ _______ _______ _____ _____    ______ ____
ROOT
ATOM      1  C   UNL     1       1.115   9.858  19.526  0.00  0.00    +0.000 A 
ATOM      2  C   UNL     1       1.325   8.853  20.478  0.00  0.00    +0.000 A 
ATOM      3  C   UNL     1       1.844   7.608  20.108  0.00  0.00    +0.000 A 
ATOM      4  C   UNL     1       2.165   7.336  18.773  0.00  0.00    +0.000 A 
ATOM      5  C   UNL     1       1.927   8.330  17.811  0.00  0.00    +0.000 A 
ATOM      6  C   UNL     1       1.421   9.582  18.187  0.00  0.00    +0.000 A 
ENDROOT
BRANCH   4   7
ATOM      7  N   UNL     1       2.725   6.085  18.365  0.00  0.00    +0.000 N 
ATOM      8  N   UNL     1       2.134   4.919  18.761  0.00  0.00    +0.000 NA
ATOM      9  C   UNL     1       2.887   3.923  18.250  0.00  0.00    +0.000 A 
ATOM     10  C   UNL     1       3.937   4.451  17.464  0.00  0.00    +0.000 A 
ATOM     11  C   UNL     1       3.820   5.823  17.558  0.00  0.00    +0.000 A 
ATOM     12  C   UNL     1       4.703   6.792  16.847  0.00  0.00    +0.000 C 
ATOM     13  C   UNL     1       5.532   6.083  15.760  0.00  0.00    +0.000 C 
ATOM     14  C   UNL     1       6.088   4.733  16.244  0.00  0.00    +0.000 C 
ATOM     15  C   UNL     1       4.956   3.765  16.623  0.00  0.00    +0.000 C 
BRANCH   9  16
ATOM     16  C   UNL     1       2.595   2.460  18.466  0.00  0.00    +0.000 C 
ATOM     17  F   UNL     1       2.307   1.777  17.327  0.00  0.00    +0.000 F 
ATOM     18  F   UNL     1       3.649   1.823  19.050  0.00  0.00    +0.000 F 
ATOM     19  F   UNL     1       1.534   2.280  19.303  0.00  0.00    +0.000 F 
ENDBRANCH   9  16
ENDBRANCH   4   7
BRANCH   1  20
ATOM     20  C   UNL     1       0.520  11.186  19.934  0.00  0.00    +0.000 C 
BRANCH  20  21
ATOM     21  N   UNL     1      -0.923  11.082  20.202  0.00  0.00    +0.000 NA
ATOM     22  H   UNL     1      -1.217  10.170  20.546  0.00  0.00    +0.000 HD
BRANCH  21  24
ATOM     23  O   UNL     1      -3.119  12.134  19.513  0.00  0.00    +0.000 OA
ATOM     24  S   UNL     1      -1.935  11.538  18.933  0.00  0.00    +0.000 S 
ATOM     25  O   UNL     1      -1.098  12.285  18.020  0.00  0.00    +0.000 OA
BRANCH  24  26
ATOM     26  C   UNL     1      -2.498  10.066  18.038  0.00  0.00    +0.000 C 
ATOM     27  C   UNL     1      -3.506  10.366  16.957  0.00  0.00    +0.000 C 
ATOM     28  C   UNL     1      -2.110   9.954  16.587  0.00  0.00    +0.000 C 
ENDBRANCH  24  26
ENDBRANCH  21  24
ENDBRANCH  20  21
ENDBRANCH   1  20
TORSDOF 6
ENDMDL
MODEL 4
REMARK VINA RESULT:      -8.2      5.556      8.665
REMARK  Name = 
REMARK  6 active torsions:
REMARK  status: ('A' for Active; 'I' for Inactive)
REMARK    1  A    between atoms: S_2  and  N_4
REMARK    2  A    between atoms: S_2  and  C_25
REMARK    3  A    between atoms: N_4  and  C_5
REMARK    4  A    between atoms: C_5  and  C_6
REMARK    5  A    between atoms: C_9  and  N_10
REMARK    6  A    between atoms: C_12  and  C_13
REMARK                            x       y       z     vdW  Elec       q    Type
REMARK                         _______ _______ _______ _____ _____    ______ ____
ROOT
ATOM      1  C   UNL     1       3.717   6.290  18.409  0.00  0.00    +0.000 A 
ATOM      2  C   UNL     1       2.949   6.203  19.577  0.00  0.00    +0.000 A 
ATOM      3  C   UNL     1       2.013   7.193  19.898  0.00  0.00    +0.000 A 
ATOM      4  C   UNL     1       1.822   8.295  19.058  0.00  0.00    +0.000 A 
ATOM      5  C   UNL     1       2.612   8.402  17.902  0.00  0.00    +0.000 A 
ATOM      6  C   UNL     1       3.538   7.401  17.575  0.00  0.00    +0.000 A 
ENDROOT
BRANCH   4   7
ATOM      7  N   UNL     1       0.854   9.308  19.341  0.00  0.00    +0.000 N 
ATOM      8  N   UNL     1       0.213   9.938  18.311  0.00  0.00    +0.000 NA
ATOM      9  C   UNL     1      -0.611  10.842  18.878  0.00  0.00    +0.000 A 
ATOM     10  C   UNL     1      -0.548  10.753  20.287  0.00  0.00    +0.000 A 
ATOM     11  C   UNL     1       0.391   9.780  20.558  0.00  0.00    +0.000 A 
ATOM     12  C   UNL     1       0.754   9.321  21.931  0.00  0.00    +0.000 C 
ATOM     13  C   UNL     1      -0.268   9.826  22.966  0.00  0.00    +0.000 C 
ATOM     14  C   UNL     1      -0.673  11.289  22.716  0.00  0.00    +0.000 C 
ATOM     15  C   UNL     1      -1.334  11.459  21.338  0.00  0.00    +0.000 C 
BRANCH   9  16
ATOM     16  C   UNL     1      -1.497  11.774  18.090  0.00  0.00    +0.000 C 
ATOM     17  F   UNL     1      -2.702  12.016  18.670  0.00  0.00    +0.000 F 
ATOM     18  F   UNL     1      -0.903  12.985  17.900  0.00  0.00    +0.000 F 
ATOM     19  F   UNL     1      -1.759  11.281  16.846  0.00  0.00    +0.000 F 
ENDBRANCH   9  16
ENDBRANCH   4   7
BRANCH   1  20
ATOM     20  C   UNL     1       4.751   5.233  18.093  0.00  0.00    +0.000 C 
BRANCH  20  21
ATOM     21  N   UNL     1       6.121   5.753  18.213  0.00  0.00    +0.000 NA
ATOM     22  H   UNL     1       6.174   6.713  18.549  0.00  0.00    +0.000 HD
BRANCH  21  24
ATOM     23  O   UNL     1       7.667   6.901  16.571  0.00  0.00    +0.000 OA
ATOM     24  S   UNL     1       7.081   5.605  16.835  0.00  0.00    +0.000 S 
ATOM     25  O   UNL     1       7.916   4.446  17.067  0.00  0.00    +0.000 OA
BRANCH  24  26
ATOM     26  C   UNL     1       6.041   5.219  15.402  0.00  0.00    +0.000 C 
ATOM     27  C   UNL     1       6.826   4.828  14.174  0.00  0.00    +0.000 C 
ATOM     28  C   UNL     1       6.036   3.792  14.921  0.00  0.00    +0.000 C 
ENDBRANCH  24  26
ENDBRANCH  21  24
ENDBRANCH  20  21
ENDBRANCH   1  20
TORSDOF 6
ENDMDL
MODEL 5
REMARK VINA RESULT:      -8.1      1.712      2.550
REMARK  Name = 
REMARK  6 active torsions:
REMARK  status: ('A' for Active; 'I' for Inactive)
REMARK    1  A    between atoms: S_2  and  N_4
REMARK    2  A    between atoms: S_2  and  C_25
REMARK    3  A    between atoms: N_4  and  C_5
REMARK    4  A    between atoms: C_5  and  C_6
REMARK    5  A    between atoms: C_9  and  N_10
REMARK    6  A    between atoms: C_12  and  C_13
REMARK                            x       y       z     vdW  Elec       q    Type
REMARK                         _______ _______ _______ _____ _____    ______ ____
ROOT
ATOM      1  C   UNL     1       1.268   9.704  19.193  0.00  0.00    +0.000 A 
ATOM      2  C   UNL     1       1.434   8.673  20.128  0.00  0.00    +0.000 A 
ATOM      3  C   UNL     1       2.104   7.494  19.786  0.00  0.00    +0.000 A 
ATOM      4  C   UNL     1       2.625   7.314  18.500  0.00  0.00    +0.000 A 
ATOM      5  C   UNL     1       2.432   8.331  17.551  0.00  0.00    +0.000 A 
ATOM      6  C   UNL     1       1.774   9.519  17.900  0.00  0.00    +0.000 A 
ENDROOT
BRANCH   4   7
ATOM      7  N   UNL     1       3.341   6.134  18.127  0.00  0.00    +0.000 N 
ATOM      8  N   UNL     1       4.638   6.233  17.710  0.00  0.00    +0.000 NA
ATOM      9  C   UNL     1       5.034   4.980  17.411  0.00  0.00    +0.000 A 
ATOM     10  C   UNL     1       4.004   4.055  17.696  0.00  0.00    +0.000 A 
ATOM     11  C   UNL     1       2.938   4.809  18.141  0.00  0.00    +0.000 A 
ATOM     12  C   UNL     1       1.638   4.238  18.600  0.00  0.00    +0.000 C 
ATOM     13  C   UNL     1       1.753   2.718  18.818  0.00  0.00    +0.000 C 
ATOM     14  C   UNL     1       2.555   2.030  17.701  0.00  0.00    +0.000 C 
ATOM     15  C   UNL     1       3.994   2.566  17.632  0.00  0.00    +0.000 C 
BRANCH   9  16
ATOM     16  C   UNL     1       6.407   4.639  16.889  0.00  0.00    +0.000 C 
ATOM     17  F   UNL     1       7.268   4.194  17.841  0.00  0.00    +0.000 F 
ATOM     18  F   UNL     1       6.350   3.675  15.929  0.00  0.00    +0.000 F 
ATOM     19  F   UNL     1       7.002   5.719  16.306  0.00  0.00    +0.000 F 
ENDBRANCH   9  16
ENDBRANCH   4   7
BRANCH   1  20
ATOM     20  C   UNL     1       0.510  10.957  19.565  0.00  0.00    +0.000 C 
BRANCH  20  21
ATOM     21  N   UNL     1       0.770  11.366  20.953  0.00  0.00    +0.000 NA
ATOM     22  H   UNL     1       1.342  10.707  21.480  0.00  0.00    +0.000 HD
BRANCH  21  24
ATOM     23  O   UNL     1      -0.273  12.938  22.640  0.00  0.00    +0.000 OA
ATOM     24  S   UNL     1      -0.592  11.757  21.867  0.00  0.00    +0.000 S 
ATOM     25  O   UNL     1      -1.697  11.755  20.934  0.00  0.00    +0.000 OA
BRANCH  24  26
ATOM     26  C   UNL     1      -0.922  10.441  23.069  0.00  0.00    +0.000 C 
ATOM     27  C   UNL     1      -0.798   9.052  22.493  0.00  0.00    +0.000 C 
ATOM     28  C   UNL     1       0.235   9.559  23.458  0.00  0.00    +0.000 C 
ENDBRANCH  24  26
ENDBRANCH  21  24
ENDBRANCH  20  21
ENDBRANCH   1  20
TORSDOF 6
ENDMDL
MODEL 6
REMARK VINA RESULT:      -8.1      0.561      1.015
REMARK  Name = 
REMARK  6 active torsions:
REMARK  status: ('A' for Active; 'I' for Inactive)
REMARK    1  A    between atoms: S_2  and  N_4
REMARK    2  A    between atoms: S_2  and  C_25
REMARK    3  A    between atoms: N_4  and  C_5
REMARK    4  A    between atoms: C_5  and  C_6
REMARK    5  A    between atoms: C_9  and  N_10
REMARK    6  A    between atoms: C_12  and  C_13
REMARK                            x       y       z     vdW  Elec       q    Type
REMARK                         _______ _______ _______ _____ _____    ______ ____
ROOT
ATOM      1  C   UNL     1       1.058   9.499  19.855  0.00  0.00    +0.000 A 
ATOM      2  C   UNL     1       1.304   8.411  20.703  0.00  0.00    +0.000 A 
ATOM      3  C   UNL     1       1.987   7.280  20.243  0.00  0.00    +0.000 A 
ATOM      4  C   UNL     1       2.441   7.208  18.921  0.00  0.00    +0.000 A 
ATOM      5  C   UNL     1       2.169   8.283  18.059  0.00  0.00    +0.000 A 
ATOM      6  C   UNL     1       1.498   9.421  18.527  0.00  0.00    +0.000 A 
ENDROOT
BRANCH   4   7
ATOM      7  N   UNL     1       3.168   6.081  18.428  0.00  0.00    +0.000 N 
ATOM      8  N   UNL     1       4.443   6.247  17.965  0.00  0.00    +0.000 NA
ATOM      9  C   UNL     1       4.856   5.032  17.552  0.00  0.00    +0.000 A 
ATOM     10  C   UNL     1       3.862   4.060  17.808  0.00  0.00    +0.000 A 
ATOM     11  C   UNL     1       2.799   4.748  18.355  0.00  0.00    +0.000 A 
ATOM     12  C   UNL     1       1.534   4.108  18.822  0.00  0.00    +0.000 C 
ATOM     13  C   UNL     1       1.696   2.579  18.917  0.00  0.00    +0.000 C 
ATOM     14  C   UNL     1       2.464   2.001  17.716  0.00  0.00    +0.000 C 
ATOM     15  C   UNL     1       3.885   2.581  17.629  0.00  0.00    +0.000 C 
BRANCH   9  16
ATOM     16  C   UNL     1       6.212   4.770  16.948  0.00  0.00    +0.000 C 
ATOM     17  F   UNL     1       7.114   4.242  17.816  0.00  0.00    +0.000 F 
ATOM     18  F   UNL     1       6.131   3.911  15.894  0.00  0.00    +0.000 F 
ATOM     19  F   UNL     1       6.771   5.915  16.460  0.00  0.00    +0.000 F 
ENDBRANCH   9  16
ENDBRANCH   4   7
BRANCH   1  20
ATOM     20  C   UNL     1       0.287  10.699  20.354  0.00  0.00    +0.000 C 
BRANCH  20  21
ATOM     21  N   UNL     1       0.074  11.695  19.294  0.00  0.00    +0.000 NA
ATOM     22  H   UNL     1       0.381  12.636  19.539  0.00  0.00    +0.000 HD
BRANCH  21  24
ATOM     23  O   UNL     1      -2.364  12.200  19.746  0.00  0.00    +0.000 OA
ATOM     24  S   UNL     1      -1.491  11.778  18.672  0.00  0.00    +0.000 S 
ATOM     25  O   UNL     1      -1.384  12.551  17.454  0.00  0.00    +0.000 OA
BRANCH  24  26
ATOM     26  C   UNL     1      -2.048  10.121  18.191  0.00  0.00    +0.000 C 
ATOM     27  C   UNL     1      -3.424  10.103  17.575  0.00  0.00    +0.000 C 
ATOM     28  C   UNL     1      -2.216   9.854  16.719  0.00  0.00    +0.000 C 
ENDBRANCH  24  26
ENDBRANCH  21  24
ENDBRANCH  20  21
ENDBRANCH   1  20
TORSDOF 6
ENDMDL
MODEL 7
REMARK VINA RESULT:      -8.0      1.670      2.732
REMARK  Name = 
REMARK  6 active torsions:
REMARK  status: ('A' for Active; 'I' for Inactive)
REMARK    1  A    between atoms: S_2  and  N_4
REMARK    2  A    between atoms: S_2  and  C_25
REMARK    3  A    between atoms: N_4  and  C_5
REMARK    4  A    between atoms: C_5  and  C_6
REMARK    5  A    between atoms: C_9  and  N_10
REMARK    6  A    between atoms: C_12  and  C_13
REMARK                            x       y       z     vdW  Elec       q    Type
REMARK                         _______ _______ _______ _____ _____    ______ ____
ROOT
ATOM      1  C   UNL     1       1.114   9.782  19.035  0.00  0.00    +0.000 A 
ATOM      2  C   UNL     1       1.710   9.647  17.775  0.00  0.00    +0.000 A 
ATOM      3  C   UNL     1       2.461   8.512  17.451  0.00  0.00    +0.000 A 
ATOM      4  C   UNL     1       2.635   7.481  18.382  0.00  0.00    +0.000 A 
ATOM      5  C   UNL     1       2.065   7.627  19.657  0.00  0.00    +0.000 A 
ATOM      6  C   UNL     1       1.301   8.758  19.973  0.00  0.00    +0.000 A 
ENDROOT
BRANCH   4   7
ATOM      7  N   UNL     1       3.371   6.295  18.074  0.00  0.00    +0.000 N 
ATOM      8  N   UNL     1       4.692   6.386  17.738  0.00  0.00    +0.000 NA
ATOM      9  C   UNL     1       5.103   5.127  17.484  0.00  0.00    +0.000 A 
ATOM     10  C   UNL     1       4.055   4.208  17.719  0.00  0.00    +0.000 A 
ATOM     11  C   UNL     1       2.965   4.971  18.084  0.00  0.00    +0.000 A 
ATOM     12  C   UNL     1       1.637   4.409  18.468  0.00  0.00    +0.000 C 
ATOM     13  C   UNL     1       1.735   2.892  18.718  0.00  0.00    +0.000 C 
ATOM     14  C   UNL     1       2.604   2.185  17.664  0.00  0.00    +0.000 C 
ATOM     15  C   UNL     1       4.046   2.719  17.678  0.00  0.00    +0.000 C 
BRANCH   9  16
ATOM     16  C   UNL     1       6.506   4.777  17.056  0.00  0.00    +0.000 C 
ATOM     17  F   UNL     1       7.257   5.847  16.686  0.00  0.00    +0.000 F 
ATOM     18  F   UNL     1       7.187   4.143  18.051  0.00  0.00    +0.000 F 
ATOM     19  F   UNL     1       6.505   3.922  15.993  0.00  0.00    +0.000 F 
ENDBRANCH   9  16
ENDBRANCH   4   7
BRANCH   1  20
ATOM     20  C   UNL     1       0.336  11.030  19.383  0.00  0.00    +0.000 C 
BRANCH  20  21
ATOM     21  N   UNL     1      -0.801  10.739  20.269  0.00  0.00    +0.000 NA
ATOM     22  H   UNL     1      -1.713  10.882  19.837  0.00  0.00    +0.000 HD
BRANCH  21  24
ATOM     23  O   UNL     1       0.515  12.148  21.909  0.00  0.00    +0.000 OA
ATOM     24  S   UNL     1      -0.780  11.519  21.764  0.00  0.00    +0.000 S 
ATOM     25  O   UNL     1      -1.995  12.302  21.809  0.00  0.00    +0.000 OA
BRANCH  24  26
ATOM     26  C   UNL     1      -0.899  10.295  23.096  0.00  0.00    +0.000 C 
ATOM     27  C   UNL     1      -0.722   8.873  22.626  0.00  0.00    +0.000 C 
ATOM     28  C   UNL     1       0.352   9.533  23.443  0.00  0.00    +0.000 C 
ENDBRANCH  24  26
ENDBRANCH  21  24
ENDBRANCH  20  21
ENDBRANCH   1  20
TORSDOF 6
ENDMDL
MODEL 8
REMARK VINA RESULT:      -8.0      2.015      3.070
REMARK  Name = 
REMARK  6 active torsions:
REMARK  status: ('A' for Active; 'I' for Inactive)
REMARK    1  A    between atoms: S_2  and  N_4
REMARK    2  A    between atoms: S_2  and  C_25
REMARK    3  A    between atoms: N_4  and  C_5
REMARK    4  A    between atoms: C_5  and  C_6
REMARK    5  A    between atoms: C_9  and  N_10
REMARK    6  A    between atoms: C_12  and  C_13
REMARK                            x       y       z     vdW  Elec       q    Type
REMARK                         _______ _______ _______ _____ _____    ______ ____
ROOT
ATOM      1  C   UNL     1       1.041   9.520  20.095  0.00  0.00    +0.000 A 
ATOM      2  C   UNL     1       1.389   9.437  18.741  0.00  0.00    +0.000 A 
ATOM      3  C   UNL     1       1.966   8.276  18.216  0.00  0.00    +0.000 A 
ATOM      4  C   UNL     1       2.211   7.167  19.033  0.00  0.00    +0.000 A 
ATOM      5  C   UNL     1       1.893   7.258  20.398  0.00  0.00    +0.000 A 
ATOM      6  C   UNL     1       1.300   8.417  20.918  0.00  0.00    +0.000 A 
ENDROOT
BRANCH   4   7
ATOM      7  N   UNL     1       2.771   5.955  18.523  0.00  0.00    +0.000 N 
ATOM      8  N   UNL     1       2.244   4.753  18.904  0.00  0.00    +0.000 NA
ATOM      9  C   UNL     1       2.982   3.807  18.289  0.00  0.00    +0.000 A 
ATOM     10  C   UNL     1       3.954   4.404  17.455  0.00  0.00    +0.000 A 
ATOM     11  C   UNL     1       3.808   5.765  17.625  0.00  0.00    +0.000 A 
ATOM     12  C   UNL     1       4.608   6.794  16.898  0.00  0.00    +0.000 C 
ATOM     13  C   UNL     1       5.371   6.162  15.719  0.00  0.00    +0.000 C 
ATOM     14  C   UNL     1       5.999   4.808  16.092  0.00  0.00    +0.000 C 
ATOM     15  C   UNL     1       4.925   3.789  16.506  0.00  0.00    +0.000 C 
BRANCH   9  16
ATOM     16  C   UNL     1       2.747   2.326  18.453  0.00  0.00    +0.000 C 
ATOM     17  F   UNL     1       1.773   2.015  19.348  0.00  0.00    +0.000 F 
ATOM     18  F   UNL     1       2.398   1.743  17.273  0.00  0.00    +0.000 F 
ATOM     19  F   UNL     1       3.876   1.685  18.873  0.00  0.00    +0.000 F 
ENDBRANCH   9  16
ENDBRANCH   4   7
BRANCH   1  20
ATOM     20  C   UNL     1       0.452  10.794  20.656  0.00  0.00    +0.000 C 
BRANCH  20  21
ATOM     21  N   UNL     1       0.505  11.898  19.686  0.00  0.00    +0.000 NA
ATOM     22  H   UNL     1       1.027  12.711  20.009  0.00  0.00    +0.000 HD
BRANCH  21  24
ATOM     23  O   UNL     1      -1.674  13.097  20.153  0.00  0.00    +0.000 OA
ATOM     24  S   UNL     1      -0.984  12.411  19.082  0.00  0.00    +0.000 S 
ATOM     25  O   UNL     1      -0.685  13.086  17.838  0.00  0.00    +0.000 OA
BRANCH  24  26
ATOM     26  C   UNL     1      -2.004  10.973  18.662  0.00  0.00    +0.000 C 
ATOM     27  C   UNL     1      -3.235  11.320  17.862  0.00  0.00    +0.000 C 
ATOM     28  C   UNL     1      -2.093  10.595  17.208  0.00  0.00    +0.000 C 
ENDBRANCH  24  26
ENDBRANCH  21  24
ENDBRANCH  20  21
ENDBRANCH   1  20
TORSDOF 6
ENDMDL
MODEL 9
REMARK VINA RESULT:      -8.0      2.188      2.707
REMARK  Name = 
REMARK  6 active torsions:
REMARK  status: ('A' for Active; 'I' for Inactive)
REMARK    1  A    between atoms: S_2  and  N_4
REMARK    2  A    between atoms: S_2  and  C_25
REMARK    3  A    between atoms: N_4  and  C_5
REMARK    4  A    between atoms: C_5  and  C_6
REMARK    5  A    between atoms: C_9  and  N_10
REMARK    6  A    between atoms: C_12  and  C_13
REMARK                            x       y       z     vdW  Elec       q    Type
REMARK                         _______ _______ _______ _____ _____    ______ ____
ROOT
ATOM      1  C   UNL     1       1.101   9.793  19.506  0.00  0.00    +0.000 A 
ATOM      2  C   UNL     1       1.370   8.730  20.378  0.00  0.00    +0.000 A 
ATOM      3  C   UNL     1       1.990   7.562  19.920  0.00  0.00    +0.000 A 
ATOM      4  C   UNL     1       2.356   7.427  18.576  0.00  0.00    +0.000 A 
ATOM      5  C   UNL     1       2.059   8.477  17.692  0.00  0.00    +0.000 A 
ATOM      6  C   UNL     1       1.453   9.653  18.157  0.00  0.00    +0.000 A 
ENDROOT
BRANCH   4   7
ATOM      7  N   UNL     1       3.017   6.260  18.081  0.00  0.00    +0.000 N 
ATOM      8  N   UNL     1       4.171   6.390  17.361  0.00  0.00    +0.000 NA
ATOM      9  C   UNL     1       4.543   5.141  17.017  0.00  0.00    +0.000 A 
ATOM     10  C   UNL     1       3.656   4.191  17.573  0.00  0.00    +0.000 A 
ATOM     11  C   UNL     1       2.693   4.923  18.236  0.00  0.00    +0.000 A 
ATOM     12  C   UNL     1       1.568   4.323  19.013  0.00  0.00    +0.000 C 
ATOM     13  C   UNL     1       1.804   2.820  19.247  0.00  0.00    +0.000 C 
ATOM     14  C   UNL     1       2.347   2.114  17.993  0.00  0.00    +0.000 C 
ATOM     15  C   UNL     1       3.701   2.702  17.563  0.00  0.00    +0.000 C 
BRANCH   9  16
ATOM     16  C   UNL     1       5.766   4.830  16.192  0.00  0.00    +0.000 C 
ATOM     17  F   UNL     1       6.434   5.930  15.755  0.00  0.00    +0.000 F 
ATOM     18  F   UNL     1       6.661   4.079  16.891  0.00  0.00    +0.000 F 
ATOM     19  F   UNL     1       5.448   4.105  15.081  0.00  0.00    +0.000 F 
ENDBRANCH   9  16
ENDBRANCH   4   7
BRANCH   1  20
ATOM     20  C   UNL     1       0.398  11.034  20.006  0.00  0.00    +0.000 C 
BRANCH  20  21
ATOM     21  N   UNL     1      -0.717  10.707  20.907  0.00  0.00    +0.000 NA
ATOM     22  H   UNL     1      -1.637  10.786  20.476  0.00  0.00    +0.000 HD
BRANCH  21  24
ATOM     23  O   UNL     1      -0.349  10.590  23.408  0.00  0.00    +0.000 OA
ATOM     24  S   UNL     1      -0.733  11.531  22.378  0.00  0.00    +0.000 S 
ATOM     25  O   UNL     1       0.030  12.739  22.153  0.00  0.00    +0.000 OA
BRANCH  24  26
ATOM     26  C   UNL     1      -2.424  12.050  22.773  0.00  0.00    +0.000 C 
ATOM     27  C   UNL     1      -2.491  13.304  23.608  0.00  0.00    +0.000 C 
ATOM     28  C   UNL     1      -2.907  13.340  22.165  0.00  0.00    +0.000 C 
ENDBRANCH  24  26
ENDBRANCH  21  24
ENDBRANCH  20  21
ENDBRANCH   1  20
TORSDOF 6
ENDMDL
