MODEL 1
REMARK VINA RESULT:      -8.0      0.000      0.000
REMARK  Name = 
REMARK  3 active torsions:
REMARK  status: ('A' for Active; 'I' for Inactive)
REMARK    1  A    between atoms: C_1  and  O_2
REMARK    2  A    between atoms: O_2  and  C_3
REMARK    3  A    between atoms: C_4  and  C_5
REMARK                            x       y       z     vdW  Elec       q    Type
REMARK                         _______ _______ _______ _____ _____    ______ ____
ROOT
ATOM      1  C   UNL     1       6.218   5.470  17.618  0.00  0.00    +0.000 A 
ATOM      2  C   UNL     1       5.219   4.568  17.505  0.00  0.00    +0.000 A 
ATOM      3  O   UNL     1       4.881   3.882  16.350  0.00  0.00    +0.000 OA
ATOM      4  C   UNL     1       5.605   4.119  15.211  0.00  0.00    +0.000 A 
ATOM      5  C   UNL     1       5.262   3.401  14.065  0.00  0.00    +0.000 A 
ATOM      6  C   UNL     1       5.956   3.620  12.870  0.00  0.00    +0.000 A 
ATOM      7  C   UNL     1       6.989   4.556  12.820  0.00  0.00    +0.000 A 
ATOM      8  C   UNL     1       7.339   5.263  13.968  0.00  0.00    +0.000 A 
ATOM      9  C   UNL     1       6.644   5.036  15.163  0.00  0.00    +0.000 A 
ATOM     10  C   UNL     1       7.017   5.759  16.385  0.00  0.00    +0.000 A 
ATOM     11  O   UNL     1       7.952   6.550  16.349  0.00  0.00    +0.000 OA
ENDROOT
BRANCH   2  12
ATOM     12  C   UNL     1       4.360   4.197  18.653  0.00  0.00    +0.000 A 
ATOM     13  C   UNL     1       4.489   2.892  19.158  0.00  0.00    +0.000 A 
ATOM     14  C   UNL     1       3.673   2.447  20.194  0.00  0.00    +0.000 A 
ATOM     15  C   UNL     1       2.721   3.302  20.742  0.00  0.00    +0.000 A 
ATOM     16  C   UNL     1       2.583   4.619  20.280  0.00  0.00    +0.000 A 
ATOM     17  C   UNL     1       1.632   5.471  20.864  0.00  0.00    +0.000 A 
ATOM     18  C   UNL     1       1.484   6.786  20.432  0.00  0.00    +0.000 A 
ATOM     19  C   UNL     1       2.285   7.267  19.402  0.00  0.00    +0.000 A 
ATOM     20  C   UNL     1       3.229   6.429  18.804  0.00  0.00    +0.000 A 
ATOM     21  C   UNL     1       3.410   5.089  19.223  0.00  0.00    +0.000 A 
ENDBRANCH   2  12
BRANCH   1  23
ATOM     22  C   UNL     1       7.703   5.628  19.469  0.00  0.00    +0.000 C 
ATOM     23  O   UNL     1       6.502   6.059  18.842  0.00  0.00    +0.000 OA
ENDBRANCH   1  23
TORSDOF 2
ENDMDL
MODEL 2
REMARK VINA RESULT:      -7.8      1.085      1.105
REMARK  Name = 
REMARK  3 active torsions:
REMARK  status: ('A' for Active; 'I' for Inactive)
REMARK    1  A    between atoms: C_1  and  O_2
REMARK    2  A    between atoms: O_2  and  C_3
REMARK    3  A    between atoms: C_4  and  C_5
REMARK                            x       y       z     vdW  Elec       q    Type
REMARK                         _______ _______ _______ _____ _____    ______ ____
ROOT
ATOM      1  C   UNL     1       5.932   4.194  17.667  0.00  0.00    +0.000 A 
ATOM      2  C   UNL     1       4.699   3.847  17.240  0.00  0.00    +0.000 A 
ATOM      3  O   UNL     1       4.314   3.715  15.915  0.00  0.00    +0.000 OA
ATOM      4  C   UNL     1       5.243   3.951  14.936  0.00  0.00    +0.000 A 
ATOM      5  C   UNL     1       4.840   3.791  13.610  0.00  0.00    +0.000 A 
ATOM      6  C   UNL     1       5.743   4.040  12.571  0.00  0.00    +0.000 A 
ATOM      7  C   UNL     1       7.046   4.450  12.856  0.00  0.00    +0.000 A 
ATOM      8  C   UNL     1       7.450   4.596  14.181  0.00  0.00    +0.000 A 
ATOM      9  C   UNL     1       6.544   4.341  15.217  0.00  0.00    +0.000 A 
ATOM     10  C   UNL     1       6.964   4.472  16.618  0.00  0.00    +0.000 A 
ATOM     11  O   UNL     1       8.120   4.792  16.866  0.00  0.00    +0.000 OA
ENDROOT
BRANCH   2  12
ATOM     12  C   UNL     1       3.596   3.545  18.180  0.00  0.00    +0.000 A 
ATOM     13  C   UNL     1       3.200   2.203  18.299  0.00  0.00    +0.000 A 
ATOM     14  C   UNL     1       2.129   1.847  19.114  0.00  0.00    +0.000 A 
ATOM     15  C   UNL     1       1.444   2.828  19.825  0.00  0.00    +0.000 A 
ATOM     16  C   UNL     1       1.829   4.175  19.750  0.00  0.00    +0.000 A 
ATOM     17  C   UNL     1       1.138   5.144  20.494  0.00  0.00    +0.000 A 
ATOM     18  C   UNL     1       1.508   6.485  20.446  0.00  0.00    +0.000 A 
ATOM     19  C   UNL     1       2.576   6.877  19.647  0.00  0.00    +0.000 A 
ATOM     20  C   UNL     1       3.268   5.927  18.893  0.00  0.00    +0.000 A 
ATOM     21  C   UNL     1       2.921   4.554  18.922  0.00  0.00    +0.000 A 
ENDBRANCH   2  12
BRANCH   1  23
ATOM     22  C   UNL     1       6.776   5.468  19.490  0.00  0.00    +0.000 C 
ATOM     23  O   UNL     1       6.221   4.244  19.024  0.00  0.00    +0.000 OA
ENDBRANCH   1  23
TORSDOF 2
ENDMDL
MODEL 3
REMARK VINA RESULT:      -7.6      1.170      2.471
REMARK  Name = 
REMARK  3 active torsions:
REMARK  status: ('A' for Active; 'I' for Inactive)
REMARK    1  A    between atoms: C_1  and  O_2
REMARK    2  A    between atoms: O_2  and  C_3
REMARK    3  A    between atoms: C_4  and  C_5
REMARK                            x       y       z     vdW  Elec       q    Type
REMARK                         _______ _______ _______ _____ _____    ______ ____
ROOT
ATOM      1  C   UNL     1       6.047   5.784  16.705  0.00  0.00    +0.000 A 
ATOM      2  C   UNL     1       4.842   5.195  16.543  0.00  0.00    +0.000 A 
ATOM      3  O   UNL     1       4.448   4.465  15.433  0.00  0.00    +0.000 OA
ATOM      4  C   UNL     1       5.334   4.312  14.400  0.00  0.00    +0.000 A 
ATOM      5  C   UNL     1       4.924   3.555  13.302  0.00  0.00    +0.000 A 
ATOM      6  C   UNL     1       5.783   3.384  12.211  0.00  0.00    +0.000 A 
ATOM      7  C   UNL     1       7.048   3.972  12.215  0.00  0.00    +0.000 A 
ATOM      8  C   UNL     1       7.461   4.717  13.318  0.00  0.00    +0.000 A 
ATOM      9  C   UNL     1       6.599   4.879  14.409  0.00  0.00    +0.000 A 
ATOM     10  C   UNL     1       7.031   5.645  15.586  0.00  0.00    +0.000 A 
ATOM     11  O   UNL     1       8.157   6.125  15.605  0.00  0.00    +0.000 OA
ENDROOT
BRANCH   2  12
ATOM     12  C   UNL     1       3.787   5.260  17.580  0.00  0.00    +0.000 A 
ATOM     13  C   UNL     1       3.367   6.536  17.991  0.00  0.00    +0.000 A 
ATOM     14  C   UNL     1       2.425   6.681  19.006  0.00  0.00    +0.000 A 
ATOM     15  C   UNL     1       1.888   5.554  19.619  0.00  0.00    +0.000 A 
ATOM     16  C   UNL     1       2.266   4.264  19.215  0.00  0.00    +0.000 A 
ATOM     17  C   UNL     1       1.693   3.140  19.833  0.00  0.00    +0.000 A 
ATOM     18  C   UNL     1       2.043   1.851  19.443  0.00  0.00    +0.000 A 
ATOM     19  C   UNL     1       2.977   1.666  18.429  0.00  0.00    +0.000 A 
ATOM     20  C   UNL     1       3.562   2.774  17.811  0.00  0.00    +0.000 A 
ATOM     21  C   UNL     1       3.226   4.099  18.180  0.00  0.00    +0.000 A 
ENDBRANCH   2  12
BRANCH   1  23
ATOM     22  C   UNL     1       7.165   5.728  18.804  0.00  0.00    +0.000 C 
ATOM     23  O   UNL     1       6.354   6.448  17.885  0.00  0.00    +0.000 OA
ENDBRANCH   1  23
TORSDOF 2
ENDMDL
MODEL 4
REMARK VINA RESULT:      -7.6      1.171      1.522
REMARK  Name = 
REMARK  3 active torsions:
REMARK  status: ('A' for Active; 'I' for Inactive)
REMARK    1  A    between atoms: C_1  and  O_2
REMARK    2  A    between atoms: O_2  and  C_3
REMARK    3  A    between atoms: C_4  and  C_5
REMARK                            x       y       z     vdW  Elec       q    Type
REMARK                         _______ _______ _______ _____ _____    ______ ____
ROOT
ATOM      1  C   UNL     1       6.663   5.313  16.337  0.00  0.00    +0.000 A 
ATOM      2  C   UNL     1       5.451   4.721  16.420  0.00  0.00    +0.000 A 
ATOM      3  O   UNL     1       4.811   4.054  15.389  0.00  0.00    +0.000 OA
ATOM      4  C   UNL     1       5.436   3.971  14.173  0.00  0.00    +0.000 A 
ATOM      5  C   UNL     1       4.783   3.275  13.155  0.00  0.00    +0.000 A 
ATOM      6  C   UNL     1       5.368   3.179  11.888  0.00  0.00    +0.000 A 
ATOM      7  C   UNL     1       6.603   3.778  11.637  0.00  0.00    +0.000 A 
ATOM      8  C   UNL     1       7.260   4.462  12.658  0.00  0.00    +0.000 A 
ATOM      9  C   UNL     1       6.672   4.551  13.926  0.00  0.00    +0.000 A 
ATOM     10  C   UNL     1       7.363   5.251  15.016  0.00  0.00    +0.000 A 
ATOM     11  O   UNL     1       8.466   5.740  14.805  0.00  0.00    +0.000 OA
ENDROOT
BRANCH   2  12
ATOM     12  C   UNL     1       4.662   4.714  17.673  0.00  0.00    +0.000 A 
ATOM     13  C   UNL     1       4.719   3.554  18.463  0.00  0.00    +0.000 A 
ATOM     14  C   UNL     1       3.956   3.445  19.622  0.00  0.00    +0.000 A 
ATOM     15  C   UNL     1       3.131   4.496  20.009  0.00  0.00    +0.000 A 
ATOM     16  C   UNL     1       3.069   5.679  19.258  0.00  0.00    +0.000 A 
ATOM     17  C   UNL     1       2.247   6.736  19.681  0.00  0.00    +0.000 A 
ATOM     18  C   UNL     1       2.177   7.925  18.960  0.00  0.00    +0.000 A 
ATOM     19  C   UNL     1       2.929   8.072  17.799  0.00  0.00    +0.000 A 
ATOM     20  C   UNL     1       3.745   7.026  17.360  0.00  0.00    +0.000 A 
ATOM     21  C   UNL     1       3.842   5.806  18.072  0.00  0.00    +0.000 A 
ENDBRANCH   2  12
BRANCH   1  23
ATOM     22  C   UNL     1       7.352   7.326  17.400  0.00  0.00    +0.000 C 
ATOM     23  O   UNL     1       7.234   5.910  17.453  0.00  0.00    +0.000 OA
ENDBRANCH   1  23
TORSDOF 2
ENDMDL
MODEL 5
REMARK VINA RESULT:      -7.5      1.118      2.374
REMARK  Name = 
REMARK  3 active torsions:
REMARK  status: ('A' for Active; 'I' for Inactive)
REMARK    1  A    between atoms: C_1  and  O_2
REMARK    2  A    between atoms: O_2  and  C_3
REMARK    3  A    between atoms: C_4  and  C_5
REMARK                            x       y       z     vdW  Elec       q    Type
REMARK                         _______ _______ _______ _____ _____    ______ ____
ROOT
ATOM      1  C   UNL     1       6.006   4.823  17.932  0.00  0.00    +0.000 A 
ATOM      2  C   UNL     1       4.724   4.985  17.542  0.00  0.00    +0.000 A 
ATOM      3  O   UNL     1       4.256   4.857  16.245  0.00  0.00    +0.000 OA
ATOM      4  C   UNL     1       5.148   4.539  15.255  0.00  0.00    +0.000 A 
ATOM      5  C   UNL     1       4.651   4.392  13.959  0.00  0.00    +0.000 A 
ATOM      6  C   UNL     1       5.523   4.089  12.907  0.00  0.00    +0.000 A 
ATOM      7  C   UNL     1       6.888   3.934  13.149  0.00  0.00    +0.000 A 
ATOM      8  C   UNL     1       7.380   4.068  14.445  0.00  0.00    +0.000 A 
ATOM      9  C   UNL     1       6.503   4.367  15.495  0.00  0.00    +0.000 A 
ATOM     10  C   UNL     1       7.006   4.490  16.869  0.00  0.00    +0.000 A 
ATOM     11  O   UNL     1       8.198   4.313  17.085  0.00  0.00    +0.000 OA
ENDROOT
BRANCH   2  12
ATOM     12  C   UNL     1       3.645   5.314  18.501  0.00  0.00    +0.000 A 
ATOM     13  C   UNL     1       3.393   6.675  18.745  0.00  0.00    +0.000 A 
ATOM     14  C   UNL     1       2.438   7.065  19.680  0.00  0.00    +0.000 A 
ATOM     15  C   UNL     1       1.720   6.101  20.379  0.00  0.00    +0.000 A 
ATOM     16  C   UNL     1       1.927   4.734  20.142  0.00  0.00    +0.000 A 
ATOM     17  C   UNL     1       1.173   3.778  20.843  0.00  0.00    +0.000 A 
ATOM     18  C   UNL     1       1.351   2.416  20.618  0.00  0.00    +0.000 A 
ATOM     19  C   UNL     1       2.293   1.989  19.688  0.00  0.00    +0.000 A 
ATOM     20  C   UNL     1       3.057   2.927  18.989  0.00  0.00    +0.000 A 
ATOM     21  C   UNL     1       2.898   4.319  19.190  0.00  0.00    +0.000 A 
ENDBRANCH   2  12
BRANCH   1  23
ATOM     22  C   UNL     1       7.453   5.781  19.560  0.00  0.00    +0.000 C 
ATOM     23  O   UNL     1       6.355   4.925  19.273  0.00  0.00    +0.000 OA
ENDBRANCH   1  23
TORSDOF 2
ENDMDL
MODEL 6
REMARK VINA RESULT:      -7.4      0.724      2.321
REMARK  Name = 
REMARK  3 active torsions:
REMARK  status: ('A' for Active; 'I' for Inactive)
REMARK    1  A    between atoms: C_1  and  O_2
REMARK    2  A    between atoms: O_2  and  C_3
REMARK    3  A    between atoms: C_4  and  C_5
REMARK                            x       y       z     vdW  Elec       q    Type
REMARK                         _______ _______ _______ _____ _____    ______ ____
ROOT
ATOM      1  C   UNL     1       5.892   5.778  17.305  0.00  0.00    +0.000 A 
ATOM      2  C   UNL     1       4.730   5.118  17.112  0.00  0.00    +0.000 A 
ATOM      3  O   UNL     1       4.383   4.418  15.968  0.00  0.00    +0.000 OA
ATOM      4  C   UNL     1       5.275   4.375  14.930  0.00  0.00    +0.000 A 
ATOM      5  C   UNL     1       4.915   3.646  13.796  0.00  0.00    +0.000 A 
ATOM      6  C   UNL     1       5.781   3.588  12.699  0.00  0.00    +0.000 A 
ATOM      7  C   UNL     1       7.003   4.258  12.733  0.00  0.00    +0.000 A 
ATOM      8  C   UNL     1       7.367   4.975  13.870  0.00  0.00    +0.000 A 
ATOM      9  C   UNL     1       6.499   5.026  14.968  0.00  0.00    +0.000 A 
ATOM     10  C   UNL     1       6.881   5.761  16.180  0.00  0.00    +0.000 A 
ATOM     11  O   UNL     1       7.972   6.315  16.224  0.00  0.00    +0.000 OA
ENDROOT
BRANCH   2  12
ATOM     12  C   UNL     1       3.675   5.061  18.150  0.00  0.00    +0.000 A 
ATOM     13  C   UNL     1       2.703   6.075  18.136  0.00  0.00    +0.000 A 
ATOM     14  C   UNL     1       1.716   6.127  19.116  0.00  0.00    +0.000 A 
ATOM     15  C   UNL     1       1.686   5.164  20.120  0.00  0.00    +0.000 A 
ATOM     16  C   UNL     1       2.625   4.123  20.150  0.00  0.00    +0.000 A 
ATOM     17  C   UNL     1       2.561   3.149  21.160  0.00  0.00    +0.000 A 
ATOM     18  C   UNL     1       3.475   2.100  21.204  0.00  0.00    +0.000 A 
ATOM     19  C   UNL     1       4.471   2.012  20.239  0.00  0.00    +0.000 A 
ATOM     20  C   UNL     1       4.555   2.978  19.234  0.00  0.00    +0.000 A 
ATOM     21  C   UNL     1       3.640   4.056  19.156  0.00  0.00    +0.000 A 
ENDBRANCH   2  12
BRANCH   1  23
ATOM     22  C   UNL     1       7.083   5.738  19.363  0.00  0.00    +0.000 C 
ATOM     23  O   UNL     1       6.156   6.404  18.516  0.00  0.00    +0.000 OA
ENDBRANCH   1  23
TORSDOF 2
ENDMDL
MODEL 7
REMARK VINA RESULT:      -7.4      2.764      6.544
REMARK  Name = 
REMARK  3 active torsions:
REMARK  status: ('A' for Active; 'I' for Inactive)
REMARK    1  A    between atoms: C_1  and  O_2
REMARK    2  A    between atoms: O_2  and  C_3
REMARK    3  A    between atoms: C_4  and  C_5
REMARK                            x       y       z     vdW  Elec       q    Type
REMARK                         _______ _______ _______ _____ _____    ______ ____
ROOT
ATOM      1  C   UNL     1       2.140   6.544  20.010  0.00  0.00    +0.000 A 
ATOM      2  C   UNL     1       2.495   6.693  18.715  0.00  0.00    +0.000 A 
ATOM      3  O   UNL     1       2.339   7.849  17.968  0.00  0.00    +0.000 OA
ATOM      4  C   UNL     1       1.783   8.948  18.567  0.00  0.00    +0.000 A 
ATOM      5  C   UNL     1       1.656  10.108  17.802  0.00  0.00    +0.000 A 
ATOM      6  C   UNL     1       1.075  11.252  18.360  0.00  0.00    +0.000 A 
ATOM      7  C   UNL     1       0.619  11.237  19.678  0.00  0.00    +0.000 A 
ATOM      8  C   UNL     1       0.758  10.082  20.445  0.00  0.00    +0.000 A 
ATOM      9  C   UNL     1       1.345   8.941  19.883  0.00  0.00    +0.000 A 
ATOM     10  C   UNL     1       1.516   7.724  20.687  0.00  0.00    +0.000 A 
ATOM     11  O   UNL     1       1.153   7.726  21.856  0.00  0.00    +0.000 OA
ENDROOT
BRANCH   2  12
ATOM     12  C   UNL     1       3.122   5.599  17.939  0.00  0.00    +0.000 A 
ATOM     13  C   UNL     1       2.333   4.470  17.664  0.00  0.00    +0.000 A 
ATOM     14  C   UNL     1       2.870   3.374  16.995  0.00  0.00    +0.000 A 
ATOM     15  C   UNL     1       4.200   3.394  16.589  0.00  0.00    +0.000 A 
ATOM     16  C   UNL     1       5.010   4.515  16.824  0.00  0.00    +0.000 A 
ATOM     17  C   UNL     1       6.343   4.522  16.384  0.00  0.00    +0.000 A 
ATOM     18  C   UNL     1       7.164   5.627  16.595  0.00  0.00    +0.000 A 
ATOM     19  C   UNL     1       6.661   6.742  17.256  0.00  0.00    +0.000 A 
ATOM     20  C   UNL     1       5.339   6.747  17.708  0.00  0.00    +0.000 A 
ATOM     21  C   UNL     1       4.477   5.643  17.506  0.00  0.00    +0.000 A 
ENDBRANCH   2  12
BRANCH   1  23
ATOM     22  C   UNL     1       1.299   4.445  20.748  0.00  0.00    +0.000 C 
ATOM     23  O   UNL     1       2.391   5.352  20.677  0.00  0.00    +0.000 OA
ENDBRANCH   1  23
TORSDOF 2
ENDMDL
MODEL 8
REMARK VINA RESULT:      -7.1      3.151      6.391
REMARK  Name = 
REMARK  3 active torsions:
REMARK  status: ('A' for Active; 'I' for Inactive)
REMARK    1  A    between atoms: C_1  and  O_2
REMARK    2  A    between atoms: O_2  and  C_3
REMARK    3  A    between atoms: C_4  and  C_5
REMARK                            x       y       z     vdW  Elec       q    Type
REMARK                         _______ _______ _______ _____ _____    ______ ____
ROOT
ATOM      1  C   UNL     1       2.692   7.565  18.155  0.00  0.00    +0.000 A 
ATOM      2  C   UNL     1       2.686   6.771  19.247  0.00  0.00    +0.000 A 
ATOM      3  O   UNL     1       2.061   7.061  20.449  0.00  0.00    +0.000 OA
ATOM      4  C   UNL     1       1.384   8.246  20.566  0.00  0.00    +0.000 A 
ATOM      5  C   UNL     1       0.743   8.507  21.778  0.00  0.00    +0.000 A 
ATOM      6  C   UNL     1       0.054   9.712  21.958  0.00  0.00    +0.000 A 
ATOM      7  C   UNL     1       0.009  10.655  20.931  0.00  0.00    +0.000 A 
ATOM      8  C   UNL     1       0.639  10.387  19.717  0.00  0.00    +0.000 A 
ATOM      9  C   UNL     1       1.322   9.177  19.541  0.00  0.00    +0.000 A 
ATOM     10  C   UNL     1       1.972   8.874  18.260  0.00  0.00    +0.000 A 
ATOM     11  O   UNL     1       1.895   9.685  17.345  0.00  0.00    +0.000 OA
ENDROOT
BRANCH   2  12
ATOM     12  C   UNL     1       3.362   5.453  19.266  0.00  0.00    +0.000 A 
ATOM     13  C   UNL     1       4.758   5.447  19.424  0.00  0.00    +0.000 A 
ATOM     14  C   UNL     1       5.472   4.253  19.388  0.00  0.00    +0.000 A 
ATOM     15  C   UNL     1       4.800   3.050  19.199  0.00  0.00    +0.000 A 
ATOM     16  C   UNL     1       3.404   3.016  19.064  0.00  0.00    +0.000 A 
ATOM     17  C   UNL     1       2.745   1.787  18.897  0.00  0.00    +0.000 A 
ATOM     18  C   UNL     1       1.360   1.727  18.772  0.00  0.00    +0.000 A 
ATOM     19  C   UNL     1       0.612   2.898  18.808  0.00  0.00    +0.000 A 
ATOM     20  C   UNL     1       1.254   4.130  18.964  0.00  0.00    +0.000 A 
ATOM     21  C   UNL     1       2.660   4.227  19.098  0.00  0.00    +0.000 A 
ENDBRANCH   2  12
BRANCH   1  23
ATOM     22  C   UNL     1       4.679   7.504  16.850  0.00  0.00    +0.000 C 
ATOM     23  O   UNL     1       3.309   7.149  16.983  0.00  0.00    +0.000 OA
ENDBRANCH   1  23
TORSDOF 2
ENDMDL
MODEL 9
REMARK VINA RESULT:      -7.0      1.127      1.576
REMARK  Name = 
REMARK  3 active torsions:
REMARK  status: ('A' for Active; 'I' for Inactive)
REMARK    1  A    between atoms: C_1  and  O_2
REMARK    2  A    between atoms: O_2  and  C_3
REMARK    3  A    between atoms: C_4  and  C_5
REMARK                            x       y       z     vdW  Elec       q    Type
REMARK                         _______ _______ _______ _____ _____    ______ ____
ROOT
ATOM      1  C   UNL     1       6.131   4.791  18.030  0.00  0.00    +0.000 A 
ATOM      2  C   UNL     1       4.819   4.902  17.732  0.00  0.00    +0.000 A 
ATOM      3  O   UNL     1       4.264   4.745  16.473  0.00  0.00    +0.000 OA
ATOM      4  C   UNL     1       5.093   4.452  15.423  0.00  0.00    +0.000 A 
ATOM      5  C   UNL     1       4.510   4.275  14.168  0.00  0.00    +0.000 A 
ATOM      6  C   UNL     1       5.314   3.995  13.057  0.00  0.00    +0.000 A 
ATOM      7  C   UNL     1       6.698   3.893  13.201  0.00  0.00    +0.000 A 
ATOM      8  C   UNL     1       7.277   4.056  14.457  0.00  0.00    +0.000 A 
ATOM      9  C   UNL     1       6.467   4.332  15.566  0.00  0.00    +0.000 A 
ATOM     10  C   UNL     1       7.063   4.486  16.899  0.00  0.00    +0.000 A 
ATOM     11  O   UNL     1       8.274   4.354  17.029  0.00  0.00    +0.000 OA
ENDROOT
BRANCH   2  12
ATOM     12  C   UNL     1       3.800   5.200  18.765  0.00  0.00    +0.000 A 
ATOM     13  C   UNL     1       3.521   4.193  19.704  0.00  0.00    +0.000 A 
ATOM     14  C   UNL     1       2.532   4.372  20.666  0.00  0.00    +0.000 A 
ATOM     15  C   UNL     1       1.812   5.562  20.706  0.00  0.00    +0.000 A 
ATOM     16  C   UNL     1       2.081   6.599  19.800  0.00  0.00    +0.000 A 
ATOM     17  C   UNL     1       1.358   7.800  19.874  0.00  0.00    +0.000 A 
ATOM     18  C   UNL     1       1.615   8.848  18.995  0.00  0.00    +0.000 A 
ATOM     19  C   UNL     1       2.599   8.707  18.023  0.00  0.00    +0.000 A 
ATOM     20  C   UNL     1       3.321   7.515  17.930  0.00  0.00    +0.000 A 
ATOM     21  C   UNL     1       3.089   6.431  18.811  0.00  0.00    +0.000 A 
ENDBRANCH   2  12
BRANCH   1  23
ATOM     22  C   UNL     1       7.660   5.809  19.541  0.00  0.00    +0.000 C 
ATOM     23  O   UNL     1       6.571   4.918  19.341  0.00  0.00    +0.000 OA
ENDBRANCH   1  23
TORSDOF 2
ENDMDL
