MODEL 1
REMARK VINA RESULT:      -8.6      0.000      0.000
REMARK  Name = 
REMARK  6 active torsions:
REMARK  status: ('A' for Active; 'I' for Inactive)
REMARK    1  A    between atoms: C_1  and  S_2
REMARK    2  A    between atoms: S_2  and  N_5
REMARK    3  A    between atoms: N_5  and  C_6
REMARK    4  A    between atoms: C_9  and  C_10
REMARK    5  A    between atoms: N_12  and  C_13
REMARK    6  A    between atoms: C_18  and  C_19
REMARK                            x       y       z     vdW  Elec       q    Type
REMARK                         _______ _______ _______ _____ _____    ______ ____
ROOT
ATOM      1  C   UNL     1       2.645   8.003  17.917  0.00  0.00    +0.000 C 
ATOM      2  O   UNL     1       2.846   8.384  16.762  0.00  0.00    +0.000 OA
ATOM      3  N   UNL     1       3.145   6.837  18.458  0.00  0.00    +0.000 N 
ATOM      4  H   UNL     1       2.484   6.415  19.091  0.00  0.00    +0.000 HD
ENDROOT
BRANCH   1   8
ATOM      5  C   UNL     1      -0.075  10.198  20.436  0.00  0.00    +0.000 A 
ATOM      6  C   UNL     1       0.564   9.050  20.905  0.00  0.00    +0.000 A 
ATOM      7  C   UNL     1       1.514   8.400  20.108  0.00  0.00    +0.000 A 
ATOM      8  C   UNL     1       1.839   8.890  18.831  0.00  0.00    +0.000 A 
ATOM      9  C   UNL     1       1.260  10.098  18.411  0.00  0.00    +0.000 A 
ATOM     10  C   UNL     1       0.316  10.754  19.216  0.00  0.00    +0.000 A 
BRANCH   5  11
ATOM     11  N   UNL     1      -1.194  10.741  21.133  0.00  0.00    +0.000 N 
ATOM     12  H   UNL     1      -1.973  10.087  21.260  0.00  0.00    +0.000 HD
BRANCH  11  14
ATOM     13  C   UNL     1      -2.581  12.191  22.903  0.00  0.00    +0.000 C 
ATOM     14  S   UNL     1      -0.939  11.576  22.578  0.00  0.00    +0.000 S 
ATOM     15  O   UNL     1      -0.055  12.691  22.357  0.00  0.00    +0.000 OA
ATOM     16  O   UNL     1      -0.658  10.556  23.564  0.00  0.00    +0.000 OA
ENDBRANCH  11  14
ENDBRANCH   5  11
ENDBRANCH   1   8
BRANCH   3  17
ATOM     17  C   UNL     1       3.939   5.887  17.757  0.00  0.00    +0.000 A 
ATOM     18  C   UNL     1       5.185   6.277  17.244  0.00  0.00    +0.000 A 
ATOM     19  C   UNL     1       5.982   5.391  16.512  0.00  0.00    +0.000 A 
ATOM     20  C   UNL     1       5.559   4.085  16.297  0.00  0.00    +0.000 A 
ATOM     21  C   UNL     1       4.323   3.675  16.792  0.00  0.00    +0.000 A 
ATOM     22  C   UNL     1       3.490   4.572  17.495  0.00  0.00    +0.000 A 
BRANCH  22  23
ATOM     23  C   UNL     1       2.211   3.976  17.986  0.00  0.00    +0.000 C 
ATOM     24  O   UNL     1       1.177   4.241  17.356  0.00  0.00    +0.000 OA
ATOM     25  N   UNL     1       2.179   3.265  19.165  0.00  0.00    +0.000 N 
ATOM     26  C   UNL     1       0.947   2.713  19.691  0.00  0.00    +0.000 C 
ATOM     27  C   UNL     1       1.100   2.838  21.201  0.00  0.00    +0.000 C 
ATOM     28  C   UNL     1       2.595   2.980  21.469  0.00  0.00    +0.000 C 
ATOM     29  C   UNL     1       3.248   3.056  20.108  0.00  0.00    +0.000 C 
ENDBRANCH  22  23
ENDBRANCH   3  17
TORSDOF 5
ENDMDL
MODEL 2
REMARK VINA RESULT:      -8.5      0.807      1.369
REMARK  Name = 
REMARK  6 active torsions:
REMARK  status: ('A' for Active; 'I' for Inactive)
REMARK    1  A    between atoms: C_1  and  S_2
REMARK    2  A    between atoms: S_2  and  N_5
REMARK    3  A    between atoms: N_5  and  C_6
REMARK    4  A    between atoms: C_9  and  C_10
REMARK    5  A    between atoms: N_12  and  C_13
REMARK    6  A    between atoms: C_18  and  C_19
REMARK                            x       y       z     vdW  Elec       q    Type
REMARK                         _______ _______ _______ _____ _____    ______ ____
ROOT
ATOM      1  C   UNL     1       2.392   8.128  18.077  0.00  0.00    +0.000 C 
ATOM      2  O   UNL     1       2.531   8.541  16.924  0.00  0.00    +0.000 OA
ATOM      3  N   UNL     1       2.969   6.980  18.577  0.00  0.00    +0.000 N 
ATOM      4  H   UNL     1       2.355   6.513  19.224  0.00  0.00    +0.000 HD
ENDROOT
BRANCH   1   8
ATOM      5  C   UNL     1       0.493  10.819  20.855  0.00  0.00    +0.000 A 
ATOM      6  C   UNL     1       0.554  11.123  19.495  0.00  0.00    +0.000 A 
ATOM      7  C   UNL     1       1.093  10.198  18.592  0.00  0.00    +0.000 A 
ATOM      8  C   UNL     1       1.575   8.955  19.038  0.00  0.00    +0.000 A 
ATOM      9  C   UNL     1       1.418   8.623  20.392  0.00  0.00    +0.000 A 
ATOM     10  C   UNL     1       0.868   9.548  21.294  0.00  0.00    +0.000 A 
BRANCH   5  11
ATOM     11  N   UNL     1       0.156  11.825  21.808  0.00  0.00    +0.000 N 
ATOM     12  H   UNL     1       0.469  12.768  21.558  0.00  0.00    +0.000 HD
BRANCH  11  14
ATOM     13  C   UNL     1      -1.373  13.460  23.273  0.00  0.00    +0.000 C 
ATOM     14  S   UNL     1      -1.425  11.910  22.395  0.00  0.00    +0.000 S 
ATOM     15  O   UNL     1      -1.662  10.845  23.336  0.00  0.00    +0.000 OA
ATOM     16  O   UNL     1      -2.256  12.102  21.227  0.00  0.00    +0.000 OA
ENDBRANCH  11  14
ENDBRANCH   5  11
ENDBRANCH   1   8
BRANCH   3  17
ATOM     17  C   UNL     1       3.785   6.086  17.828  0.00  0.00    +0.000 A 
ATOM     18  C   UNL     1       5.012   6.537  17.318  0.00  0.00    +0.000 A 
ATOM     19  C   UNL     1       5.827   5.708  16.541  0.00  0.00    +0.000 A 
ATOM     20  C   UNL     1       5.444   4.398  16.278  0.00  0.00    +0.000 A 
ATOM     21  C   UNL     1       4.228   3.929  16.769  0.00  0.00    +0.000 A 
ATOM     22  C   UNL     1       3.376   4.768  17.518  0.00  0.00    +0.000 A 
BRANCH  22  23
ATOM     23  C   UNL     1       2.123   4.111  17.997  0.00  0.00    +0.000 C 
ATOM     24  O   UNL     1       1.079   4.341  17.370  0.00  0.00    +0.000 OA
ATOM     25  N   UNL     1       2.120   3.382  19.166  0.00  0.00    +0.000 N 
ATOM     26  C   UNL     1       0.912   2.771  19.682  0.00  0.00    +0.000 C 
ATOM     27  C   UNL     1       1.058   2.880  21.193  0.00  0.00    +0.000 C 
ATOM     28  C   UNL     1       2.546   3.081  21.466  0.00  0.00    +0.000 C 
ATOM     29  C   UNL     1       3.196   3.205  20.107  0.00  0.00    +0.000 C 
ENDBRANCH  22  23
ENDBRANCH   3  17
TORSDOF 5
ENDMDL
MODEL 3
REMARK VINA RESULT:      -8.4      1.129      1.487
REMARK  Name = 
REMARK  6 active torsions:
REMARK  status: ('A' for Active; 'I' for Inactive)
REMARK    1  A    between atoms: C_1  and  S_2
REMARK    2  A    between atoms: S_2  and  N_5
REMARK    3  A    between atoms: N_5  and  C_6
REMARK    4  A    between atoms: C_9  and  C_10
REMARK    5  A    between atoms: N_12  and  C_13
REMARK    6  A    between atoms: C_18  and  C_19
REMARK                            x       y       z     vdW  Elec       q    Type
REMARK                         _______ _______ _______ _____ _____    ______ ____
ROOT
ATOM      1  C   UNL     1       2.163   8.212  18.285  0.00  0.00    +0.000 C 
ATOM      2  O   UNL     1       2.404   8.780  17.219  0.00  0.00    +0.000 OA
ATOM      3  N   UNL     1       2.712   7.009  18.677  0.00  0.00    +0.000 N 
ATOM      4  H   UNL     1       2.048   6.453  19.190  0.00  0.00    +0.000 HD
ENDROOT
BRANCH   1   8
ATOM      5  C   UNL     1      -0.128  10.584  21.057  0.00  0.00    +0.000 A 
ATOM      6  C   UNL     1      -0.250  10.778  19.681  0.00  0.00    +0.000 A 
ATOM      7  C   UNL     1       0.432   9.939  18.791  0.00  0.00    +0.000 A 
ATOM      8  C   UNL     1       1.242   8.893  19.265  0.00  0.00    +0.000 A 
ATOM      9  C   UNL     1       1.279   8.648  20.647  0.00  0.00    +0.000 A 
ATOM     10  C   UNL     1       0.586   9.485  21.537  0.00  0.00    +0.000 A 
BRANCH   5  11
ATOM     11  N   UNL     1      -0.630  11.554  21.973  0.00  0.00    +0.000 N 
ATOM     12  H   UNL     1      -0.435  11.350  22.958  0.00  0.00    +0.000 HD
BRANCH  11  14
ATOM     13  C   UNL     1      -1.002  13.918  23.170  0.00  0.00    +0.000 C 
ATOM     14  S   UNL     1      -0.334  13.192  21.686  0.00  0.00    +0.000 S 
ATOM     15  O   UNL     1      -1.102  13.644  20.554  0.00  0.00    +0.000 OA
ATOM     16  O   UNL     1       1.105  13.335  21.745  0.00  0.00    +0.000 OA
ENDBRANCH  11  14
ENDBRANCH   5  11
ENDBRANCH   1   8
BRANCH   3  17
ATOM     17  C   UNL     1       3.614   6.232  17.896  0.00  0.00    +0.000 A 
ATOM     18  C   UNL     1       4.792   6.822  17.414  0.00  0.00    +0.000 A 
ATOM     19  C   UNL     1       5.687   6.110  16.608  0.00  0.00    +0.000 A 
ATOM     20  C   UNL     1       5.433   4.782  16.286  0.00  0.00    +0.000 A 
ATOM     21  C   UNL     1       4.267   4.176  16.747  0.00  0.00    +0.000 A 
ATOM     22  C   UNL     1       3.335   4.895  17.526  0.00  0.00    +0.000 A 
BRANCH  22  23
ATOM     23  C   UNL     1       2.150   4.100  17.968  0.00  0.00    +0.000 C 
ATOM     24  O   UNL     1       1.109   4.207  17.305  0.00  0.00    +0.000 OA
ATOM     25  N   UNL     1       2.193   3.377  19.140  0.00  0.00    +0.000 N 
ATOM     26  C   UNL     1       1.046   2.632  19.619  0.00  0.00    +0.000 C 
ATOM     27  C   UNL     1       1.128   2.760  21.134  0.00  0.00    +0.000 C 
ATOM     28  C   UNL     1       2.573   3.131  21.454  0.00  0.00    +0.000 C 
ATOM     29  C   UNL     1       3.250   3.326  20.116  0.00  0.00    +0.000 C 
ENDBRANCH  22  23
ENDBRANCH   3  17
TORSDOF 5
ENDMDL
MODEL 4
REMARK VINA RESULT:      -8.4      1.777      2.099
REMARK  Name = 
REMARK  6 active torsions:
REMARK  status: ('A' for Active; 'I' for Inactive)
REMARK    1  A    between atoms: C_1  and  S_2
REMARK    2  A    between atoms: S_2  and  N_5
REMARK    3  A    between atoms: N_5  and  C_6
REMARK    4  A    between atoms: C_9  and  C_10
REMARK    5  A    between atoms: N_12  and  C_13
REMARK    6  A    between atoms: C_18  and  C_19
REMARK                            x       y       z     vdW  Elec       q    Type
REMARK                         _______ _______ _______ _____ _____    ______ ____
ROOT
ATOM      1  C   UNL     1       2.697   7.083  19.098  0.00  0.00    +0.000 C 
ATOM      2  O   UNL     1       3.045   6.370  20.041  0.00  0.00    +0.000 OA
ATOM      3  N   UNL     1       3.061   6.881  17.783  0.00  0.00    +0.000 N 
ATOM      4  H   UNL     1       3.207   7.755  17.305  0.00  0.00    +0.000 HD
ENDROOT
BRANCH   1   8
ATOM      5  C   UNL     1       0.479  10.685  19.912  0.00  0.00    +0.000 A 
ATOM      6  C   UNL     1       0.902  10.385  18.618  0.00  0.00    +0.000 A 
ATOM      7  C   UNL     1       1.542   9.168  18.353  0.00  0.00    +0.000 A 
ATOM      8  C   UNL     1       1.765   8.234  19.379  0.00  0.00    +0.000 A 
ATOM      9  C   UNL     1       1.248   8.506  20.656  0.00  0.00    +0.000 A 
ATOM     10  C   UNL     1       0.598   9.722  20.916  0.00  0.00    +0.000 A 
BRANCH   5  11
ATOM     11  N   UNL     1       0.030  11.998  20.242  0.00  0.00    +0.000 N 
ATOM     12  H   UNL     1       0.778  12.693  20.328  0.00  0.00    +0.000 HD
BRANCH  11  14
ATOM     13  C   UNL     1      -1.852  13.874  20.547  0.00  0.00    +0.000 C 
ATOM     14  S   UNL     1      -1.249  12.675  19.373  0.00  0.00    +0.000 S 
ATOM     15  O   UNL     1      -2.271  11.686  19.143  0.00  0.00    +0.000 OA
ATOM     16  O   UNL     1      -0.629  13.406  18.289  0.00  0.00    +0.000 OA
ENDBRANCH  11  14
ENDBRANCH   5  11
ENDBRANCH   1   8
BRANCH   3  17
ATOM     17  C   UNL     1       3.917   5.839  17.325  0.00  0.00    +0.000 A 
ATOM     18  C   UNL     1       5.181   6.163  16.811  0.00  0.00    +0.000 A 
ATOM     19  C   UNL     1       6.038   5.178  16.311  0.00  0.00    +0.000 A 
ATOM     20  C   UNL     1       5.658   3.841  16.336  0.00  0.00    +0.000 A 
ATOM     21  C   UNL     1       4.406   3.495  16.837  0.00  0.00    +0.000 A 
ATOM     22  C   UNL     1       3.514   4.484  17.306  0.00  0.00    +0.000 A 
BRANCH  22  23
ATOM     23  C   UNL     1       2.222   3.952  17.837  0.00  0.00    +0.000 C 
ATOM     24  O   UNL     1       1.182   4.283  17.250  0.00  0.00    +0.000 OA
ATOM     25  N   UNL     1       2.194   3.228  19.008  0.00  0.00    +0.000 N 
ATOM     26  C   UNL     1       0.953   2.738  19.573  0.00  0.00    +0.000 C 
ATOM     27  C   UNL     1       1.169   2.834  21.078  0.00  0.00    +0.000 C 
ATOM     28  C   UNL     1       2.679   2.889  21.291  0.00  0.00    +0.000 C 
ATOM     29  C   UNL     1       3.284   2.947  19.907  0.00  0.00    +0.000 C 
ENDBRANCH  22  23
ENDBRANCH   3  17
TORSDOF 5
ENDMDL
MODEL 5
REMARK VINA RESULT:      -8.3      1.532      1.901
REMARK  Name = 
REMARK  6 active torsions:
REMARK  status: ('A' for Active; 'I' for Inactive)
REMARK    1  A    between atoms: C_1  and  S_2
REMARK    2  A    between atoms: S_2  and  N_5
REMARK    3  A    between atoms: N_5  and  C_6
REMARK    4  A    between atoms: C_9  and  C_10
REMARK    5  A    between atoms: N_12  and  C_13
REMARK    6  A    between atoms: C_18  and  C_19
REMARK                            x       y       z     vdW  Elec       q    Type
REMARK                         _______ _______ _______ _____ _____    ______ ____
ROOT
ATOM      1  C   UNL     1       2.552   7.182  19.300  0.00  0.00    +0.000 C 
ATOM      2  O   UNL     1       2.975   6.477  20.218  0.00  0.00    +0.000 OA
ATOM      3  N   UNL     1       2.886   7.027  17.971  0.00  0.00    +0.000 N 
ATOM      4  H   UNL     1       2.959   7.918  17.506  0.00  0.00    +0.000 HD
ENDROOT
BRANCH   1   8
ATOM      5  C   UNL     1       0.137  10.616  20.269  0.00  0.00    +0.000 A 
ATOM      6  C   UNL     1       0.561  10.388  18.960  0.00  0.00    +0.000 A 
ATOM      7  C   UNL     1       1.268   9.221  18.644  0.00  0.00    +0.000 A 
ATOM      8  C   UNL     1       1.557   8.265  19.633  0.00  0.00    +0.000 A 
ATOM      9  C   UNL     1       1.041   8.460  20.924  0.00  0.00    +0.000 A 
ATOM     10  C   UNL     1       0.324   9.626  21.236  0.00  0.00    +0.000 A 
BRANCH   5  11
ATOM     11  N   UNL     1      -0.384  11.887  20.652  0.00  0.00    +0.000 N 
ATOM     12  H   UNL     1      -1.108  11.849  21.376  0.00  0.00    +0.000 HD
BRANCH  11  14
ATOM     13  C   UNL     1       0.555  14.131  19.537  0.00  0.00    +0.000 C 
ATOM     14  S   UNL     1       0.687  13.142  21.014  0.00  0.00    +0.000 S 
ATOM     15  O   UNL     1       2.030  12.632  21.121  0.00  0.00    +0.000 OA
ATOM     16  O   UNL     1       0.057  13.881  22.087  0.00  0.00    +0.000 OA
ENDBRANCH  11  14
ENDBRANCH   5  11
ENDBRANCH   1   8
BRANCH   3  17
ATOM     17  C   UNL     1       3.790   6.051  17.466  0.00  0.00    +0.000 A 
ATOM     18  C   UNL     1       5.039   6.460  16.975  0.00  0.00    +0.000 A 
ATOM     19  C   UNL     1       5.944   5.542  16.431  0.00  0.00    +0.000 A 
ATOM     20  C   UNL     1       5.627   4.190  16.388  0.00  0.00    +0.000 A 
ATOM     21  C   UNL     1       4.391   3.760  16.864  0.00  0.00    +0.000 A 
ATOM     22  C   UNL     1       3.452   4.681  17.377  0.00  0.00    +0.000 A 
BRANCH  22  23
ATOM     23  C   UNL     1       2.186   4.064  17.875  0.00  0.00    +0.000 C 
ATOM     24  O   UNL     1       1.139   4.337  17.271  0.00  0.00    +0.000 OA
ATOM     25  N   UNL     1       2.180   3.322  19.035  0.00  0.00    +0.000 N 
ATOM     26  C   UNL     1       0.961   2.748  19.568  0.00  0.00    +0.000 C 
ATOM     27  C   UNL     1       1.140   2.835  21.078  0.00  0.00    +0.000 C 
ATOM     28  C   UNL     1       2.639   2.980  21.323  0.00  0.00    +0.000 C 
ATOM     29  C   UNL     1       3.267   3.095  19.953  0.00  0.00    +0.000 C 
ENDBRANCH  22  23
ENDBRANCH   3  17
TORSDOF 5
ENDMDL
MODEL 6
REMARK VINA RESULT:      -8.3      1.022      1.053
REMARK  Name = 
REMARK  6 active torsions:
REMARK  status: ('A' for Active; 'I' for Inactive)
REMARK    1  A    between atoms: C_1  and  S_2
REMARK    2  A    between atoms: S_2  and  N_5
REMARK    3  A    between atoms: N_5  and  C_6
REMARK    4  A    between atoms: C_9  and  C_10
REMARK    5  A    between atoms: N_12  and  C_13
REMARK    6  A    between atoms: C_18  and  C_19
REMARK                            x       y       z     vdW  Elec       q    Type
REMARK                         _______ _______ _______ _____ _____    ______ ____
ROOT
ATOM      1  C   UNL     1       2.814   6.949  19.285  0.00  0.00    +0.000 C 
ATOM      2  O   UNL     1       3.155   6.139  20.149  0.00  0.00    +0.000 OA
ATOM      3  N   UNL     1       3.117   6.843  17.944  0.00  0.00    +0.000 N 
ATOM      4  H   UNL     1       3.294   7.746  17.536  0.00  0.00    +0.000 HD
ENDROOT
BRANCH   1   8
ATOM      5  C   UNL     1      -0.049   9.948  20.454  0.00  0.00    +0.000 A 
ATOM      6  C   UNL     1       0.455   9.041  21.386  0.00  0.00    +0.000 A 
ATOM      7  C   UNL     1       1.452   8.131  21.012  0.00  0.00    +0.000 A 
ATOM      8  C   UNL     1       1.960   8.119  19.702  0.00  0.00    +0.000 A 
ATOM      9  C   UNL     1       1.514   9.100  18.802  0.00  0.00    +0.000 A 
ATOM     10  C   UNL     1       0.522  10.018  19.182  0.00  0.00    +0.000 A 
BRANCH   5  11
ATOM     11  N   UNL     1      -1.208  10.724  20.751  0.00  0.00    +0.000 N 
ATOM     12  H   UNL     1      -2.077  10.183  20.811  0.00  0.00    +0.000 HD
BRANCH  11  14
ATOM     13  C   UNL     1      -2.441  12.962  21.543  0.00  0.00    +0.000 C 
ATOM     14  S   UNL     1      -1.159  11.824  22.031  0.00  0.00    +0.000 S 
ATOM     15  O   UNL     1       0.105  12.516  22.042  0.00  0.00    +0.000 OA
ATOM     16  O   UNL     1      -1.645  11.093  23.181  0.00  0.00    +0.000 OA
ENDBRANCH  11  14
ENDBRANCH   5  11
ENDBRANCH   1   8
BRANCH   3  17
ATOM     17  C   UNL     1       3.894   5.800  17.364  0.00  0.00    +0.000 A 
ATOM     18  C   UNL     1       5.144   6.104  16.803  0.00  0.00    +0.000 A 
ATOM     19  C   UNL     1       5.923   5.121  16.185  0.00  0.00    +0.000 A 
ATOM     20  C   UNL     1       5.478   3.805  16.135  0.00  0.00    +0.000 A 
ATOM     21  C   UNL     1       4.239   3.480  16.680  0.00  0.00    +0.000 A 
ATOM     22  C   UNL     1       3.423   4.470  17.269  0.00  0.00    +0.000 A 
BRANCH  22  23
ATOM     23  C   UNL     1       2.137   3.960  17.833  0.00  0.00    +0.000 C 
ATOM     24  O   UNL     1       1.087   4.331  17.291  0.00  0.00    +0.000 OA
ATOM     25  N   UNL     1       2.130   3.208  18.987  0.00  0.00    +0.000 N 
ATOM     26  C   UNL     1       0.897   2.737  19.584  0.00  0.00    +0.000 C 
ATOM     27  C   UNL     1       1.167   2.791  21.081  0.00  0.00    +0.000 C 
ATOM     28  C   UNL     1       2.684   2.801  21.243  0.00  0.00    +0.000 C 
ATOM     29  C   UNL     1       3.242   2.877  19.840  0.00  0.00    +0.000 C 
ENDBRANCH  22  23
ENDBRANCH   3  17
TORSDOF 5
ENDMDL
MODEL 7
REMARK VINA RESULT:      -8.3      2.100      2.207
REMARK  Name = 
REMARK  6 active torsions:
REMARK  status: ('A' for Active; 'I' for Inactive)
REMARK    1  A    between atoms: C_1  and  S_2
REMARK    2  A    between atoms: S_2  and  N_5
REMARK    3  A    between atoms: N_5  and  C_6
REMARK    4  A    between atoms: C_9  and  C_10
REMARK    5  A    between atoms: N_12  and  C_13
REMARK    6  A    between atoms: C_18  and  C_19
REMARK                            x       y       z     vdW  Elec       q    Type
REMARK                         _______ _______ _______ _____ _____    ______ ____
ROOT
ATOM      1  C   UNL     1       2.807   7.089  18.989  0.00  0.00    +0.000 C 
ATOM      2  O   UNL     1       3.103   6.374  19.949  0.00  0.00    +0.000 OA
ATOM      3  N   UNL     1       3.180   6.847  17.684  0.00  0.00    +0.000 N 
ATOM      4  H   UNL     1       3.378   7.704  17.194  0.00  0.00    +0.000 HD
ENDROOT
BRANCH   1   8
ATOM      5  C   UNL     1      -0.118  10.181  19.654  0.00  0.00    +0.000 A 
ATOM      6  C   UNL     1       0.270   9.332  20.690  0.00  0.00    +0.000 A 
ATOM      7  C   UNL     1       1.288   8.392  20.482  0.00  0.00    +0.000 A 
ATOM      8  C   UNL     1       1.932   8.291  19.237  0.00  0.00    +0.000 A 
ATOM      9  C   UNL     1       1.599   9.215  18.235  0.00  0.00    +0.000 A 
ATOM     10  C   UNL     1       0.586  10.164  18.448  0.00  0.00    +0.000 A 
BRANCH   5  11
ATOM     11  N   UNL     1      -1.290  10.984  19.775  0.00  0.00    +0.000 N 
ATOM     12  H   UNL     1      -1.136  11.895  20.219  0.00  0.00    +0.000 HD
BRANCH  11  14
ATOM     13  C   UNL     1      -3.695  11.994  19.182  0.00  0.00    +0.000 C 
ATOM     14  S   UNL     1      -2.291  11.193  18.432  0.00  0.00    +0.000 S 
ATOM     15  O   UNL     1      -2.700   9.912  17.915  0.00  0.00    +0.000 OA
ATOM     16  O   UNL     1      -1.622  12.176  17.607  0.00  0.00    +0.000 OA
ENDBRANCH  11  14
ENDBRANCH   5  11
ENDBRANCH   1   8
BRANCH   3  17
ATOM     17  C   UNL     1       3.987   5.754  17.256  0.00  0.00    +0.000 A 
ATOM     18  C   UNL     1       5.262   6.006  16.727  0.00  0.00    +0.000 A 
ATOM     19  C   UNL     1       6.073   4.969  16.255  0.00  0.00    +0.000 A 
ATOM     20  C   UNL     1       5.635   3.652  16.325  0.00  0.00    +0.000 A 
ATOM     21  C   UNL     1       4.371   3.377  16.841  0.00  0.00    +0.000 A 
ATOM     22  C   UNL     1       3.525   4.418  17.281  0.00  0.00    +0.000 A 
BRANCH  22  23
ATOM     23  C   UNL     1       2.215   3.961  17.833  0.00  0.00    +0.000 C 
ATOM     24  O   UNL     1       1.186   4.349  17.262  0.00  0.00    +0.000 OA
ATOM     25  N   UNL     1       2.165   3.240  19.006  0.00  0.00    +0.000 N 
ATOM     26  C   UNL     1       0.907   2.821  19.591  0.00  0.00    +0.000 C 
ATOM     27  C   UNL     1       1.151   2.905  21.092  0.00  0.00    +0.000 C 
ATOM     28  C   UNL     1       2.665   2.875  21.282  0.00  0.00    +0.000 C 
ATOM     29  C   UNL     1       3.251   2.898  19.888  0.00  0.00    +0.000 C 
ENDBRANCH  22  23
ENDBRANCH   3  17
TORSDOF 5
ENDMDL
MODEL 8
REMARK VINA RESULT:      -8.2      1.370      1.480
REMARK  Name = 
REMARK  6 active torsions:
REMARK  status: ('A' for Active; 'I' for Inactive)
REMARK    1  A    between atoms: C_1  and  S_2
REMARK    2  A    between atoms: S_2  and  N_5
REMARK    3  A    between atoms: N_5  and  C_6
REMARK    4  A    between atoms: C_9  and  C_10
REMARK    5  A    between atoms: N_12  and  C_13
REMARK    6  A    between atoms: C_18  and  C_19
REMARK                            x       y       z     vdW  Elec       q    Type
REMARK                         _______ _______ _______ _____ _____    ______ ____
ROOT
ATOM      1  C   UNL     1       2.758   7.124  18.941  0.00  0.00    +0.000 C 
ATOM      2  O   UNL     1       3.072   6.433  19.912  0.00  0.00    +0.000 OA
ATOM      3  N   UNL     1       3.135   6.868  17.640  0.00  0.00    +0.000 N 
ATOM      4  H   UNL     1       3.312   7.722  17.135  0.00  0.00    +0.000 HD
ENDROOT
BRANCH   1   8
ATOM      5  C   UNL     1      -0.233  10.152  19.611  0.00  0.00    +0.000 A 
ATOM      6  C   UNL     1       0.271   9.399  20.672  0.00  0.00    +0.000 A 
ATOM      7  C   UNL     1       1.307   8.483  20.453  0.00  0.00    +0.000 A 
ATOM      8  C   UNL     1       1.855   8.310  19.170  0.00  0.00    +0.000 A 
ATOM      9  C   UNL     1       1.407   9.142  18.132  0.00  0.00    +0.000 A 
ATOM     10  C   UNL     1       0.375  10.067  18.357  0.00  0.00    +0.000 A 
BRANCH   5  11
ATOM     11  N   UNL     1      -1.424  10.919  19.768  0.00  0.00    +0.000 N 
ATOM     12  H   UNL     1      -2.122  10.498  20.388  0.00  0.00    +0.000 HD
BRANCH  11  14
ATOM     13  C   UNL     1      -3.017  12.975  20.395  0.00  0.00    +0.000 C 
ATOM     14  S   UNL     1      -1.304  12.567  20.120  0.00  0.00    +0.000 S 
ATOM     15  O   UNL     1      -0.829  13.286  18.966  0.00  0.00    +0.000 OA
ATOM     16  O   UNL     1      -0.632  12.635  21.399  0.00  0.00    +0.000 OA
ENDBRANCH  11  14
ENDBRANCH   5  11
ENDBRANCH   1   8
BRANCH   3  17
ATOM     17  C   UNL     1       3.966   5.788  17.229  0.00  0.00    +0.000 A 
ATOM     18  C   UNL     1       5.241   6.060  16.710  0.00  0.00    +0.000 A 
ATOM     19  C   UNL     1       6.076   5.034  16.255  0.00  0.00    +0.000 A 
ATOM     20  C   UNL     1       5.663   3.709  16.332  0.00  0.00    +0.000 A 
ATOM     21  C   UNL     1       4.399   3.415  16.839  0.00  0.00    +0.000 A 
ATOM     22  C   UNL     1       3.530   4.443  17.262  0.00  0.00    +0.000 A 
BRANCH  22  23
ATOM     23  C   UNL     1       2.223   3.966  17.806  0.00  0.00    +0.000 C 
ATOM     24  O   UNL     1       1.193   4.320  17.216  0.00  0.00    +0.000 OA
ATOM     25  N   UNL     1       2.175   3.264  18.991  0.00  0.00    +0.000 N 
ATOM     26  C   UNL     1       0.920   2.828  19.569  0.00  0.00    +0.000 C 
ATOM     27  C   UNL     1       1.144   2.944  21.070  0.00  0.00    +0.000 C 
ATOM     28  C   UNL     1       2.655   2.952  21.279  0.00  0.00    +0.000 C 
ATOM     29  C   UNL     1       3.257   2.964  19.892  0.00  0.00    +0.000 C 
ENDBRANCH  22  23
ENDBRANCH   3  17
TORSDOF 5
ENDMDL
MODEL 9
REMARK VINA RESULT:      -8.1      2.559      4.294
REMARK  Name = 
REMARK  6 active torsions:
REMARK  status: ('A' for Active; 'I' for Inactive)
REMARK    1  A    between atoms: C_1  and  S_2
REMARK    2  A    between atoms: S_2  and  N_5
REMARK    3  A    between atoms: N_5  and  C_6
REMARK    4  A    between atoms: C_9  and  C_10
REMARK    5  A    between atoms: N_12  and  C_13
REMARK    6  A    between atoms: C_18  and  C_19
REMARK                            x       y       z     vdW  Elec       q    Type
REMARK                         _______ _______ _______ _____ _____    ______ ____
ROOT
ATOM      1  C   UNL     1       2.050   6.557  19.636  0.00  0.00    +0.000 C 
ATOM      2  O   UNL     1       1.883   6.128  20.779  0.00  0.00    +0.000 OA
ATOM      3  N   UNL     1       2.317   5.775  18.533  0.00  0.00    +0.000 N 
ATOM      4  H   UNL     1       2.954   6.235  17.903  0.00  0.00    +0.000 HD
ENDROOT
BRANCH   1   8
ATOM      5  C   UNL     1       1.105  10.690  18.864  0.00  0.00    +0.000 A 
ATOM      6  C   UNL     1       0.822  10.112  20.102  0.00  0.00    +0.000 A 
ATOM      7  C   UNL     1       1.217   8.795  20.369  0.00  0.00    +0.000 A 
ATOM      8  C   UNL     1       1.903   8.040  19.402  0.00  0.00    +0.000 A 
ATOM      9  C   UNL     1       2.266   8.664  18.199  0.00  0.00    +0.000 A 
ATOM     10  C   UNL     1       1.878   9.988  17.937  0.00  0.00    +0.000 A 
BRANCH   5  11
ATOM     11  N   UNL     1       0.522  11.938  18.497  0.00  0.00    +0.000 N 
ATOM     12  H   UNL     1      -0.463  12.041  18.761  0.00  0.00    +0.000 HD
BRANCH  11  14
ATOM     13  C   UNL     1       0.012  14.553  18.737  0.00  0.00    +0.000 C 
ATOM     14  S   UNL     1       1.339  13.370  18.862  0.00  0.00    +0.000 S 
ATOM     15  O   UNL     1       2.320  13.654  17.846  0.00  0.00    +0.000 OA
ATOM     16  O   UNL     1       1.691  13.261  20.261  0.00  0.00    +0.000 OA
ENDBRANCH  11  14
ENDBRANCH   5  11
ENDBRANCH   1   8
BRANCH   3  17
ATOM     17  C   UNL     1       2.471   4.359  18.556  0.00  0.00    +0.000 A 
ATOM     18  C   UNL     1       1.330   3.543  18.542  0.00  0.00    +0.000 A 
ATOM     19  C   UNL     1       1.430   2.149  18.606  0.00  0.00    +0.000 A 
ATOM     20  C   UNL     1       2.678   1.540  18.660  0.00  0.00    +0.000 A 
ATOM     21  C   UNL     1       3.825   2.330  18.681  0.00  0.00    +0.000 A 
ATOM     22  C   UNL     1       3.737   3.738  18.660  0.00  0.00    +0.000 A 
BRANCH  22  23
ATOM     23  C   UNL     1       5.054   4.443  18.658  0.00  0.00    +0.000 C 
ATOM     24  O   UNL     1       5.353   5.102  19.664  0.00  0.00    +0.000 OA
ATOM     25  N   UNL     1       5.839   4.452  17.526  0.00  0.00    +0.000 N 
ATOM     26  C   UNL     1       7.100   5.165  17.478  0.00  0.00    +0.000 C 
ATOM     27  C   UNL     1       7.179   5.680  16.047  0.00  0.00    +0.000 C 
ATOM     28  C   UNL     1       6.222   4.818  15.228  0.00  0.00    +0.000 C 
ATOM     29  C   UNL     1       5.532   3.917  16.226  0.00  0.00    +0.000 C 
ENDBRANCH  22  23
ENDBRANCH   3  17
TORSDOF 5
ENDMDL
