MODEL 1
REMARK VINA RESULT:      -6.0      0.000      0.000
REMARK  Name = 
REMARK  5 active torsions:
REMARK  status: ('A' for Active; 'I' for Inactive)
REMARK    1  A    between atoms: C_2  and  C_3
REMARK    2  A    between atoms: C_4  and  C_5
REMARK    3  A    between atoms: C_11  and  C_12
REMARK    4  A    between atoms: N_18  and  C_19
REMARK    5  A    between atoms: C_26  and  N_27
REMARK                            x       y       z     vdW  Elec       q    Type
REMARK                         _______ _______ _______ _____ _____    ______ ____
ROOT
ATOM      1  C   UNL     1      -3.121  11.219  17.605  0.00  0.00    +0.000 A 
ATOM      2  C   UNL     1      -2.090  11.495  18.547  0.00  0.00    +0.000 A 
ATOM      3  C   UNL     1      -2.676  12.193  19.622  0.00  0.00    +0.000 A 
ATOM      4  N   UNL     1      -4.067  12.321  19.335  0.00  0.00    +0.000 N 
ATOM      5  C   UNL     1      -4.316  11.713  18.091  0.00  0.00    +0.000 A 
ENDROOT
BRANCH   4   6
ATOM      6  C   UNL     1      -5.071  12.967  20.144  0.00  0.00    +0.000 A 
ATOM      7  C   UNL     1      -5.285  14.352  20.033  0.00  0.00    +0.000 A 
ATOM      8  C   UNL     1      -6.193  15.004  20.875  0.00  0.00    +0.000 A 
ATOM      9  C   UNL     1      -6.866  14.286  21.857  0.00  0.00    +0.000 A 
ATOM     10 CL   UNL     1      -7.917  15.101  22.948  0.00  0.00    +0.000 Cl
ATOM     11  C   UNL     1      -6.679  12.912  21.969  0.00  0.00    +0.000 A 
ATOM     12  C   UNL     1      -5.813  12.250  21.091  0.00  0.00    +0.000 A 
ENDBRANCH   4   6
BRANCH   2  13
ATOM     13  C   UNL     1      -0.668  11.126  18.427  0.00  0.00    +0.000 A 
ATOM     14  C   UNL     1      -0.268   9.804  18.195  0.00  0.00    +0.000 A 
ATOM     15  C   UNL     1       1.084   9.477  18.046  0.00  0.00    +0.000 A 
ATOM     16  C   UNL     1       2.063  10.456  18.186  0.00  0.00    +0.000 A 
ATOM     17  C   UNL     1       1.689  11.767  18.461  0.00  0.00    +0.000 A 
ATOM     18  C   UNL     1       0.334  12.103  18.563  0.00  0.00    +0.000 A 
ENDBRANCH   2  13
BRANCH   3  19
ATOM     19  C   UNL     1      -2.016  12.761  20.825  0.00  0.00    +0.000 A 
ATOM     20  C   UNL     1      -1.630  14.109  20.884  0.00  0.00    +0.000 A 
ATOM     21  C   UNL     1      -1.103  14.658  22.057  0.00  0.00    +0.000 A 
ATOM     22  C   UNL     1      -0.859  13.843  23.159  0.00  0.00    +0.000 A 
ATOM     23  C   UNL     1      -1.154  12.485  23.091  0.00  0.00    +0.000 A 
ATOM     24  C   UNL     1      -1.754  11.953  21.944  0.00  0.00    +0.000 A 
ENDBRANCH   3  19
BRANCH   5  25
ATOM     25  N   UNL     1      -5.550  11.586  17.538  0.00  0.00    +0.000 N 
ATOM     26  H   UNL     1      -5.720  10.935  16.771  0.00  0.00    +0.000 HD
ATOM     27  H   UNL     1      -6.183  12.387  17.491  0.00  0.00    +0.000 HD
ENDBRANCH   5  25
BRANCH   1  29
ATOM     28  N   UNL     1      -2.859   9.929  15.369  0.00  0.00    +0.000 NA
ATOM     29  C   UNL     1      -3.000  10.523  16.357  0.00  0.00    +0.000 C 
ENDBRANCH   1  29
TORSDOF 5
ENDMDL
MODEL 2
REMARK VINA RESULT:      -5.9      2.541      4.179
REMARK  Name = 
REMARK  5 active torsions:
REMARK  status: ('A' for Active; 'I' for Inactive)
REMARK    1  A    between atoms: C_2  and  C_3
REMARK    2  A    between atoms: C_4  and  C_5
REMARK    3  A    between atoms: C_11  and  C_12
REMARK    4  A    between atoms: N_18  and  C_19
REMARK    5  A    between atoms: C_26  and  N_27
REMARK                            x       y       z     vdW  Elec       q    Type
REMARK                         _______ _______ _______ _____ _____    ______ ____
ROOT
ATOM      1  C   UNL     1      -4.901  12.239  19.594  0.00  0.00    +0.000 A 
ATOM      2  C   UNL     1      -3.628  11.982  19.012  0.00  0.00    +0.000 A 
ATOM      3  C   UNL     1      -2.659  12.601  19.826  0.00  0.00    +0.000 A 
ATOM      4  N   UNL     1      -3.349  13.217  20.911  0.00  0.00    +0.000 N 
ATOM      5  C   UNL     1      -4.725  12.979  20.747  0.00  0.00    +0.000 A 
ENDROOT
BRANCH   4   6
ATOM      6  C   UNL     1      -2.774  13.975  21.996  0.00  0.00    +0.000 A 
ATOM      7  C   UNL     1      -2.697  15.376  21.917  0.00  0.00    +0.000 A 
ATOM      8  C   UNL     1      -2.061  16.114  22.922  0.00  0.00    +0.000 A 
ATOM      9  C   UNL     1      -1.467  15.457  23.994  0.00  0.00    +0.000 A 
ATOM     10 CL   UNL     1      -0.612  16.356  25.185  0.00  0.00    +0.000 Cl
ATOM     11  C   UNL     1      -1.549  14.071  24.096  0.00  0.00    +0.000 A 
ATOM     12  C   UNL     1      -2.232  13.337  23.120  0.00  0.00    +0.000 A 
ENDBRANCH   4   6
BRANCH   2  13
ATOM     13  C   UNL     1      -3.363  11.212  17.783  0.00  0.00    +0.000 A 
ATOM     14  C   UNL     1      -2.415  10.182  17.749  0.00  0.00    +0.000 A 
ATOM     15  C   UNL     1      -2.204   9.437  16.584  0.00  0.00    +0.000 A 
ATOM     16  C   UNL     1      -2.893   9.749  15.416  0.00  0.00    +0.000 A 
ATOM     17  C   UNL     1      -3.806  10.798  15.417  0.00  0.00    +0.000 A 
ATOM     18  C   UNL     1      -4.052  11.513  16.595  0.00  0.00    +0.000 A 
ENDBRANCH   2  13
BRANCH   3  19
ATOM     19  C   UNL     1      -1.190  12.680  19.618  0.00  0.00    +0.000 A 
ATOM     20  C   UNL     1      -0.621  13.630  18.756  0.00  0.00    +0.000 A 
ATOM     21  C   UNL     1       0.767  13.762  18.646  0.00  0.00    +0.000 A 
ATOM     22  C   UNL     1       1.608  12.879  19.317  0.00  0.00    +0.000 A 
ATOM     23  C   UNL     1       1.060  11.874  20.109  0.00  0.00    +0.000 A 
ATOM     24  C   UNL     1      -0.326  11.793  20.281  0.00  0.00    +0.000 A 
ENDBRANCH   3  19
BRANCH   5  25
ATOM     25  N   UNL     1      -5.677  13.363  21.638  0.00  0.00    +0.000 N 
ATOM     26  H   UNL     1      -5.647  14.284  22.077  0.00  0.00    +0.000 HD
ATOM     27  H   UNL     1      -6.125  12.676  22.246  0.00  0.00    +0.000 HD
ENDBRANCH   5  25
BRANCH   1  29
ATOM     28  N   UNL     1      -7.223  11.496  18.705  0.00  0.00    +0.000 NA
ATOM     29  C   UNL     1      -6.182  11.803  19.121  0.00  0.00    +0.000 C 
ENDBRANCH   1  29
TORSDOF 5
ENDMDL
MODEL 3
REMARK VINA RESULT:      -5.9      0.098      1.310
REMARK  Name = 
REMARK  5 active torsions:
REMARK  status: ('A' for Active; 'I' for Inactive)
REMARK    1  A    between atoms: C_2  and  C_3
REMARK    2  A    between atoms: C_4  and  C_5
REMARK    3  A    between atoms: C_11  and  C_12
REMARK    4  A    between atoms: N_18  and  C_19
REMARK    5  A    between atoms: C_26  and  N_27
REMARK                            x       y       z     vdW  Elec       q    Type
REMARK                         _______ _______ _______ _____ _____    ______ ____
ROOT
ATOM      1  C   UNL     1      -3.129  11.241  17.600  0.00  0.00    +0.000 A 
ATOM      2  C   UNL     1      -2.092  11.531  18.531  0.00  0.00    +0.000 A 
ATOM      3  C   UNL     1      -2.675  12.226  19.609  0.00  0.00    +0.000 A 
ATOM      4  N   UNL     1      -4.069  12.338  19.335  0.00  0.00    +0.000 N 
ATOM      5  C   UNL     1      -4.324  11.723  18.096  0.00  0.00    +0.000 A 
ENDROOT
BRANCH   4   6
ATOM      6  C   UNL     1      -5.073  12.977  20.151  0.00  0.00    +0.000 A 
ATOM      7  C   UNL     1      -5.267  14.367  20.075  0.00  0.00    +0.000 A 
ATOM      8  C   UNL     1      -6.174  15.010  20.925  0.00  0.00    +0.000 A 
ATOM      9  C   UNL     1      -6.866  14.275  21.882  0.00  0.00    +0.000 A 
ATOM     10 CL   UNL     1      -7.916  15.076  22.984  0.00  0.00    +0.000 Cl
ATOM     11  C   UNL     1      -6.699  12.896  21.960  0.00  0.00    +0.000 A 
ATOM     12  C   UNL     1      -5.833  12.245  21.073  0.00  0.00    +0.000 A 
ENDBRANCH   4   6
BRANCH   2  13
ATOM     13  C   UNL     1      -0.667  11.176  18.398  0.00  0.00    +0.000 A 
ATOM     14  C   UNL     1       0.343  12.144  18.469  0.00  0.00    +0.000 A 
ATOM     15  C   UNL     1       1.692  11.784  18.379  0.00  0.00    +0.000 A 
ATOM     16  C   UNL     1       2.051  10.458  18.156  0.00  0.00    +0.000 A 
ATOM     17  C   UNL     1       1.061   9.488  18.037  0.00  0.00    +0.000 A 
ATOM     18  C   UNL     1      -0.286   9.841  18.175  0.00  0.00    +0.000 A 
ENDBRANCH   2  13
BRANCH   3  19
ATOM     19  C   UNL     1      -2.010  12.805  20.804  0.00  0.00    +0.000 A 
ATOM     20  C   UNL     1      -1.865  12.071  21.991  0.00  0.00    +0.000 A 
ATOM     21  C   UNL     1      -1.148  12.588  23.076  0.00  0.00    +0.000 A 
ATOM     22  C   UNL     1      -0.651  13.887  23.027  0.00  0.00    +0.000 A 
ATOM     23  C   UNL     1      -0.861  14.663  21.891  0.00  0.00    +0.000 A 
ATOM     24  C   UNL     1      -1.509  14.117  20.778  0.00  0.00    +0.000 A 
ENDBRANCH   3  19
BRANCH   5  25
ATOM     25  N   UNL     1      -5.563  11.582  17.555  0.00  0.00    +0.000 N 
ATOM     26  H   UNL     1      -5.846  10.709  17.108  0.00  0.00    +0.000 HD
ATOM     27  H   UNL     1      -6.043  12.383  17.143  0.00  0.00    +0.000 HD
ENDBRANCH   5  25
BRANCH   1  29
ATOM     28  N   UNL     1      -2.862   9.974  15.351  0.00  0.00    +0.000 NA
ATOM     29  C   UNL     1      -3.013  10.541  16.354  0.00  0.00    +0.000 C 
ENDBRANCH   1  29
TORSDOF 5
ENDMDL
MODEL 4
REMARK VINA RESULT:      -5.9      2.556      4.350
REMARK  Name = 
REMARK  5 active torsions:
REMARK  status: ('A' for Active; 'I' for Inactive)
REMARK    1  A    between atoms: C_2  and  C_3
REMARK    2  A    between atoms: C_4  and  C_5
REMARK    3  A    between atoms: C_11  and  C_12
REMARK    4  A    between atoms: N_18  and  C_19
REMARK    5  A    between atoms: C_26  and  N_27
REMARK                            x       y       z     vdW  Elec       q    Type
REMARK                         _______ _______ _______ _____ _____    ______ ____
ROOT
ATOM      1  C   UNL     1      -4.866  12.314  19.712  0.00  0.00    +0.000 A 
ATOM      2  C   UNL     1      -3.600  12.061  19.115  0.00  0.00    +0.000 A 
ATOM      3  C   UNL     1      -2.623  12.691  19.911  0.00  0.00    +0.000 A 
ATOM      4  N   UNL     1      -3.302  13.310  21.001  0.00  0.00    +0.000 N 
ATOM      5  C   UNL     1      -4.679  13.062  20.859  0.00  0.00    +0.000 A 
ENDROOT
BRANCH   4   6
ATOM      6  C   UNL     1      -2.717  14.077  22.074  0.00  0.00    +0.000 A 
ATOM      7  C   UNL     1      -2.658  15.479  21.990  0.00  0.00    +0.000 A 
ATOM      8  C   UNL     1      -2.014  16.228  22.981  0.00  0.00    +0.000 A 
ATOM      9  C   UNL     1      -1.392  15.581  24.044  0.00  0.00    +0.000 A 
ATOM     10 CL   UNL     1      -0.527  16.494  25.216  0.00  0.00    +0.000 Cl
ATOM     11  C   UNL     1      -1.455  14.195  24.151  0.00  0.00    +0.000 A 
ATOM     12  C   UNL     1      -2.147  13.450  23.189  0.00  0.00    +0.000 A 
ENDBRANCH   4   6
BRANCH   2  13
ATOM     13  C   UNL     1      -3.348  11.285  17.887  0.00  0.00    +0.000 A 
ATOM     14  C   UNL     1      -4.035  11.548  16.695  0.00  0.00    +0.000 A 
ATOM     15  C   UNL     1      -3.756  10.827  15.529  0.00  0.00    +0.000 A 
ATOM     16  C   UNL     1      -2.829   9.791  15.550  0.00  0.00    +0.000 A 
ATOM     17  C   UNL     1      -2.168   9.483  16.735  0.00  0.00    +0.000 A 
ATOM     18  C   UNL     1      -2.412  10.236  17.889  0.00  0.00    +0.000 A 
ENDBRANCH   2  13
BRANCH   3  19
ATOM     19  C   UNL     1      -1.158  12.778  19.682  0.00  0.00    +0.000 A 
ATOM     20  C   UNL     1      -0.265  11.886  20.297  0.00  0.00    +0.000 A 
ATOM     21  C   UNL     1       1.100  11.911  19.996  0.00  0.00    +0.000 A 
ATOM     22  C   UNL     1       1.610  12.894  19.153  0.00  0.00    +0.000 A 
ATOM     23  C   UNL     1       0.753  13.841  18.601  0.00  0.00    +0.000 A 
ATOM     24  C   UNL     1      -0.624  13.767  18.841  0.00  0.00    +0.000 A 
ENDBRANCH   3  19
BRANCH   5  25
ATOM     25  N   UNL     1      -5.621  13.446  21.760  0.00  0.00    +0.000 N 
ATOM     26  H   UNL     1      -6.536  13.778  21.457  0.00  0.00    +0.000 HD
ATOM     27  H   UNL     1      -5.346  13.871  22.647  0.00  0.00    +0.000 HD
ENDBRANCH   5  25
BRANCH   1  29
ATOM     28  N   UNL     1      -7.191  11.545  18.853  0.00  0.00    +0.000 NA
ATOM     29  C   UNL     1      -6.151  11.866  19.259  0.00  0.00    +0.000 C 
ENDBRANCH   1  29
TORSDOF 5
ENDMDL
MODEL 5
REMARK VINA RESULT:      -5.9      2.448      4.326
REMARK  Name = 
REMARK  5 active torsions:
REMARK  status: ('A' for Active; 'I' for Inactive)
REMARK    1  A    between atoms: C_2  and  C_3
REMARK    2  A    between atoms: C_4  and  C_5
REMARK    3  A    between atoms: C_11  and  C_12
REMARK    4  A    between atoms: N_18  and  C_19
REMARK    5  A    between atoms: C_26  and  N_27
REMARK                            x       y       z     vdW  Elec       q    Type
REMARK                         _______ _______ _______ _____ _____    ______ ____
ROOT
ATOM      1  C   UNL     1      -4.835  12.203  19.435  0.00  0.00    +0.000 A 
ATOM      2  C   UNL     1      -3.584  11.908  18.824  0.00  0.00    +0.000 A 
ATOM      3  C   UNL     1      -2.576  12.470  19.632  0.00  0.00    +0.000 A 
ATOM      4  N   UNL     1      -3.221  13.089  20.742  0.00  0.00    +0.000 N 
ATOM      5  C   UNL     1      -4.608  12.910  20.600  0.00  0.00    +0.000 A 
ENDROOT
BRANCH   4   6
ATOM      6  C   UNL     1      -2.596  13.799  21.832  0.00  0.00    +0.000 A 
ATOM      7  C   UNL     1      -2.174  13.104  22.979  0.00  0.00    +0.000 A 
ATOM      8  C   UNL     1      -1.649  13.793  24.079  0.00  0.00    +0.000 A 
ATOM      9  C   UNL     1      -1.576  15.181  24.056  0.00  0.00    +0.000 A 
ATOM     10 CL   UNL     1      -1.012  16.033  25.440  0.00  0.00    +0.000 Cl
ATOM     11  C   UNL     1      -1.975  15.883  22.923  0.00  0.00    +0.000 A 
ATOM     12  C   UNL     1      -2.448  15.192  21.802  0.00  0.00    +0.000 A 
ENDBRANCH   4   6
BRANCH   2  13
ATOM     13  C   UNL     1      -3.374  11.155  17.574  0.00  0.00    +0.000 A 
ATOM     14  C   UNL     1      -4.000  11.525  16.377  0.00  0.00    +0.000 A 
ATOM     15  C   UNL     1      -3.759  10.822  15.192  0.00  0.00    +0.000 A 
ATOM     16  C   UNL     1      -2.936   9.701  15.195  0.00  0.00    +0.000 A 
ATOM     17  C   UNL     1      -2.341   9.289  16.383  0.00  0.00    +0.000 A 
ATOM     18  C   UNL     1      -2.544  10.021  17.559  0.00  0.00    +0.000 A 
ENDBRANCH   2  13
BRANCH   3  19
ATOM     19  C   UNL     1      -1.110  12.494  19.397  0.00  0.00    +0.000 A 
ATOM     20  C   UNL     1      -0.515  13.457  18.568  0.00  0.00    +0.000 A 
ATOM     21  C   UNL     1       0.876  13.534  18.434  0.00  0.00    +0.000 A 
ATOM     22  C   UNL     1       1.688  12.585  19.048  0.00  0.00    +0.000 A 
ATOM     23  C   UNL     1       1.111  11.570  19.804  0.00  0.00    +0.000 A 
ATOM     24  C   UNL     1      -0.274  11.541  20.001  0.00  0.00    +0.000 A 
ENDBRANCH   3  19
BRANCH   5  25
ATOM     25  N   UNL     1      -5.527  13.312  21.517  0.00  0.00    +0.000 N 
ATOM     26  H   UNL     1      -6.426  12.838  21.605  0.00  0.00    +0.000 HD
ATOM     27  H   UNL     1      -5.598  14.296  21.783  0.00  0.00    +0.000 HD
ENDBRANCH   5  25
BRANCH   1  29
ATOM     28  N   UNL     1      -7.193  11.475  18.633  0.00  0.00    +0.000 NA
ATOM     29  C   UNL     1      -6.142  11.829  18.977  0.00  0.00    +0.000 C 
ENDBRANCH   1  29
TORSDOF 5
ENDMDL
MODEL 6
REMARK VINA RESULT:      -5.9      2.417      4.287
REMARK  Name = 
REMARK  5 active torsions:
REMARK  status: ('A' for Active; 'I' for Inactive)
REMARK    1  A    between atoms: C_2  and  C_3
REMARK    2  A    between atoms: C_4  and  C_5
REMARK    3  A    between atoms: C_11  and  C_12
REMARK    4  A    between atoms: N_18  and  C_19
REMARK    5  A    between atoms: C_26  and  N_27
REMARK                            x       y       z     vdW  Elec       q    Type
REMARK                         _______ _______ _______ _____ _____    ______ ____
ROOT
ATOM      1  C   UNL     1      -4.903  12.192  19.377  0.00  0.00    +0.000 A 
ATOM      2  C   UNL     1      -3.624  11.876  18.837  0.00  0.00    +0.000 A 
ATOM      3  C   UNL     1      -2.655  12.427  19.699  0.00  0.00    +0.000 A 
ATOM      4  N   UNL     1      -3.351  13.059  20.769  0.00  0.00    +0.000 N 
ATOM      5  C   UNL     1      -4.731  12.901  20.550  0.00  0.00    +0.000 A 
ENDROOT
BRANCH   4   6
ATOM      6  C   UNL     1      -2.778  13.764  21.890  0.00  0.00    +0.000 A 
ATOM      7  C   UNL     1      -2.442  13.069  23.066  0.00  0.00    +0.000 A 
ATOM      8  C   UNL     1      -1.970  13.755  24.190  0.00  0.00    +0.000 A 
ATOM      9  C   UNL     1      -1.865  15.142  24.163  0.00  0.00    +0.000 A 
ATOM     10 CL   UNL     1      -1.366  15.992  25.573  0.00  0.00    +0.000 Cl
ATOM     11  C   UNL     1      -2.177  15.843  23.003  0.00  0.00    +0.000 A 
ATOM     12  C   UNL     1      -2.597  15.153  21.860  0.00  0.00    +0.000 A 
ENDBRANCH   4   6
BRANCH   2  13
ATOM     13  C   UNL     1      -3.355  11.116  17.603  0.00  0.00    +0.000 A 
ATOM     14  C   UNL     1      -2.502  10.005  17.594  0.00  0.00    +0.000 A 
ATOM     15  C   UNL     1      -2.288   9.273  16.421  0.00  0.00    +0.000 A 
ATOM     16  C   UNL     1      -2.875   9.673  15.226  0.00  0.00    +0.000 A 
ATOM     17  C   UNL     1      -3.690  10.800  15.204  0.00  0.00    +0.000 A 
ATOM     18  C   UNL     1      -3.942  11.505  16.387  0.00  0.00    +0.000 A 
ENDBRANCH   2  13
BRANCH   3  19
ATOM     19  C   UNL     1      -1.177  12.428  19.547  0.00  0.00    +0.000 A 
ATOM     20  C   UNL     1      -0.371  11.484  20.202  0.00  0.00    +0.000 A 
ATOM     21  C   UNL     1       1.008  11.430  19.972  0.00  0.00    +0.000 A 
ATOM     22  C   UNL     1       1.617  12.384  19.163  0.00  0.00    +0.000 A 
ATOM     23  C   UNL     1       0.846  13.382  18.573  0.00  0.00    +0.000 A 
ATOM     24  C   UNL     1      -0.543  13.387  18.741  0.00  0.00    +0.000 A 
ENDBRANCH   3  19
BRANCH   5  25
ATOM     25  N   UNL     1      -5.694  13.320  21.413  0.00  0.00    +0.000 N 
ATOM     26  H   UNL     1      -6.396  12.673  21.773  0.00  0.00    +0.000 HD
ATOM     27  H   UNL     1      -6.058  14.272  21.361  0.00  0.00    +0.000 HD
ENDBRANCH   5  25
BRANCH   1  29
ATOM     28  N   UNL     1      -7.249  11.595  18.441  0.00  0.00    +0.000 NA
ATOM     29  C   UNL     1      -6.187  11.836  18.847  0.00  0.00    +0.000 C 
ENDBRANCH   1  29
TORSDOF 5
ENDMDL
MODEL 7
REMARK VINA RESULT:      -5.8      3.078      5.923
REMARK  Name = 
REMARK  5 active torsions:
REMARK  status: ('A' for Active; 'I' for Inactive)
REMARK    1  A    between atoms: C_2  and  C_3
REMARK    2  A    between atoms: C_4  and  C_5
REMARK    3  A    between atoms: C_11  and  C_12
REMARK    4  A    between atoms: N_18  and  C_19
REMARK    5  A    between atoms: C_26  and  N_27
REMARK                            x       y       z     vdW  Elec       q    Type
REMARK                         _______ _______ _______ _____ _____    ______ ____
ROOT
ATOM      1  C   UNL     1      -5.767  12.372  20.844  0.00  0.00    +0.000 A 
ATOM      2  C   UNL     1      -4.428  12.724  21.174  0.00  0.00    +0.000 A 
ATOM      3  C   UNL     1      -3.608  12.320  20.102  0.00  0.00    +0.000 A 
ATOM      4  N   UNL     1      -4.458  11.740  19.116  0.00  0.00    +0.000 N 
ATOM      5  C   UNL     1      -5.780  11.785  19.593  0.00  0.00    +0.000 A 
ENDROOT
BRANCH   4   6
ATOM      6  C   UNL     1      -4.067  11.178  17.845  0.00  0.00    +0.000 A 
ATOM      7  C   UNL     1      -3.106  10.153  17.790  0.00  0.00    +0.000 A 
ATOM      8  C   UNL     1      -2.654   9.664  16.560  0.00  0.00    +0.000 A 
ATOM      9  C   UNL     1      -3.129  10.218  15.376  0.00  0.00    +0.000 A 
ATOM     10 CL   UNL     1      -2.511   9.676  13.866  0.00  0.00    +0.000 Cl
ATOM     11  C   UNL     1      -4.093  11.222  15.413  0.00  0.00    +0.000 A 
ATOM     12  C   UNL     1      -4.586  11.674  16.642  0.00  0.00    +0.000 A 
ENDBRANCH   4   6
BRANCH   2  13
ATOM     13  C   UNL     1      -3.974  13.387  22.410  0.00  0.00    +0.000 A 
ATOM     14  C   UNL     1      -3.915  12.706  23.633  0.00  0.00    +0.000 A 
ATOM     15  C   UNL     1      -3.446  13.341  24.788  0.00  0.00    +0.000 A 
ATOM     16  C   UNL     1      -3.085  14.684  24.754  0.00  0.00    +0.000 A 
ATOM     17  C   UNL     1      -3.179  15.391  23.560  0.00  0.00    +0.000 A 
ATOM     18  C   UNL     1      -3.603  14.743  22.394  0.00  0.00    +0.000 A 
ENDBRANCH   2  13
BRANCH   3  19
ATOM     19  C   UNL     1      -2.130  12.404  19.986  0.00  0.00    +0.000 A 
ATOM     20  C   UNL     1      -1.512  13.327  19.129  0.00  0.00    +0.000 A 
ATOM     21  C   UNL     1      -0.120  13.468  19.103  0.00  0.00    +0.000 A 
ATOM     22  C   UNL     1       0.680  12.617  19.859  0.00  0.00    +0.000 A 
ATOM     23  C   UNL     1       0.089  11.636  20.649  0.00  0.00    +0.000 A 
ATOM     24  C   UNL     1      -1.304  11.548  20.735  0.00  0.00    +0.000 A 
ENDBRANCH   3  19
BRANCH   5  25
ATOM     25  N   UNL     1      -6.863  11.382  18.879  0.00  0.00    +0.000 N 
ATOM     26  H   UNL     1      -7.448  12.055  18.383  0.00  0.00    +0.000 HD
ATOM     27  H   UNL     1      -7.402  10.566  19.172  0.00  0.00    +0.000 HD
ENDBRANCH   5  25
BRANCH   1  29
ATOM     28  N   UNL     1      -7.901  12.717  22.279  0.00  0.00    +0.000 NA
ATOM     29  C   UNL     1      -6.947  12.593  21.627  0.00  0.00    +0.000 C 
ENDBRANCH   1  29
TORSDOF 5
ENDMDL
MODEL 8
REMARK VINA RESULT:      -5.8      3.100      5.970
REMARK  Name = 
REMARK  5 active torsions:
REMARK  status: ('A' for Active; 'I' for Inactive)
REMARK    1  A    between atoms: C_2  and  C_3
REMARK    2  A    between atoms: C_4  and  C_5
REMARK    3  A    between atoms: C_11  and  C_12
REMARK    4  A    between atoms: N_18  and  C_19
REMARK    5  A    between atoms: C_26  and  N_27
REMARK                            x       y       z     vdW  Elec       q    Type
REMARK                         _______ _______ _______ _____ _____    ______ ____
ROOT
ATOM      1  C   UNL     1      -5.678  12.277  20.615  0.00  0.00    +0.000 A 
ATOM      2  C   UNL     1      -4.381  12.690  21.032  0.00  0.00    +0.000 A 
ATOM      3  C   UNL     1      -3.481  12.357  20.000  0.00  0.00    +0.000 A 
ATOM      4  N   UNL     1      -4.240  11.759  18.953  0.00  0.00    +0.000 N 
ATOM      5  C   UNL     1      -5.587  11.722  19.353  0.00  0.00    +0.000 A 
ENDROOT
BRANCH   4   6
ATOM      6  C   UNL     1      -3.747  11.252  17.695  0.00  0.00    +0.000 A 
ATOM      7  C   UNL     1      -4.291  11.716  16.484  0.00  0.00    +0.000 A 
ATOM      8  C   UNL     1      -3.885  11.167  15.262  0.00  0.00    +0.000 A 
ATOM      9  C   UNL     1      -2.962  10.127  15.242  0.00  0.00    +0.000 A 
ATOM     10 CL   UNL     1      -2.528   9.395  13.748  0.00  0.00    +0.000 Cl
ATOM     11  C   UNL     1      -2.402   9.668  16.430  0.00  0.00    +0.000 A 
ATOM     12  C   UNL     1      -2.766  10.254  17.648  0.00  0.00    +0.000 A 
ENDBRANCH   4   6
BRANCH   2  13
ATOM     13  C   UNL     1      -4.035  13.344  22.307  0.00  0.00    +0.000 A 
ATOM     14  C   UNL     1      -3.900  12.615  23.495  0.00  0.00    +0.000 A 
ATOM     15  C   UNL     1      -3.534  13.247  24.689  0.00  0.00    +0.000 A 
ATOM     16  C   UNL     1      -3.356  14.626  24.727  0.00  0.00    +0.000 A 
ATOM     17  C   UNL     1      -3.530  15.374  23.567  0.00  0.00    +0.000 A 
ATOM     18  C   UNL     1      -3.850  14.736  22.363  0.00  0.00    +0.000 A 
ENDBRANCH   2  13
BRANCH   3  19
ATOM     19  C   UNL     1      -2.005  12.522  19.973  0.00  0.00    +0.000 A 
ATOM     20  C   UNL     1      -1.151  11.592  20.586  0.00  0.00    +0.000 A 
ATOM     21  C   UNL     1       0.239  11.702  20.467  0.00  0.00    +0.000 A 
ATOM     22  C   UNL     1       0.799  12.799  19.820  0.00  0.00    +0.000 A 
ATOM     23  C   UNL     1      -0.031  13.778  19.281  0.00  0.00    +0.000 A 
ATOM     24  C   UNL     1      -1.421  13.627  19.332  0.00  0.00    +0.000 A 
ENDBRANCH   3  19
BRANCH   5  25
ATOM     25  N   UNL     1      -6.605  11.281  18.568  0.00  0.00    +0.000 N 
ATOM     26  H   UNL     1      -7.242  11.935  18.114  0.00  0.00    +0.000 HD
ATOM     27  H   UNL     1      -7.065  10.391  18.767  0.00  0.00    +0.000 HD
ENDBRANCH   5  25
BRANCH   1  29
ATOM     28  N   UNL     1      -7.916  12.469  21.914  0.00  0.00    +0.000 NA
ATOM     29  C   UNL     1      -6.911  12.415  21.334  0.00  0.00    +0.000 C 
ENDBRANCH   1  29
TORSDOF 5
ENDMDL
MODEL 9
REMARK VINA RESULT:      -5.7      3.016      6.043
REMARK  Name = 
REMARK  5 active torsions:
REMARK  status: ('A' for Active; 'I' for Inactive)
REMARK    1  A    between atoms: C_2  and  C_3
REMARK    2  A    between atoms: C_4  and  C_5
REMARK    3  A    between atoms: C_11  and  C_12
REMARK    4  A    between atoms: N_18  and  C_19
REMARK    5  A    between atoms: C_26  and  N_27
REMARK                            x       y       z     vdW  Elec       q    Type
REMARK                         _______ _______ _______ _____ _____    ______ ____
ROOT
ATOM      1  C   UNL     1      -5.667  12.544  20.988  0.00  0.00    +0.000 A 
ATOM      2  C   UNL     1      -4.317  12.888  21.281  0.00  0.00    +0.000 A 
ATOM      3  C   UNL     1      -3.526  12.456  20.198  0.00  0.00    +0.000 A 
ATOM      4  N   UNL     1      -4.404  11.868  19.242  0.00  0.00    +0.000 N 
ATOM      5  C   UNL     1      -5.714  11.935  19.749  0.00  0.00    +0.000 A 
ENDROOT
BRANCH   4   6
ATOM      6  C   UNL     1      -4.049  11.280  17.973  0.00  0.00    +0.000 A 
ATOM      7  C   UNL     1      -3.102  10.242  17.915  0.00  0.00    +0.000 A 
ATOM      8  C   UNL     1      -2.683   9.726  16.683  0.00  0.00    +0.000 A 
ATOM      9  C   UNL     1      -3.178  10.266  15.501  0.00  0.00    +0.000 A 
ATOM     10 CL   UNL     1      -2.599   9.691  13.987  0.00  0.00    +0.000 Cl
ATOM     11  C   UNL     1      -4.127  11.282  15.541  0.00  0.00    +0.000 A 
ATOM     12  C   UNL     1      -4.588  11.761  16.773  0.00  0.00    +0.000 A 
ENDBRANCH   4   6
BRANCH   2  13
ATOM     13  C   UNL     1      -3.828  13.569  22.494  0.00  0.00    +0.000 A 
ATOM     14  C   UNL     1      -3.314  14.871  22.451  0.00  0.00    +0.000 A 
ATOM     15  C   UNL     1      -2.889  15.515  23.618  0.00  0.00    +0.000 A 
ATOM     16  C   UNL     1      -2.915  14.847  24.838  0.00  0.00    +0.000 A 
ATOM     17  C   UNL     1      -3.380  13.537  24.895  0.00  0.00    +0.000 A 
ATOM     18  C   UNL     1      -3.849  12.909  23.735  0.00  0.00    +0.000 A 
ENDBRANCH   2  13
BRANCH   3  19
ATOM     19  C   UNL     1      -2.050  12.524  20.046  0.00  0.00    +0.000 A 
ATOM     20  C   UNL     1      -1.201  11.643  20.734  0.00  0.00    +0.000 A 
ATOM     21  C   UNL     1       0.179  11.648  20.507  0.00  0.00    +0.000 A 
ATOM     22  C   UNL     1       0.744  12.601  19.664  0.00  0.00    +0.000 A 
ATOM     23  C   UNL     1      -0.073  13.540  19.040  0.00  0.00    +0.000 A 
ATOM     24  C   UNL     1      -1.461  13.484  19.207  0.00  0.00    +0.000 A 
ENDBRANCH   3  19
BRANCH   5  25
ATOM     25  N   UNL     1      -6.818  11.529  19.067  0.00  0.00    +0.000 N 
ATOM     26  H   UNL     1      -6.872  10.595  18.661  0.00  0.00    +0.000 HD
ATOM     27  H   UNL     1      -7.373  12.199  18.533  0.00  0.00    +0.000 HD
ENDBRANCH   5  25
BRANCH   1  29
ATOM     28  N   UNL     1      -7.762  13.045  22.435  0.00  0.00    +0.000 NA
ATOM     29  C   UNL     1      -6.826  12.790  21.795  0.00  0.00    +0.000 C 
ENDBRANCH   1  29
TORSDOF 5
ENDMDL
