MODEL 1
REMARK VINA RESULT:      -7.9      0.000      0.000
REMARK  Name = 
REMARK  10 active torsions:
REMARK  status: ('A' for Active; 'I' for Inactive)
REMARK    1  A    between atoms: C_1  and  C_2
REMARK    2  A    between atoms: C_2  and  C_3
REMARK    3  A    between atoms: C_2  and  N_4
REMARK    4  A    between atoms: C_5  and  C_7
REMARK    5  A    between atoms: C_7  and  O_8
REMARK    6  A    between atoms: O_8  and  C_9
REMARK    7  A    between atoms: C_13  and  C_14
REMARK    8  A    between atoms: C_16  and  C_17
REMARK    9  A    between atoms: C_17  and  C_18
REMARK   10  A    between atoms: C_17  and  C_19
REMARK                            x       y       z     vdW  Elec       q    Type
REMARK                         _______ _______ _______ _____ _____    ______ ____
ROOT
ATOM      1  C   UNL     1       6.532   5.893  16.504  0.00  0.00    +0.000 A 
ATOM      2  C   UNL     1       7.549   6.510  17.233  0.00  0.00    +0.000 A 
ATOM      3  C   UNL     1       7.619   6.346  18.614  0.00  0.00    +0.000 A 
ATOM      4  C   UNL     1       6.687   5.542  19.271  0.00  0.00    +0.000 A 
ATOM      5  C   UNL     1       5.682   4.872  18.552  0.00  0.00    +0.000 A 
ATOM      6  C   UNL     1       5.617   5.062  17.163  0.00  0.00    +0.000 A 
ENDROOT
BRANCH   5   7
ATOM      7  C   UNL     1       4.745   3.977  19.219  0.00  0.00    +0.000 A 
ATOM      8  N   UNL     1       3.431   4.019  19.296  0.00  0.00    +0.000 NA
ATOM      9  C   UNL     1       3.142   2.859  19.976  0.00  0.00    +0.000 A 
ATOM     10  N   UNL     1       4.208   2.134  20.334  0.00  0.00    +0.000 NA
ATOM     11  O   UNL     1       5.277   2.875  19.833  0.00  0.00    +0.000 OA
BRANCH   9  12
ATOM     12  C   UNL     1       1.748   2.403  20.248  0.00  0.00    +0.000 C 
ATOM     13  C   UNL     1       1.271   2.842  21.631  0.00  0.00    +0.000 C 
ATOM     14  C   UNL     1       0.789   2.895  19.162  0.00  0.00    +0.000 C 
ENDBRANCH   9  12
ENDBRANCH   5   7
BRANCH   1  15
ATOM     15  O   UNL     1       6.350   6.020  15.152  0.00  0.00    +0.000 OA
BRANCH  15  16
ATOM     16  C   UNL     1       7.104   5.119  14.340  0.00  0.00    +0.000 C 
BRANCH  16  18
ATOM     17  N   UNL     1       6.255   3.671  12.567  0.00  0.00    +0.000 N 
ATOM     18  C   UNL     1       6.283   3.901  13.923  0.00  0.00    +0.000 C 
ATOM     19  O   UNL     1       5.723   3.183  14.748  0.00  0.00    +0.000 OA
ATOM     20  H   UNL     1       6.625   4.411  11.976  0.00  0.00    +0.000 HD
BRANCH  17  22
ATOM     21  C   UNL     1       4.304   3.092  11.202  0.00  0.00    +0.000 C 
ATOM     22  C   UNL     1       5.515   2.574  11.970  0.00  0.00    +0.000 C 
ATOM     23  C   UNL     1       6.436   1.767  11.063  0.00  0.00    +0.000 C 
ENDBRANCH  17  22
ENDBRANCH  16  18
ENDBRANCH  15  16
ENDBRANCH   1  15
TORSDOF 6
ENDMDL
MODEL 2
REMARK VINA RESULT:      -7.9      1.765      6.501
REMARK  Name = 
REMARK  10 active torsions:
REMARK  status: ('A' for Active; 'I' for Inactive)
REMARK    1  A    between atoms: C_1  and  C_2
REMARK    2  A    between atoms: C_2  and  C_3
REMARK    3  A    between atoms: C_2  and  N_4
REMARK    4  A    between atoms: C_5  and  C_7
REMARK    5  A    between atoms: C_7  and  O_8
REMARK    6  A    between atoms: O_8  and  C_9
REMARK    7  A    between atoms: C_13  and  C_14
REMARK    8  A    between atoms: C_16  and  C_17
REMARK    9  A    between atoms: C_17  and  C_18
REMARK   10  A    between atoms: C_17  and  C_19
REMARK                            x       y       z     vdW  Elec       q    Type
REMARK                         _______ _______ _______ _____ _____    ______ ____
ROOT
ATOM      1  C   UNL     1       5.401   6.196  17.675  0.00  0.00    +0.000 A 
ATOM      2  C   UNL     1       6.430   5.846  18.550  0.00  0.00    +0.000 A 
ATOM      3  C   UNL     1       7.461   5.014  18.121  0.00  0.00    +0.000 A 
ATOM      4  C   UNL     1       7.483   4.551  16.805  0.00  0.00    +0.000 A 
ATOM      5  C   UNL     1       6.484   4.929  15.892  0.00  0.00    +0.000 A 
ATOM      6  C   UNL     1       5.443   5.754  16.347  0.00  0.00    +0.000 A 
ENDROOT
BRANCH   5   7
ATOM      7  C   UNL     1       6.533   4.505  14.498  0.00  0.00    +0.000 A 
ATOM      8  N   UNL     1       5.800   3.627  13.846  0.00  0.00    +0.000 NA
ATOM      9  C   UNL     1       6.275   3.748  12.562  0.00  0.00    +0.000 A 
ATOM     10  N   UNL     1       7.269   4.631  12.408  0.00  0.00    +0.000 NA
ATOM     11  O   UNL     1       7.445   5.135  13.695  0.00  0.00    +0.000 OA
BRANCH   9  12
ATOM     12  C   UNL     1       5.695   3.002  11.407  0.00  0.00    +0.000 C 
ATOM     13  C   UNL     1       6.042   1.516  11.465  0.00  0.00    +0.000 C 
ATOM     14  C   UNL     1       4.180   3.202  11.331  0.00  0.00    +0.000 C 
ENDBRANCH   9  12
ENDBRANCH   5   7
BRANCH   1  15
ATOM     15  O   UNL     1       4.322   6.974  18.006  0.00  0.00    +0.000 OA
BRANCH  15  16
ATOM     16  C   UNL     1       3.043   6.362  17.831  0.00  0.00    +0.000 C 
BRANCH  16  18
ATOM     17  N   UNL     1       2.728   3.969  18.199  0.00  0.00    +0.000 N 
ATOM     18  C   UNL     1       2.827   5.203  18.800  0.00  0.00    +0.000 C 
ATOM     19  O   UNL     1       2.774   5.374  20.016  0.00  0.00    +0.000 OA
ATOM     20  H   UNL     1       2.635   3.966  17.186  0.00  0.00    +0.000 HD
BRANCH  17  22
ATOM     21  C   UNL     1       1.037   2.332  18.882  0.00  0.00    +0.000 C 
ATOM     22  C   UNL     1       2.504   2.745  18.946  0.00  0.00    +0.000 C 
ATOM     23  C   UNL     1       3.408   1.642  18.410  0.00  0.00    +0.000 C 
ENDBRANCH  17  22
ENDBRANCH  16  18
ENDBRANCH  15  16
ENDBRANCH   1  15
TORSDOF 6
ENDMDL
MODEL 3
REMARK VINA RESULT:      -7.8      1.224      1.606
REMARK  Name = 
REMARK  10 active torsions:
REMARK  status: ('A' for Active; 'I' for Inactive)
REMARK    1  A    between atoms: C_1  and  C_2
REMARK    2  A    between atoms: C_2  and  C_3
REMARK    3  A    between atoms: C_2  and  N_4
REMARK    4  A    between atoms: C_5  and  C_7
REMARK    5  A    between atoms: C_7  and  O_8
REMARK    6  A    between atoms: O_8  and  C_9
REMARK    7  A    between atoms: C_13  and  C_14
REMARK    8  A    between atoms: C_16  and  C_17
REMARK    9  A    between atoms: C_17  and  C_18
REMARK   10  A    between atoms: C_17  and  C_19
REMARK                            x       y       z     vdW  Elec       q    Type
REMARK                         _______ _______ _______ _____ _____    ______ ____
ROOT
ATOM      1  C   UNL     1       6.516   5.828  16.574  0.00  0.00    +0.000 A 
ATOM      2  C   UNL     1       7.650   5.872  17.386  0.00  0.00    +0.000 A 
ATOM      3  C   UNL     1       7.527   5.736  18.767  0.00  0.00    +0.000 A 
ATOM      4  C   UNL     1       6.272   5.529  19.340  0.00  0.00    +0.000 A 
ATOM      5  C   UNL     1       5.122   5.433  18.539  0.00  0.00    +0.000 A 
ATOM      6  C   UNL     1       5.262   5.589  17.151  0.00  0.00    +0.000 A 
ENDROOT
BRANCH   5   7
ATOM      7  C   UNL     1       3.816   5.150  19.121  0.00  0.00    +0.000 A 
ATOM      8  N   UNL     1       3.130   4.028  19.175  0.00  0.00    +0.000 NA
ATOM      9  C   UNL     1       2.036   4.391  19.924  0.00  0.00    +0.000 A 
ATOM     10  N   UNL     1       2.011   5.675  20.302  0.00  0.00    +0.000 NA
ATOM     11  O   UNL     1       3.194   6.184  19.769  0.00  0.00    +0.000 OA
BRANCH   9  12
ATOM     12  C   UNL     1       0.979   3.424  20.339  0.00  0.00    +0.000 C 
ATOM     13  C   UNL     1       0.614   2.465  19.207  0.00  0.00    +0.000 C 
ATOM     14  C   UNL     1       1.405   2.650  21.588  0.00  0.00    +0.000 C 
ENDBRANCH   9  12
ENDBRANCH   5   7
BRANCH   1  15
ATOM     15  O   UNL     1       6.521   5.990  15.214  0.00  0.00    +0.000 OA
BRANCH  15  16
ATOM     16  C   UNL     1       7.093   4.915  14.467  0.00  0.00    +0.000 C 
BRANCH  16  18
ATOM     17  N   UNL     1       6.419   3.333  12.733  0.00  0.00    +0.000 N 
ATOM     18  C   UNL     1       6.025   4.002  13.868  0.00  0.00    +0.000 C 
ATOM     19  O   UNL     1       4.919   3.870  14.388  0.00  0.00    +0.000 OA
ATOM     20  H   UNL     1       7.295   3.633  12.313  0.00  0.00    +0.000 HD
BRANCH  17  22
ATOM     21  C   UNL     1       4.457   3.210  11.270  0.00  0.00    +0.000 C 
ATOM     22  C   UNL     1       5.543   2.432  12.006  0.00  0.00    +0.000 C 
ATOM     23  C   UNL     1       6.363   1.586  11.040  0.00  0.00    +0.000 C 
ENDBRANCH  17  22
ENDBRANCH  16  18
ENDBRANCH  15  16
ENDBRANCH   1  15
TORSDOF 6
ENDMDL
MODEL 4
REMARK VINA RESULT:      -7.8      3.793      4.500
REMARK  Name = 
REMARK  10 active torsions:
REMARK  status: ('A' for Active; 'I' for Inactive)
REMARK    1  A    between atoms: C_1  and  C_2
REMARK    2  A    between atoms: C_2  and  C_3
REMARK    3  A    between atoms: C_2  and  N_4
REMARK    4  A    between atoms: C_5  and  C_7
REMARK    5  A    between atoms: C_7  and  O_8
REMARK    6  A    between atoms: O_8  and  C_9
REMARK    7  A    between atoms: C_13  and  C_14
REMARK    8  A    between atoms: C_16  and  C_17
REMARK    9  A    between atoms: C_17  and  C_18
REMARK   10  A    between atoms: C_17  and  C_19
REMARK                            x       y       z     vdW  Elec       q    Type
REMARK                         _______ _______ _______ _____ _____    ______ ____
ROOT
ATOM      1  C   UNL     1       4.987   5.239  16.825  0.00  0.00    +0.000 A 
ATOM      2  C   UNL     1       4.357   3.996  16.756  0.00  0.00    +0.000 A 
ATOM      3  C   UNL     1       3.104   3.814  17.336  0.00  0.00    +0.000 A 
ATOM      4  C   UNL     1       2.461   4.882  17.962  0.00  0.00    +0.000 A 
ATOM      5  C   UNL     1       3.055   6.156  18.000  0.00  0.00    +0.000 A 
ATOM      6  C   UNL     1       4.326   6.317  17.426  0.00  0.00    +0.000 A 
ENDROOT
BRANCH   5   7
ATOM      7  C   UNL     1       2.363   7.294  18.593  0.00  0.00    +0.000 A 
ATOM      8  N   UNL     1       1.945   7.492  19.825  0.00  0.00    +0.000 NA
ATOM      9  C   UNL     1       1.460   8.777  19.765  0.00  0.00    +0.000 A 
ATOM     10  N   UNL     1       1.540   9.355  18.561  0.00  0.00    +0.000 NA
ATOM     11  O   UNL     1       2.139   8.370  17.777  0.00  0.00    +0.000 OA
BRANCH   9  12
ATOM     12  C   UNL     1       0.937   9.505  20.957  0.00  0.00    +0.000 C 
ATOM     13  C   UNL     1       0.437  10.901  20.592  0.00  0.00    +0.000 C 
ATOM     14  C   UNL     1      -0.164   8.701  21.651  0.00  0.00    +0.000 C 
ENDBRANCH   9  12
ENDBRANCH   5   7
BRANCH   1  15
ATOM     15  O   UNL     1       6.233   5.514  16.324  0.00  0.00    +0.000 OA
BRANCH  15  16
ATOM     16  C   UNL     1       6.907   4.415  15.709  0.00  0.00    +0.000 C 
BRANCH  16  18
ATOM     17  N   UNL     1       6.205   3.496  13.558  0.00  0.00    +0.000 N 
ATOM     18  C   UNL     1       6.886   4.514  14.185  0.00  0.00    +0.000 C 
ATOM     19  O   UNL     1       7.417   5.448  13.588  0.00  0.00    +0.000 OA
ATOM     20  H   UNL     1       5.939   2.706  14.139  0.00  0.00    +0.000 HD
BRANCH  17  22
ATOM     21  C   UNL     1       6.863   2.199  11.585  0.00  0.00    +0.000 C 
ATOM     22  C   UNL     1       6.087   3.401  12.114  0.00  0.00    +0.000 C 
ATOM     23  C   UNL     1       4.616   3.320  11.723  0.00  0.00    +0.000 C 
ENDBRANCH  17  22
ENDBRANCH  16  18
ENDBRANCH  15  16
ENDBRANCH   1  15
TORSDOF 6
ENDMDL
MODEL 5
REMARK VINA RESULT:      -7.7      1.833      6.766
REMARK  Name = 
REMARK  10 active torsions:
REMARK  status: ('A' for Active; 'I' for Inactive)
REMARK    1  A    between atoms: C_1  and  C_2
REMARK    2  A    between atoms: C_2  and  C_3
REMARK    3  A    between atoms: C_2  and  N_4
REMARK    4  A    between atoms: C_5  and  C_7
REMARK    5  A    between atoms: C_7  and  O_8
REMARK    6  A    between atoms: O_8  and  C_9
REMARK    7  A    between atoms: C_13  and  C_14
REMARK    8  A    between atoms: C_16  and  C_17
REMARK    9  A    between atoms: C_17  and  C_18
REMARK   10  A    between atoms: C_17  and  C_19
REMARK                            x       y       z     vdW  Elec       q    Type
REMARK                         _______ _______ _______ _____ _____    ______ ____
ROOT
ATOM      1  C   UNL     1       5.213   5.610  18.537  0.00  0.00    +0.000 A 
ATOM      2  C   UNL     1       6.385   5.640  19.293  0.00  0.00    +0.000 A 
ATOM      3  C   UNL     1       7.588   5.213  18.735  0.00  0.00    +0.000 A 
ATOM      4  C   UNL     1       7.629   4.781  17.409  0.00  0.00    +0.000 A 
ATOM      5  C   UNL     1       6.470   4.788  16.614  0.00  0.00    +0.000 A 
ATOM      6  C   UNL     1       5.264   5.205  17.198  0.00  0.00    +0.000 A 
ENDROOT
BRANCH   5   7
ATOM      7  C   UNL     1       6.515   4.403  15.209  0.00  0.00    +0.000 A 
ATOM      8  N   UNL     1       5.955   3.388  14.583  0.00  0.00    +0.000 NA
ATOM      9  C   UNL     1       6.297   3.629  13.274  0.00  0.00    +0.000 A 
ATOM     10  N   UNL     1       7.053   4.717  13.079  0.00  0.00    +0.000 NA
ATOM     11  O   UNL     1       7.201   5.233  14.364  0.00  0.00    +0.000 OA
BRANCH   9  12
ATOM     12  C   UNL     1       5.821   2.784  12.141  0.00  0.00    +0.000 C 
ATOM     13  C   UNL     1       4.620   3.411  11.436  0.00  0.00    +0.000 C 
ATOM     14  C   UNL     1       6.952   2.514  11.146  0.00  0.00    +0.000 C 
ENDBRANCH   9  12
ENDBRANCH   5   7
BRANCH   1  15
ATOM     15  O   UNL     1       3.974   5.969  19.001  0.00  0.00    +0.000 OA
BRANCH  15  16
ATOM     16  C   UNL     1       2.924   5.954  18.032  0.00  0.00    +0.000 C 
BRANCH  16  18
ATOM     17  N   UNL     1       2.048   4.202  19.489  0.00  0.00    +0.000 N 
ATOM     18  C   UNL     1       1.966   4.785  18.245  0.00  0.00    +0.000 C 
ATOM     19  O   UNL     1       1.175   4.427  17.375  0.00  0.00    +0.000 OA
ATOM     20  H   UNL     1       2.835   4.482  20.068  0.00  0.00    +0.000 HD
BRANCH  17  22
ATOM     21  C   UNL     1       1.698   1.797  19.176  0.00  0.00    +0.000 C 
ATOM     22  C   UNL     1       1.232   3.067  19.881  0.00  0.00    +0.000 C 
ATOM     23  C   UNL     1       1.276   2.901  21.395  0.00  0.00    +0.000 C 
ENDBRANCH  17  22
ENDBRANCH  16  18
ENDBRANCH  15  16
ENDBRANCH   1  15
TORSDOF 6
ENDMDL
MODEL 6
REMARK VINA RESULT:      -7.7      1.484      1.995
REMARK  Name = 
REMARK  10 active torsions:
REMARK  status: ('A' for Active; 'I' for Inactive)
REMARK    1  A    between atoms: C_1  and  C_2
REMARK    2  A    between atoms: C_2  and  C_3
REMARK    3  A    between atoms: C_2  and  N_4
REMARK    4  A    between atoms: C_5  and  C_7
REMARK    5  A    between atoms: C_7  and  O_8
REMARK    6  A    between atoms: O_8  and  C_9
REMARK    7  A    between atoms: C_13  and  C_14
REMARK    8  A    between atoms: C_16  and  C_17
REMARK    9  A    between atoms: C_17  and  C_18
REMARK   10  A    between atoms: C_17  and  C_19
REMARK                            x       y       z     vdW  Elec       q    Type
REMARK                         _______ _______ _______ _____ _____    ______ ____
ROOT
ATOM      1  C   UNL     1       6.594   4.410  16.448  0.00  0.00    +0.000 A 
ATOM      2  C   UNL     1       7.695   4.951  17.114  0.00  0.00    +0.000 A 
ATOM      3  C   UNL     1       7.548   5.478  18.394  0.00  0.00    +0.000 A 
ATOM      4  C   UNL     1       6.305   5.440  19.027  0.00  0.00    +0.000 A 
ATOM      5  C   UNL     1       5.194   4.857  18.396  0.00  0.00    +0.000 A 
ATOM      6  C   UNL     1       5.356   4.346  17.098  0.00  0.00    +0.000 A 
ENDROOT
BRANCH   5   7
ATOM      7  C   UNL     1       3.907   4.753  19.074  0.00  0.00    +0.000 A 
ATOM      8  N   UNL     1       3.071   3.740  19.169  0.00  0.00    +0.000 NA
ATOM      9  C   UNL     1       2.100   4.242  20.003  0.00  0.00    +0.000 A 
ATOM     10  N   UNL     1       2.290   5.507  20.394  0.00  0.00    +0.000 NA
ATOM     11  O   UNL     1       3.491   5.852  19.777  0.00  0.00    +0.000 OA
BRANCH   9  12
ATOM     12  C   UNL     1       0.948   3.429  20.489  0.00  0.00    +0.000 C 
ATOM     13  C   UNL     1       0.411   2.503  19.399  0.00  0.00    +0.000 C 
ATOM     14  C   UNL     1       1.328   2.632  21.738  0.00  0.00    +0.000 C 
ENDBRANCH   9  12
ENDBRANCH   5   7
BRANCH   1  15
ATOM     15  O   UNL     1       6.621   3.903  15.175  0.00  0.00    +0.000 OA
BRANCH  15  16
ATOM     16  C   UNL     1       7.318   4.693  14.211  0.00  0.00    +0.000 C 
BRANCH  16  18
ATOM     17  N   UNL     1       6.035   3.282  12.686  0.00  0.00    +0.000 N 
ATOM     18  C   UNL     1       6.972   4.285  12.780  0.00  0.00    +0.000 C 
ATOM     19  O   UNL     1       7.479   4.838  11.807  0.00  0.00    +0.000 OA
ATOM     20  H   UNL     1       5.799   2.801  13.549  0.00  0.00    +0.000 HD
BRANCH  17  22
ATOM     21  C   UNL     1       5.928   1.261  11.303  0.00  0.00    +0.000 C 
ATOM     22  C   UNL     1       5.585   2.743  11.415  0.00  0.00    +0.000 C 
ATOM     23  C   UNL     1       4.086   2.973  11.261  0.00  0.00    +0.000 C 
ENDBRANCH  17  22
ENDBRANCH  16  18
ENDBRANCH  15  16
ENDBRANCH   1  15
TORSDOF 6
ENDMDL
MODEL 7
REMARK VINA RESULT:      -7.6      0.868      1.162
REMARK  Name = 
REMARK  10 active torsions:
REMARK  status: ('A' for Active; 'I' for Inactive)
REMARK    1  A    between atoms: C_1  and  C_2
REMARK    2  A    between atoms: C_2  and  C_3
REMARK    3  A    between atoms: C_2  and  N_4
REMARK    4  A    between atoms: C_5  and  C_7
REMARK    5  A    between atoms: C_7  and  O_8
REMARK    6  A    between atoms: O_8  and  C_9
REMARK    7  A    between atoms: C_13  and  C_14
REMARK    8  A    between atoms: C_16  and  C_17
REMARK    9  A    between atoms: C_17  and  C_18
REMARK   10  A    between atoms: C_17  and  C_19
REMARK                            x       y       z     vdW  Elec       q    Type
REMARK                         _______ _______ _______ _____ _____    ______ ____
ROOT
ATOM      1  C   UNL     1       6.803   5.513  16.600  0.00  0.00    +0.000 A 
ATOM      2  C   UNL     1       7.734   6.257  17.327  0.00  0.00    +0.000 A 
ATOM      3  C   UNL     1       7.665   6.295  18.718  0.00  0.00    +0.000 A 
ATOM      4  C   UNL     1       6.683   5.568  19.390  0.00  0.00    +0.000 A 
ATOM      5  C   UNL     1       5.765   4.774  18.682  0.00  0.00    +0.000 A 
ATOM      6  C   UNL     1       5.838   4.760  17.280  0.00  0.00    +0.000 A 
ENDROOT
BRANCH   5   7
ATOM      7  C   UNL     1       4.777   3.958  19.377  0.00  0.00    +0.000 A 
ATOM      8  N   UNL     1       3.480   4.129  19.526  0.00  0.00    +0.000 NA
ATOM      9  C   UNL     1       3.110   2.986  20.193  0.00  0.00    +0.000 A 
ATOM     10  N   UNL     1       4.114   2.148  20.477  0.00  0.00    +0.000 NA
ATOM     11  O   UNL     1       5.226   2.792  19.936  0.00  0.00    +0.000 OA
BRANCH   9  12
ATOM     12  C   UNL     1       1.693   2.663  20.529  0.00  0.00    +0.000 C 
ATOM     13  C   UNL     1       1.496   2.489  22.034  0.00  0.00    +0.000 C 
ATOM     14  C   UNL     1       0.743   3.729  19.978  0.00  0.00    +0.000 C 
ENDBRANCH   9  12
ENDBRANCH   5   7
BRANCH   1  15
ATOM     15  O   UNL     1       6.756   5.440  15.233  0.00  0.00    +0.000 OA
BRANCH  15  16
ATOM     16  C   UNL     1       5.660   4.700  14.691  0.00  0.00    +0.000 C 
BRANCH  16  18
ATOM     17  N   UNL     1       4.893   3.563  12.671  0.00  0.00    +0.000 N 
ATOM     18  C   UNL     1       5.950   4.202  13.277  0.00  0.00    +0.000 C 
ATOM     19  O   UNL     1       7.036   4.391  12.732  0.00  0.00    +0.000 OA
ATOM     20  H   UNL     1       4.102   3.334  13.267  0.00  0.00    +0.000 HD
BRANCH  17  22
ATOM     21  C   UNL     1       5.603   1.614  11.366  0.00  0.00    +0.000 C 
ATOM     22  C   UNL     1       4.974   3.003  11.334  0.00  0.00    +0.000 C 
ATOM     23  C   UNL     1       3.585   2.963  10.709  0.00  0.00    +0.000 C 
ENDBRANCH  17  22
ENDBRANCH  16  18
ENDBRANCH  15  16
ENDBRANCH   1  15
TORSDOF 6
ENDMDL
MODEL 8
REMARK VINA RESULT:      -7.5      1.765      7.028
REMARK  Name = 
REMARK  10 active torsions:
REMARK  status: ('A' for Active; 'I' for Inactive)
REMARK    1  A    between atoms: C_1  and  C_2
REMARK    2  A    between atoms: C_2  and  C_3
REMARK    3  A    between atoms: C_2  and  N_4
REMARK    4  A    between atoms: C_5  and  C_7
REMARK    5  A    between atoms: C_7  and  O_8
REMARK    6  A    between atoms: O_8  and  C_9
REMARK    7  A    between atoms: C_13  and  C_14
REMARK    8  A    between atoms: C_16  and  C_17
REMARK    9  A    between atoms: C_17  and  C_18
REMARK   10  A    between atoms: C_17  and  C_19
REMARK                            x       y       z     vdW  Elec       q    Type
REMARK                         _______ _______ _______ _____ _____    ______ ____
ROOT
ATOM      1  C   UNL     1       4.876   5.621  17.825  0.00  0.00    +0.000 A 
ATOM      2  C   UNL     1       5.992   5.589  18.661  0.00  0.00    +0.000 A 
ATOM      3  C   UNL     1       7.210   5.111  18.184  0.00  0.00    +0.000 A 
ATOM      4  C   UNL     1       7.325   4.691  16.859  0.00  0.00    +0.000 A 
ATOM      5  C   UNL     1       6.228   4.760  15.984  0.00  0.00    +0.000 A 
ATOM      6  C   UNL     1       5.003   5.227  16.487  0.00  0.00    +0.000 A 
ENDROOT
BRANCH   5   7
ATOM      7  C   UNL     1       6.354   4.386  14.581  0.00  0.00    +0.000 A 
ATOM      8  N   UNL     1       5.664   3.527  13.860  0.00  0.00    +0.000 NA
ATOM      9  C   UNL     1       6.205   3.697  12.608  0.00  0.00    +0.000 A 
ATOM     10  N   UNL     1       7.199   4.591  12.539  0.00  0.00    +0.000 NA
ATOM     11  O   UNL     1       7.302   5.050  13.850  0.00  0.00    +0.000 OA
BRANCH   9  12
ATOM     12  C   UNL     1       5.694   2.989  11.399  0.00  0.00    +0.000 C 
ATOM     13  C   UNL     1       5.984   1.490  11.458  0.00  0.00    +0.000 C 
ATOM     14  C   UNL     1       4.197   3.243  11.207  0.00  0.00    +0.000 C 
ENDBRANCH   9  12
ENDBRANCH   5   7
BRANCH   1  15
ATOM     15  O   UNL     1       3.625   6.034  18.204  0.00  0.00    +0.000 OA
BRANCH  15  16
ATOM     16  C   UNL     1       3.386   6.065  19.612  0.00  0.00    +0.000 C 
BRANCH  16  18
ATOM     17  N   UNL     1       2.771   3.703  19.704  0.00  0.00    +0.000 N 
ATOM     18  C   UNL     1       2.400   4.983  20.048  0.00  0.00    +0.000 C 
ATOM     19  O   UNL     1       1.379   5.251  20.677  0.00  0.00    +0.000 OA
ATOM     20  H   UNL     1       3.552   3.617  19.059  0.00  0.00    +0.000 HD
BRANCH  17  22
ATOM     21  C   UNL     1       1.407   2.626  21.432  0.00  0.00    +0.000 C 
ATOM     22  C   UNL     1       1.960   2.539  20.013  0.00  0.00    +0.000 C 
ATOM     23  C   UNL     1       0.836   2.411  18.993  0.00  0.00    +0.000 C 
ENDBRANCH  17  22
ENDBRANCH  16  18
ENDBRANCH  15  16
ENDBRANCH   1  15
TORSDOF 6
ENDMDL
MODEL 9
REMARK VINA RESULT:      -7.3      4.129      7.743
REMARK  Name = 
REMARK  10 active torsions:
REMARK  status: ('A' for Active; 'I' for Inactive)
REMARK    1  A    between atoms: C_1  and  C_2
REMARK    2  A    between atoms: C_2  and  C_3
REMARK    3  A    between atoms: C_2  and  N_4
REMARK    4  A    between atoms: C_5  and  C_7
REMARK    5  A    between atoms: C_7  and  O_8
REMARK    6  A    between atoms: O_8  and  C_9
REMARK    7  A    between atoms: C_13  and  C_14
REMARK    8  A    between atoms: C_16  and  C_17
REMARK    9  A    between atoms: C_17  and  C_18
REMARK   10  A    between atoms: C_17  and  C_19
REMARK                            x       y       z     vdW  Elec       q    Type
REMARK                         _______ _______ _______ _____ _____    ______ ____
ROOT
ATOM      1  C   UNL     1       3.404   6.136  18.733  0.00  0.00    +0.000 A 
ATOM      2  C   UNL     1       3.484   5.134  19.702  0.00  0.00    +0.000 A 
ATOM      3  C   UNL     1       4.236   3.987  19.462  0.00  0.00    +0.000 A 
ATOM      4  C   UNL     1       4.935   3.848  18.263  0.00  0.00    +0.000 A 
ATOM      5  C   UNL     1       4.908   4.864  17.292  0.00  0.00    +0.000 A 
ATOM      6  C   UNL     1       4.132   6.006  17.544  0.00  0.00    +0.000 A 
ENDROOT
BRANCH   5   7
ATOM      7  C   UNL     1       5.688   4.758  16.065  0.00  0.00    +0.000 A 
ATOM      8  N   UNL     1       5.563   3.940  15.041  0.00  0.00    +0.000 NA
ATOM      9  C   UNL     1       6.530   4.400  14.180  0.00  0.00    +0.000 A 
ATOM     10  N   UNL     1       7.248   5.433  14.638  0.00  0.00    +0.000 NA
ATOM     11  O   UNL     1       6.692   5.673  15.893  0.00  0.00    +0.000 OA
BRANCH   9  12
ATOM     12  C   UNL     1       6.735   3.839  12.814  0.00  0.00    +0.000 C 
ATOM     13  C   UNL     1       5.424   3.347  12.203  0.00  0.00    +0.000 C 
ATOM     14  C   UNL     1       7.409   4.862  11.897  0.00  0.00    +0.000 C 
ENDBRANCH   9  12
ENDBRANCH   5   7
BRANCH   1  15
ATOM     15  O   UNL     1       2.663   7.282  18.852  0.00  0.00    +0.000 OA
BRANCH  15  16
ATOM     16  C   UNL     1       2.754   8.192  17.754  0.00  0.00    +0.000 C 
BRANCH  16  18
ATOM     17  N   UNL     1       0.904   9.332  18.869  0.00  0.00    +0.000 N 
ATOM     18  C   UNL     1       1.971   9.478  18.012  0.00  0.00    +0.000 C 
ATOM     19  O   UNL     1       2.300  10.549  17.508  0.00  0.00    +0.000 OA
ATOM     20  H   UNL     1       0.640   8.379  19.102  0.00  0.00    +0.000 HD
BRANCH  17  22
ATOM     21  C   UNL     1      -1.193  10.472  18.310  0.00  0.00    +0.000 C 
ATOM     22  C   UNL     1       0.027  10.432  19.226  0.00  0.00    +0.000 C 
ATOM     23  C   UNL     1      -0.388  10.305  20.687  0.00  0.00    +0.000 C 
ENDBRANCH  17  22
ENDBRANCH  16  18
ENDBRANCH  15  16
ENDBRANCH   1  15
TORSDOF 6
ENDMDL
