MODEL 1
REMARK VINA RESULT:      -6.1      0.000      0.000
REMARK  Name = 
REMARK  1 active torsions:
REMARK  status: ('A' for Active; 'I' for Inactive)
REMARK    1  A    between atoms: C_1  and  N_2
REMARK                            x       y       z     vdW  Elec       q    Type
REMARK                         _______ _______ _______ _____ _____    ______ ____
ROOT
ATOM      1  C   UNL     1       6.234   3.898  13.506  0.00  0.00    +0.000 C 
ATOM      2  N   UNL     1       6.263   4.182  14.922  0.00  0.00    +0.000 N 
ATOM      3  C   UNL     1       5.246   3.977  15.817  0.00  0.00    +0.000 A 
ATOM      4  C   UNL     1       5.765   4.383  17.018  0.00  0.00    +0.000 A 
ATOM      5  C   UNL     1       5.208   4.406  18.278  0.00  0.00    +0.000 A 
ATOM      6 CL   UNL     1       3.627   3.908  18.590  0.00  0.00    +0.000 Cl
ATOM      7  N   UNL     1       6.002   4.841  19.276  0.00  0.00    +0.000 NA
ATOM      8  C   UNL     1       7.279   5.206  18.972  0.00  0.00    +0.000 A 
ATOM      9  N   UNL     1       8.055   5.582  20.052  0.00  0.00    +0.000 N 
ATOM     10  N   UNL     1       7.887   5.251  17.762  0.00  0.00    +0.000 NA
ATOM     11  C   UNL     1       7.088   4.808  16.767  0.00  0.00    +0.000 A 
ATOM     12  N   UNL     1       7.385   4.695  15.470  0.00  0.00    +0.000 NA
ATOM     13  H   UNL     1       7.484   5.880  20.830  0.00  0.00    +0.000 HD
ATOM     14  H   UNL     1       8.823   6.173  19.766  0.00  0.00    +0.000 HD
ENDROOT
TORSDOF 0
ENDMDL
MODEL 2
REMARK VINA RESULT:      -5.9      2.298      4.099
REMARK  Name = 
REMARK  1 active torsions:
REMARK  status: ('A' for Active; 'I' for Inactive)
REMARK    1  A    between atoms: C_1  and  N_2
REMARK                            x       y       z     vdW  Elec       q    Type
REMARK                         _______ _______ _______ _____ _____    ______ ____
ROOT
ATOM      1  C   UNL     1       3.556   3.300  19.653  0.00  0.00    +0.000 C 
ATOM      2  N   UNL     1       4.464   3.906  18.706  0.00  0.00    +0.000 N 
ATOM      3  C   UNL     1       5.476   4.784  18.993  0.00  0.00    +0.000 A 
ATOM      4  C   UNL     1       6.049   5.049  17.778  0.00  0.00    +0.000 A 
ATOM      5  C   UNL     1       7.113   5.859  17.441  0.00  0.00    +0.000 A 
ATOM      6 CL   UNL     1       7.965   6.770  18.575  0.00  0.00    +0.000 Cl
ATOM      7  N   UNL     1       7.458   5.882  16.138  0.00  0.00    +0.000 NA
ATOM      8  C   UNL     1       6.752   5.105  15.270  0.00  0.00    +0.000 A 
ATOM      9  N   UNL     1       7.200   5.131  13.962  0.00  0.00    +0.000 N 
ATOM     10  N   UNL     1       5.676   4.318  15.511  0.00  0.00    +0.000 NA
ATOM     11  C   UNL     1       5.339   4.295  16.819  0.00  0.00    +0.000 A 
ATOM     12  N   UNL     1       4.353   3.602  17.396  0.00  0.00    +0.000 NA
ATOM     13  H   UNL     1       7.728   5.971  13.770  0.00  0.00    +0.000 HD
ATOM     14  H   UNL     1       6.469   4.865  13.318  0.00  0.00    +0.000 HD
ENDROOT
TORSDOF 0
ENDMDL
MODEL 3
REMARK VINA RESULT:      -5.9      2.099      3.273
REMARK  Name = 
REMARK  1 active torsions:
REMARK  status: ('A' for Active; 'I' for Inactive)
REMARK    1  A    between atoms: C_1  and  N_2
REMARK                            x       y       z     vdW  Elec       q    Type
REMARK                         _______ _______ _______ _____ _____    ______ ____
ROOT
ATOM      1  C   UNL     1       2.346   2.869  18.076  0.00  0.00    +0.000 C 
ATOM      2  N   UNL     1       3.653   3.483  18.027  0.00  0.00    +0.000 N 
ATOM      3  C   UNL     1       4.429   3.661  16.912  0.00  0.00    +0.000 A 
ATOM      4  C   UNL     1       5.551   4.294  17.378  0.00  0.00    +0.000 A 
ATOM      5  C   UNL     1       6.679   4.732  16.718  0.00  0.00    +0.000 A 
ATOM      6 CL   UNL     1       6.907   4.526  15.060  0.00  0.00    +0.000 Cl
ATOM      7  N   UNL     1       7.607   5.358  17.468  0.00  0.00    +0.000 NA
ATOM      8  C   UNL     1       7.359   5.521  18.798  0.00  0.00    +0.000 A 
ATOM      9  N   UNL     1       8.324   6.225  19.493  0.00  0.00    +0.000 N 
ATOM     10  N   UNL     1       6.302   5.089  19.527  0.00  0.00    +0.000 NA
ATOM     11  C   UNL     1       5.373   4.468  18.769  0.00  0.00    +0.000 A 
ATOM     12  N   UNL     1       4.206   3.953  19.165  0.00  0.00    +0.000 NA
ATOM     13  H   UNL     1       9.216   6.195  19.018  0.00  0.00    +0.000 HD
ATOM     14  H   UNL     1       8.299   6.009  20.479  0.00  0.00    +0.000 HD
ENDROOT
TORSDOF 0
ENDMDL
MODEL 4
REMARK VINA RESULT:      -5.8      1.145      1.145
REMARK  Name = 
REMARK  1 active torsions:
REMARK  status: ('A' for Active; 'I' for Inactive)
REMARK    1  A    between atoms: C_1  and  N_2
REMARK                            x       y       z     vdW  Elec       q    Type
REMARK                         _______ _______ _______ _____ _____    ______ ____
ROOT
ATOM      1  C   UNL     1       6.053   3.679  13.242  0.00  0.00    +0.000 C 
ATOM      2  N   UNL     1       6.257   4.226  14.564  0.00  0.00    +0.000 N 
ATOM      3  C   UNL     1       5.678   3.789  15.726  0.00  0.00    +0.000 A 
ATOM      4  C   UNL     1       6.198   4.609  16.692  0.00  0.00    +0.000 A 
ATOM      5  C   UNL     1       5.988   4.643  18.054  0.00  0.00    +0.000 A 
ATOM      6 CL   UNL     1       4.933   3.591  18.844  0.00  0.00    +0.000 Cl
ATOM      7  N   UNL     1       6.686   5.565  18.745  0.00  0.00    +0.000 NA
ATOM      8  C   UNL     1       7.544   6.372  18.059  0.00  0.00    +0.000 A 
ATOM      9  N   UNL     1       8.272   7.252  18.839  0.00  0.00    +0.000 N 
ATOM     10  N   UNL     1       7.778   6.430  16.727  0.00  0.00    +0.000 NA
ATOM     11  C   UNL     1       7.080   5.499  16.040  0.00  0.00    +0.000 A 
ATOM     12  N   UNL     1       7.102   5.267  14.725  0.00  0.00    +0.000 NA
ATOM     13  H   UNL     1       7.815   7.426  19.723  0.00  0.00    +0.000 HD
ATOM     14  H   UNL     1       8.591   8.043  18.299  0.00  0.00    +0.000 HD
ENDROOT
TORSDOF 0
ENDMDL
MODEL 5
REMARK VINA RESULT:      -5.6      2.426      3.651
REMARK  Name = 
REMARK  1 active torsions:
REMARK  status: ('A' for Active; 'I' for Inactive)
REMARK    1  A    between atoms: C_1  and  N_2
REMARK                            x       y       z     vdW  Elec       q    Type
REMARK                         _______ _______ _______ _____ _____    ______ ____
ROOT
ATOM      1  C   UNL     1       1.463   2.583  18.593  0.00  0.00    +0.000 C 
ATOM      2  N   UNL     1       2.779   3.103  18.299  0.00  0.00    +0.000 N 
ATOM      3  C   UNL     1       3.280   3.400  17.059  0.00  0.00    +0.000 A 
ATOM      4  C   UNL     1       4.542   3.871  17.308  0.00  0.00    +0.000 A 
ATOM      5  C   UNL     1       5.519   4.327  16.449  0.00  0.00    +0.000 A 
ATOM      6 CL   UNL     1       5.321   4.369  14.775  0.00  0.00    +0.000 Cl
ATOM      7  N   UNL     1       6.661   4.761  17.018  0.00  0.00    +0.000 NA
ATOM      8  C   UNL     1       6.757   4.730  18.377  0.00  0.00    +0.000 A 
ATOM      9  N   UNL     1       7.931   5.246  18.894  0.00  0.00    +0.000 N 
ATOM     10  N   UNL     1       5.866   4.264  19.284  0.00  0.00    +0.000 NA
ATOM     11  C   UNL     1       4.721   3.836  18.708  0.00  0.00    +0.000 A 
ATOM     12  N   UNL     1       3.635   3.349  19.313  0.00  0.00    +0.000 NA
ATOM     13  H   UNL     1       8.674   5.229  18.210  0.00  0.00    +0.000 HD
ATOM     14  H   UNL     1       8.119   4.880  19.816  0.00  0.00    +0.000 HD
ENDROOT
TORSDOF 0
ENDMDL
MODEL 6
REMARK VINA RESULT:      -5.6      3.545      4.304
REMARK  Name = 
REMARK  1 active torsions:
REMARK  status: ('A' for Active; 'I' for Inactive)
REMARK    1  A    between atoms: C_1  and  N_2
REMARK                            x       y       z     vdW  Elec       q    Type
REMARK                         _______ _______ _______ _____ _____    ______ ____
ROOT
ATOM      1  C   UNL     1       3.329   7.749  17.673  0.00  0.00    +0.000 C 
ATOM      2  N   UNL     1       3.388   6.458  18.319  0.00  0.00    +0.000 N 
ATOM      3  C   UNL     1       2.340   5.776  18.880  0.00  0.00    +0.000 A 
ATOM      4  C   UNL     1       2.899   4.613  19.339  0.00  0.00    +0.000 A 
ATOM      5  C   UNL     1       2.333   3.537  19.988  0.00  0.00    +0.000 A 
ATOM      6 CL   UNL     1       0.697   3.465  20.388  0.00  0.00    +0.000 Cl
ATOM      7  N   UNL     1       3.160   2.515  20.285  0.00  0.00    +0.000 NA
ATOM      8  C   UNL     1       4.468   2.615  19.915  0.00  0.00    +0.000 A 
ATOM      9  N   UNL     1       5.243   1.505  20.195  0.00  0.00    +0.000 N 
ATOM     10  N   UNL     1       5.107   3.646  19.314  0.00  0.00    +0.000 NA
ATOM     11  C   UNL     1       4.272   4.665  19.014  0.00  0.00    +0.000 A 
ATOM     12  N   UNL     1       4.571   5.811  18.397  0.00  0.00    +0.000 NA
ATOM     13  H   UNL     1       4.840   0.952  20.939  0.00  0.00    +0.000 HD
ATOM     14  H   UNL     1       6.222   1.746  20.254  0.00  0.00    +0.000 HD
ENDROOT
TORSDOF 0
ENDMDL
MODEL 7
REMARK VINA RESULT:      -5.6      2.156      3.569
REMARK  Name = 
REMARK  1 active torsions:
REMARK  status: ('A' for Active; 'I' for Inactive)
REMARK    1  A    between atoms: C_1  and  N_2
REMARK                            x       y       z     vdW  Elec       q    Type
REMARK                         _______ _______ _______ _____ _____    ______ ____
ROOT
ATOM      1  C   UNL     1       3.361   2.565  19.338  0.00  0.00    +0.000 C 
ATOM      2  N   UNL     1       4.211   3.447  18.573  0.00  0.00    +0.000 N 
ATOM      3  C   UNL     1       4.371   3.449  17.212  0.00  0.00    +0.000 A 
ATOM      4  C   UNL     1       5.255   4.468  16.976  0.00  0.00    +0.000 A 
ATOM      5  C   UNL     1       5.787   4.945  15.798  0.00  0.00    +0.000 A 
ATOM      6 CL   UNL     1       5.422   4.278  14.293  0.00  0.00    +0.000 Cl
ATOM      7  N   UNL     1       6.620   5.999  15.900  0.00  0.00    +0.000 NA
ATOM      8  C   UNL     1       6.859   6.515  17.138  0.00  0.00    +0.000 A 
ATOM      9  N   UNL     1       7.673   7.632  17.161  0.00  0.00    +0.000 N 
ATOM     10  N   UNL     1       6.412   6.083  18.342  0.00  0.00    +0.000 NA
ATOM     11  C   UNL     1       5.573   5.031  18.232  0.00  0.00    +0.000 A 
ATOM     12  N   UNL     1       4.936   4.388  19.215  0.00  0.00    +0.000 NA
ATOM     13  H   UNL     1       8.253   7.682  16.336  0.00  0.00    +0.000 HD
ATOM     14  H   UNL     1       8.111   7.749  18.064  0.00  0.00    +0.000 HD
ENDROOT
TORSDOF 0
ENDMDL
MODEL 8
REMARK VINA RESULT:      -5.6      2.258      4.123
REMARK  Name = 
REMARK  1 active torsions:
REMARK  status: ('A' for Active; 'I' for Inactive)
REMARK    1  A    between atoms: C_1  and  N_2
REMARK                            x       y       z     vdW  Elec       q    Type
REMARK                         _______ _______ _______ _____ _____    ______ ____
ROOT
ATOM      1  C   UNL     1       2.370   5.214  19.515  0.00  0.00    +0.000 C 
ATOM      2  N   UNL     1       3.610   5.286  18.778  0.00  0.00    +0.000 N 
ATOM      3  C   UNL     1       4.869   5.404  19.308  0.00  0.00    +0.000 A 
ATOM      4  C   UNL     1       5.696   5.414  18.216  0.00  0.00    +0.000 A 
ATOM      5  C   UNL     1       7.068   5.506  18.127  0.00  0.00    +0.000 A 
ATOM      6 CL   UNL     1       8.066   5.658  19.477  0.00  0.00    +0.000 Cl
ATOM      7  N   UNL     1       7.592   5.456  16.886  0.00  0.00    +0.000 NA
ATOM      8  C   UNL     1       6.741   5.306  15.832  0.00  0.00    +0.000 A 
ATOM      9  N   UNL     1       7.351   5.200  14.596  0.00  0.00    +0.000 N 
ATOM     10  N   UNL     1       5.388   5.248  15.831  0.00  0.00    +0.000 NA
ATOM     11  C   UNL     1       4.870   5.293  17.077  0.00  0.00    +0.000 A 
ATOM     12  N   UNL     1       3.583   5.228  17.429  0.00  0.00    +0.000 NA
ATOM     13  H   UNL     1       8.276   5.607  14.605  0.00  0.00    +0.000 HD
ATOM     14  H   UNL     1       6.720   5.459  13.851  0.00  0.00    +0.000 HD
ENDROOT
TORSDOF 0
ENDMDL
MODEL 9
REMARK VINA RESULT:      -5.6      2.823      4.733
REMARK  Name = 
REMARK  1 active torsions:
REMARK  status: ('A' for Active; 'I' for Inactive)
REMARK    1  A    between atoms: C_1  and  N_2
REMARK                            x       y       z     vdW  Elec       q    Type
REMARK                         _______ _______ _______ _____ _____    ______ ____
ROOT
ATOM      1  C   UNL     1       1.319   2.889  21.374  0.00  0.00    +0.000 C 
ATOM      2  N   UNL     1       2.344   3.484  20.548  0.00  0.00    +0.000 N 
ATOM      3  C   UNL     1       2.281   4.698  19.917  0.00  0.00    +0.000 A 
ATOM      4  C   UNL     1       3.490   4.814  19.283  0.00  0.00    +0.000 A 
ATOM      5  C   UNL     1       4.003   5.824  18.498  0.00  0.00    +0.000 A 
ATOM      6 CL   UNL     1       3.138   7.222  18.125  0.00  0.00    +0.000 Cl
ATOM      7  N   UNL     1       5.258   5.648  18.041  0.00  0.00    +0.000 NA
ATOM      8  C   UNL     1       5.920   4.511  18.395  0.00  0.00    +0.000 A 
ATOM      9  N   UNL     1       7.224   4.426  17.941  0.00  0.00    +0.000 N 
ATOM     10  N   UNL     1       5.478   3.459  19.124  0.00  0.00    +0.000 NA
ATOM     11  C   UNL     1       4.222   3.644  19.585  0.00  0.00    +0.000 A 
ATOM     12  N   UNL     1       3.504   2.821  20.354  0.00  0.00    +0.000 NA
ATOM     13  H   UNL     1       7.373   5.015  17.135  0.00  0.00    +0.000 HD
ATOM     14  H   UNL     1       7.536   3.466  17.899  0.00  0.00    +0.000 HD
ENDROOT
TORSDOF 0
ENDMDL
