MODEL 1
REMARK VINA RESULT:      -8.8      0.000      0.000
REMARK  Name = 
REMARK  4 active torsions:
REMARK  status: ('A' for Active; 'I' for Inactive)
REMARK    1  A    between atoms: C_1  and  C_2
REMARK    2  A    between atoms: C_7  and  C_8
REMARK    3  A    between atoms: C_9  and  C_10
REMARK    4  A    between atoms: N_15  and  C_16
REMARK                            x       y       z     vdW  Elec       q    Type
REMARK                         _______ _______ _______ _____ _____    ______ ____
ROOT
ATOM      1  C   UNL     1       4.602   4.548  17.109  0.00  0.00    +0.000 C 
ATOM      2  O   UNL     1       4.384   3.343  17.260  0.00  0.00    +0.000 OA
ATOM      3  N   UNL     1       3.739   5.473  17.723  0.00  0.00    +0.000 N 
ATOM      4  C   UNL     1       3.815   6.910  17.501  0.00  0.00    +0.000 C 
ATOM      5  C   UNL     1       2.561   7.709  17.843  0.00  0.00    +0.000 C 
ATOM      6  N   UNL     1       2.217   7.393  19.231  0.00  0.00    +0.000 N 
ATOM      7  C   UNL     1       1.901   5.962  19.425  0.00  0.00    +0.000 C 
ATOM      8  C   UNL     1       3.112   5.086  19.006  0.00  0.00    +0.000 C 
ENDROOT
BRANCH   1  17
ATOM      9  C   UNL     1       4.891   2.871  11.758  0.00  0.00    +0.000 C 
ATOM     10  C   UNL     1       5.616   3.686  12.787  0.00  0.00    +0.000 A 
ATOM     11  C   UNL     1       6.908   4.241  12.399  0.00  0.00    +0.000 A 
ATOM     12  C   UNL     1       7.633   4.981  13.254  0.00  0.00    +0.000 A 
ATOM     13  C   UNL     1       7.157   5.215  14.563  0.00  0.00    +0.000 A 
ATOM     14  N   UNL     1       7.729   5.864  15.533  0.00  0.00    +0.000 NA
ATOM     15  C   UNL     1       6.930   5.683  16.622  0.00  0.00    +0.000 A 
ATOM     16  C   UNL     1       7.509   6.187  17.892  0.00  0.00    +0.000 C 
ATOM     17  C   UNL     1       5.742   5.004  16.297  0.00  0.00    +0.000 A 
ATOM     18  N   UNL     1       5.934   4.666  14.948  0.00  0.00    +0.000 N 
ATOM     19  C   UNL     1       5.159   3.915  14.039  0.00  0.00    +0.000 A 
ENDBRANCH   1  17
BRANCH   6  20
ATOM     20  C   UNL     1       1.564   8.346  20.006  0.00  0.00    +0.000 A 
ATOM     21  C   UNL     1       1.516   8.170  21.399  0.00  0.00    +0.000 A 
ATOM     22  C   UNL     1       0.927   9.119  22.241  0.00  0.00    +0.000 A 
ATOM     23  C   UNL     1       0.368  10.277  21.707  0.00  0.00    +0.000 A 
ATOM     24  C   UNL     1       0.416  10.489  20.333  0.00  0.00    +0.000 A 
ATOM     25  C   UNL     1       1.011   9.539  19.502  0.00  0.00    +0.000 A 
ATOM     26  F   UNL     1       1.028   9.801  18.185  0.00  0.00    +0.000 F 
ENDBRANCH   6  20
TORSDOF 2
ENDMDL
MODEL 2
REMARK VINA RESULT:      -8.6      0.918      1.310
REMARK  Name = 
REMARK  4 active torsions:
REMARK  status: ('A' for Active; 'I' for Inactive)
REMARK    1  A    between atoms: C_1  and  C_2
REMARK    2  A    between atoms: C_7  and  C_8
REMARK    3  A    between atoms: C_9  and  C_10
REMARK    4  A    between atoms: N_15  and  C_16
REMARK                            x       y       z     vdW  Elec       q    Type
REMARK                         _______ _______ _______ _____ _____    ______ ____
ROOT
ATOM      1  C   UNL     1       4.579   4.690  17.040  0.00  0.00    +0.000 C 
ATOM      2  O   UNL     1       4.334   3.496  17.231  0.00  0.00    +0.000 OA
ATOM      3  N   UNL     1       3.720   5.653  17.598  0.00  0.00    +0.000 N 
ATOM      4  C   UNL     1       3.828   7.079  17.324  0.00  0.00    +0.000 C 
ATOM      5  C   UNL     1       2.582   7.914  17.606  0.00  0.00    +0.000 C 
ATOM      6  N   UNL     1       2.199   7.657  18.996  0.00  0.00    +0.000 N 
ATOM      7  C   UNL     1       1.852   6.240  19.236  0.00  0.00    +0.000 C 
ATOM      8  C   UNL     1       3.056   5.327  18.879  0.00  0.00    +0.000 C 
ENDROOT
BRANCH   1  17
ATOM      9  C   UNL     1       4.892   2.918  11.721  0.00  0.00    +0.000 C 
ATOM     10  C   UNL     1       5.629   3.725  12.748  0.00  0.00    +0.000 A 
ATOM     11  C   UNL     1       6.944   4.230  12.372  0.00  0.00    +0.000 A 
ATOM     12  C   UNL     1       7.681   4.959  13.227  0.00  0.00    +0.000 A 
ATOM     13  C   UNL     1       7.193   5.230  14.525  0.00  0.00    +0.000 A 
ATOM     14  N   UNL     1       7.772   5.875  15.493  0.00  0.00    +0.000 NA
ATOM     15  C   UNL     1       6.951   5.739  16.572  0.00  0.00    +0.000 A 
ATOM     16  C   UNL     1       7.528   6.243  17.843  0.00  0.00    +0.000 C 
ATOM     17  C   UNL     1       5.746   5.095  16.239  0.00  0.00    +0.000 A 
ATOM     18  N   UNL     1       5.947   4.728  14.899  0.00  0.00    +0.000 N 
ATOM     19  C   UNL     1       5.161   3.990  13.990  0.00  0.00    +0.000 A 
ENDBRANCH   1  17
BRANCH   6  20
ATOM     20  C   UNL     1       1.547   8.649  19.719  0.00  0.00    +0.000 A 
ATOM     21  C   UNL     1       1.120   9.807  19.047  0.00  0.00    +0.000 A 
ATOM     22  C   UNL     1       0.407  10.818  19.701  0.00  0.00    +0.000 A 
ATOM     23  C   UNL     1       0.100  10.694  21.053  0.00  0.00    +0.000 A 
ATOM     24  C   UNL     1       0.493   9.551  21.743  0.00  0.00    +0.000 A 
ATOM     25  C   UNL     1       1.198   8.547  21.079  0.00  0.00    +0.000 A 
ATOM     26  F   UNL     1       1.548   7.467  21.797  0.00  0.00    +0.000 F 
ENDBRANCH   6  20
TORSDOF 2
ENDMDL
MODEL 3
REMARK VINA RESULT:      -8.1      3.581      9.118
REMARK  Name = 
REMARK  4 active torsions:
REMARK  status: ('A' for Active; 'I' for Inactive)
REMARK    1  A    between atoms: C_1  and  C_2
REMARK    2  A    between atoms: C_7  and  C_8
REMARK    3  A    between atoms: C_9  and  C_10
REMARK    4  A    between atoms: N_15  and  C_16
REMARK                            x       y       z     vdW  Elec       q    Type
REMARK                         _______ _______ _______ _____ _____    ______ ____
ROOT
ATOM      1  C   UNL     1       0.671  10.197  20.349  0.00  0.00    +0.000 C 
ATOM      2  O   UNL     1       0.545  10.235  21.576  0.00  0.00    +0.000 OA
ATOM      3  N   UNL     1       1.383   9.127  19.777  0.00  0.00    +0.000 N 
ATOM      4  C   UNL     1       1.714   9.052  18.361  0.00  0.00    +0.000 C 
ATOM      5  C   UNL     1       2.857   8.111  17.988  0.00  0.00    +0.000 C 
ATOM      6  N   UNL     1       2.525   6.795  18.538  0.00  0.00    +0.000 N 
ATOM      7  C   UNL     1       2.418   6.806  20.012  0.00  0.00    +0.000 C 
ATOM      8  C   UNL     1       1.329   7.817  20.462  0.00  0.00    +0.000 C 
ENDROOT
BRANCH   1  17
ATOM      9  C   UNL     1       2.516  15.455  21.039  0.00  0.00    +0.000 C 
ATOM     10  C   UNL     1       1.548  14.632  20.244  0.00  0.00    +0.000 A 
ATOM     11  C   UNL     1       0.662  15.351  19.335  0.00  0.00    +0.000 A 
ATOM     12  C   UNL     1      -0.242  14.701  18.583  0.00  0.00    +0.000 A 
ATOM     13  C   UNL     1      -0.362  13.296  18.683  0.00  0.00    +0.000 A 
ATOM     14  N   UNL     1      -1.195  12.507  18.074  0.00  0.00    +0.000 NA
ATOM     15  C   UNL     1      -0.997  11.271  18.615  0.00  0.00    +0.000 A 
ATOM     16  C   UNL     1      -1.992  10.255  18.191  0.00  0.00    +0.000 C 
ATOM     17  C   UNL     1       0.092  11.254  19.505  0.00  0.00    +0.000 A 
ATOM     18  N   UNL     1       0.464  12.606  19.569  0.00  0.00    +0.000 N 
ATOM     19  C   UNL     1       1.434  13.287  20.334  0.00  0.00    +0.000 A 
ENDBRANCH   1  17
BRANCH   6  20
ATOM     20  C   UNL     1       2.990   5.651  17.898  0.00  0.00    +0.000 A 
ATOM     21  C   UNL     1       4.269   5.671  17.319  0.00  0.00    +0.000 A 
ATOM     22  C   UNL     1       4.821   4.538  16.711  0.00  0.00    +0.000 A 
ATOM     23  C   UNL     1       4.101   3.347  16.669  0.00  0.00    +0.000 A 
ATOM     24  C   UNL     1       2.839   3.289  17.249  0.00  0.00    +0.000 A 
ATOM     25  C   UNL     1       2.300   4.424  17.858  0.00  0.00    +0.000 A 
ATOM     26  F   UNL     1       1.078   4.306  18.403  0.00  0.00    +0.000 F 
ENDBRANCH   6  20
TORSDOF 2
ENDMDL
MODEL 4
REMARK VINA RESULT:      -8.1      2.315      4.035
REMARK  Name = 
REMARK  4 active torsions:
REMARK  status: ('A' for Active; 'I' for Inactive)
REMARK    1  A    between atoms: C_1  and  C_2
REMARK    2  A    between atoms: C_7  and  C_8
REMARK    3  A    between atoms: C_9  and  C_10
REMARK    4  A    between atoms: N_15  and  C_16
REMARK                            x       y       z     vdW  Elec       q    Type
REMARK                         _______ _______ _______ _____ _____    ______ ____
ROOT
ATOM      1  C   UNL     1       2.910   5.452  19.499  0.00  0.00    +0.000 C 
ATOM      2  O   UNL     1       2.759   4.900  20.592  0.00  0.00    +0.000 OA
ATOM      3  N   UNL     1       2.329   6.716  19.296  0.00  0.00    +0.000 N 
ATOM      4  C   UNL     1       2.322   7.398  18.009  0.00  0.00    +0.000 C 
ATOM      5  C   UNL     1       1.278   8.497  17.837  0.00  0.00    +0.000 C 
ATOM      6  N   UNL     1       1.458   9.437  18.947  0.00  0.00    +0.000 N 
ATOM      7  C   UNL     1       1.232   8.808  20.265  0.00  0.00    +0.000 C 
ATOM      8  C   UNL     1       2.208   7.617  20.463  0.00  0.00    +0.000 C 
ENDROOT
BRANCH   1  17
ATOM      9  C   UNL     1       7.704   7.847  17.825  0.00  0.00    +0.000 C 
ATOM     10  C   UNL     1       6.810   6.673  17.562  0.00  0.00    +0.000 A 
ATOM     11  C   UNL     1       7.174   5.800  16.452  0.00  0.00    +0.000 A 
ATOM     12  C   UNL     1       6.432   4.725  16.137  0.00  0.00    +0.000 A 
ATOM     13  C   UNL     1       5.262   4.437  16.875  0.00  0.00    +0.000 A 
ATOM     14  N   UNL     1       4.404   3.477  16.696  0.00  0.00    +0.000 NA
ATOM     15  C   UNL     1       3.391   3.718  17.574  0.00  0.00    +0.000 A 
ATOM     16  C   UNL     1       2.208   2.838  17.395  0.00  0.00    +0.000 C 
ATOM     17  C   UNL     1       3.680   4.796  18.430  0.00  0.00    +0.000 A 
ATOM     18  N   UNL     1       4.894   5.282  17.922  0.00  0.00    +0.000 N 
ATOM     19  C   UNL     1       5.692   6.392  18.270  0.00  0.00    +0.000 A 
ENDBRANCH   1  17
BRANCH   6  20
ATOM     20  C   UNL     1       1.131  10.776  18.766  0.00  0.00    +0.000 A 
ATOM     21  C   UNL     1       2.153  11.687  18.452  0.00  0.00    +0.000 A 
ATOM     22  C   UNL     1       1.885  13.037  18.200  0.00  0.00    +0.000 A 
ATOM     23  C   UNL     1       0.578  13.512  18.254  0.00  0.00    +0.000 A 
ATOM     24  C   UNL     1      -0.459  12.631  18.544  0.00  0.00    +0.000 A 
ATOM     25  C   UNL     1      -0.181  11.286  18.788  0.00  0.00    +0.000 A 
ATOM     26  F   UNL     1      -1.224  10.484  19.061  0.00  0.00    +0.000 F 
ENDBRANCH   6  20
TORSDOF 2
ENDMDL
MODEL 5
REMARK VINA RESULT:      -7.9      2.295      4.003
REMARK  Name = 
REMARK  4 active torsions:
REMARK  status: ('A' for Active; 'I' for Inactive)
REMARK    1  A    between atoms: C_1  and  C_2
REMARK    2  A    between atoms: C_7  and  C_8
REMARK    3  A    between atoms: C_9  and  C_10
REMARK    4  A    between atoms: N_15  and  C_16
REMARK                            x       y       z     vdW  Elec       q    Type
REMARK                         _______ _______ _______ _____ _____    ______ ____
ROOT
ATOM      1  C   UNL     1       2.960   5.576  19.422  0.00  0.00    +0.000 C 
ATOM      2  O   UNL     1       2.839   5.003  20.508  0.00  0.00    +0.000 OA
ATOM      3  N   UNL     1       2.342   6.827  19.247  0.00  0.00    +0.000 N 
ATOM      4  C   UNL     1       2.299   7.528  17.970  0.00  0.00    +0.000 C 
ATOM      5  C   UNL     1       1.224   8.601  17.831  0.00  0.00    +0.000 C 
ATOM      6  N   UNL     1       1.395   9.528  18.952  0.00  0.00    +0.000 N 
ATOM      7  C   UNL     1       1.205   8.874  20.263  0.00  0.00    +0.000 C 
ATOM      8  C   UNL     1       2.215   7.706  20.429  0.00  0.00    +0.000 C 
ENDROOT
BRANCH   1  17
ATOM      9  C   UNL     1       7.806   7.971  17.906  0.00  0.00    +0.000 C 
ATOM     10  C   UNL     1       6.898   6.823  17.581  0.00  0.00    +0.000 A 
ATOM     11  C   UNL     1       7.261   5.996  16.437  0.00  0.00    +0.000 A 
ATOM     12  C   UNL     1       6.506   4.948  16.066  0.00  0.00    +0.000 A 
ATOM     13  C   UNL     1       5.324   4.644  16.778  0.00  0.00    +0.000 A 
ATOM     14  N   UNL     1       4.455   3.706  16.547  0.00  0.00    +0.000 NA
ATOM     15  C   UNL     1       3.435   3.923  17.426  0.00  0.00    +0.000 A 
ATOM     16  C   UNL     1       2.242   3.070  17.195  0.00  0.00    +0.000 C 
ATOM     17  C   UNL     1       3.731   4.957  18.332  0.00  0.00    +0.000 A 
ATOM     18  N   UNL     1       4.958   5.447  17.858  0.00  0.00    +0.000 N 
ATOM     19  C   UNL     1       5.768   6.528  18.265  0.00  0.00    +0.000 A 
ENDBRANCH   1  17
BRANCH   6  20
ATOM     20  C   UNL     1       1.030  10.861  18.797  0.00  0.00    +0.000 A 
ATOM     21  C   UNL     1      -0.235  11.275  19.246  0.00  0.00    +0.000 A 
ATOM     22  C   UNL     1      -0.642  12.611  19.174  0.00  0.00    +0.000 A 
ATOM     23  C   UNL     1       0.214  13.575  18.647  0.00  0.00    +0.000 A 
ATOM     24  C   UNL     1       1.480  13.201  18.209  0.00  0.00    +0.000 A 
ATOM     25  C   UNL     1       1.878  11.866  18.292  0.00  0.00    +0.000 A 
ATOM     26  F   UNL     1       3.113  11.566  17.855  0.00  0.00    +0.000 F 
ENDBRANCH   6  20
TORSDOF 2
ENDMDL
MODEL 6
REMARK VINA RESULT:      -7.8      4.061      9.145
REMARK  Name = 
REMARK  4 active torsions:
REMARK  status: ('A' for Active; 'I' for Inactive)
REMARK    1  A    between atoms: C_1  and  C_2
REMARK    2  A    between atoms: C_7  and  C_8
REMARK    3  A    between atoms: C_9  and  C_10
REMARK    4  A    between atoms: N_15  and  C_16
REMARK                            x       y       z     vdW  Elec       q    Type
REMARK                         _______ _______ _______ _____ _____    ______ ____
ROOT
ATOM      1  C   UNL     1       0.609  10.319  20.650  0.00  0.00    +0.000 C 
ATOM      2  O   UNL     1       0.473  10.475  21.866  0.00  0.00    +0.000 OA
ATOM      3  N   UNL     1       1.264   9.164  20.187  0.00  0.00    +0.000 N 
ATOM      4  C   UNL     1       1.603   8.942  18.788  0.00  0.00    +0.000 C 
ATOM      5  C   UNL     1       2.694   7.910  18.518  0.00  0.00    +0.000 C 
ATOM      6  N   UNL     1       2.283   6.669  19.179  0.00  0.00    +0.000 N 
ATOM      7  C   UNL     1       2.164   6.820  20.644  0.00  0.00    +0.000 C 
ATOM      8  C   UNL     1       1.129   7.926  20.985  0.00  0.00    +0.000 C 
ENDROOT
BRANCH   1  17
ATOM      9  C   UNL     1       2.414  15.610  21.179  0.00  0.00    +0.000 C 
ATOM     10  C   UNL     1       1.505  14.742  20.360  0.00  0.00    +0.000 A 
ATOM     11  C   UNL     1       0.693  15.407  19.348  0.00  0.00    +0.000 A 
ATOM     12  C   UNL     1      -0.154  14.714  18.568  0.00  0.00    +0.000 A 
ATOM     13  C   UNL     1      -0.286  13.318  18.738  0.00  0.00    +0.000 A 
ATOM     14  N   UNL     1      -1.074  12.494  18.114  0.00  0.00    +0.000 NA
ATOM     15  C   UNL     1      -0.920  11.292  18.737  0.00  0.00    +0.000 A 
ATOM     16  C   UNL     1      -1.884  10.252  18.298  0.00  0.00    +0.000 C 
ATOM     17  C   UNL     1       0.098  11.326  19.706  0.00  0.00    +0.000 A 
ATOM     18  N   UNL     1       0.469  12.680  19.722  0.00  0.00    +0.000 N 
ATOM     19  C   UNL     1       1.381  13.404  20.518  0.00  0.00    +0.000 A 
ENDBRANCH   1  17
BRANCH   6  20
ATOM     20  C   UNL     1       2.688   5.449  18.651  0.00  0.00    +0.000 A 
ATOM     21  C   UNL     1       1.761   4.681  17.926  0.00  0.00    +0.000 A 
ATOM     22  C   UNL     1       2.119   3.473  17.319  0.00  0.00    +0.000 A 
ATOM     23  C   UNL     1       3.424   2.999  17.421  0.00  0.00    +0.000 A 
ATOM     24  C   UNL     1       4.370   3.744  18.116  0.00  0.00    +0.000 A 
ATOM     25  C   UNL     1       4.004   4.951  18.713  0.00  0.00    +0.000 A 
ATOM     26  F   UNL     1       4.963   5.626  19.369  0.00  0.00    +0.000 F 
ENDBRANCH   6  20
TORSDOF 2
ENDMDL
MODEL 7
REMARK VINA RESULT:      -7.8      4.074      8.367
REMARK  Name = 
REMARK  4 active torsions:
REMARK  status: ('A' for Active; 'I' for Inactive)
REMARK    1  A    between atoms: C_1  and  C_2
REMARK    2  A    between atoms: C_7  and  C_8
REMARK    3  A    between atoms: C_9  and  C_10
REMARK    4  A    between atoms: N_15  and  C_16
REMARK                            x       y       z     vdW  Elec       q    Type
REMARK                         _______ _______ _______ _____ _____    ______ ____
ROOT
ATOM      1  C   UNL     1       1.003   9.998  21.186  0.00  0.00    +0.000 C 
ATOM      2  O   UNL     1       0.921  10.067  22.415  0.00  0.00    +0.000 OA
ATOM      3  N   UNL     1       1.438   8.794  20.605  0.00  0.00    +0.000 N 
ATOM      4  C   UNL     1       1.706   8.642  19.181  0.00  0.00    +0.000 C 
ATOM      5  C   UNL     1       2.596   7.467  18.788  0.00  0.00    +0.000 C 
ATOM      6  N   UNL     1       1.991   6.260  19.357  0.00  0.00    +0.000 N 
ATOM      7  C   UNL     1       1.930   6.300  20.833  0.00  0.00    +0.000 C 
ATOM      8  C   UNL     1       1.109   7.531  21.302  0.00  0.00    +0.000 C 
ENDROOT
BRANCH   1  17
ATOM      9  C   UNL     1      -3.261   9.473  17.570  0.00  0.00    +0.000 C 
ATOM     10  C   UNL     1      -2.226  10.446  18.051  0.00  0.00    +0.000 A 
ATOM     11  C   UNL     1      -2.158  11.731  17.365  0.00  0.00    +0.000 A 
ATOM     12  C   UNL     1      -1.261  12.665  17.722  0.00  0.00    +0.000 A 
ATOM     13  C   UNL     1      -0.346  12.401  18.766  0.00  0.00    +0.000 A 
ATOM     14  N   UNL     1       0.609  13.156  19.220  0.00  0.00    +0.000 NA
ATOM     15  C   UNL     1       1.284  12.394  20.126  0.00  0.00    +0.000 A 
ATOM     16  C   UNL     1       2.540  13.009  20.623  0.00  0.00    +0.000 C 
ATOM     17  C   UNL     1       0.654  11.156  20.348  0.00  0.00    +0.000 A 
ATOM     18  N   UNL     1      -0.390  11.164  19.410  0.00  0.00    +0.000 N 
ATOM     19  C   UNL     1      -1.353  10.197  19.054  0.00  0.00    +0.000 A 
ENDBRANCH   1  17
BRANCH   6  20
ATOM     20  C   UNL     1       2.168   5.040  18.715  0.00  0.00    +0.000 A 
ATOM     21  C   UNL     1       3.197   4.916  17.766  0.00  0.00    +0.000 A 
ATOM     22  C   UNL     1       3.468   3.702  17.127  0.00  0.00    +0.000 A 
ATOM     23  C   UNL     1       2.711   2.572  17.423  0.00  0.00    +0.000 A 
ATOM     24  C   UNL     1       1.696   2.657  18.371  0.00  0.00    +0.000 A 
ATOM     25  C   UNL     1       1.439   3.872  19.007  0.00  0.00    +0.000 A 
ATOM     26  F   UNL     1       0.448   3.891  19.914  0.00  0.00    +0.000 F 
ENDBRANCH   6  20
TORSDOF 2
ENDMDL
MODEL 8
REMARK VINA RESULT:      -7.5      2.650      4.424
REMARK  Name = 
REMARK  4 active torsions:
REMARK  status: ('A' for Active; 'I' for Inactive)
REMARK    1  A    between atoms: C_1  and  C_2
REMARK    2  A    between atoms: C_7  and  C_8
REMARK    3  A    between atoms: C_9  and  C_10
REMARK    4  A    between atoms: N_15  and  C_16
REMARK                            x       y       z     vdW  Elec       q    Type
REMARK                         _______ _______ _______ _____ _____    ______ ____
ROOT
ATOM      1  C   UNL     1       2.437   5.682  19.922  0.00  0.00    +0.000 C 
ATOM      2  O   UNL     1       2.271   5.137  21.017  0.00  0.00    +0.000 OA
ATOM      3  N   UNL     1       1.985   7.003  19.751  0.00  0.00    +0.000 N 
ATOM      4  C   UNL     1       2.000   7.695  18.469  0.00  0.00    +0.000 C 
ATOM      5  C   UNL     1       1.072   8.900  18.346  0.00  0.00    +0.000 C 
ATOM      6  N   UNL     1       1.393   9.803  19.454  0.00  0.00    +0.000 N 
ATOM      7  C   UNL     1       1.152   9.187  20.775  0.00  0.00    +0.000 C 
ATOM      8  C   UNL     1       2.005   7.898  20.928  0.00  0.00    +0.000 C 
ENDROOT
BRANCH   1  17
ATOM      9  C   UNL     1       8.005   6.155  19.375  0.00  0.00    +0.000 C 
ATOM     10  C   UNL     1       6.802   5.512  18.753  0.00  0.00    +0.000 A 
ATOM     11  C   UNL     1       7.016   4.768  17.517  0.00  0.00    +0.000 A 
ATOM     12  C   UNL     1       5.998   4.161  16.884  0.00  0.00    +0.000 A 
ATOM     13  C   UNL     1       4.688   4.255  17.403  0.00  0.00    +0.000 A 
ATOM     14  N   UNL     1       3.583   3.775  16.915  0.00  0.00    +0.000 NA
ATOM     15  C   UNL     1       2.587   4.257  17.711  0.00  0.00    +0.000 A 
ATOM     16  C   UNL     1       1.219   3.981  17.207  0.00  0.00    +0.000 C 
ATOM     17  C   UNL     1       3.091   4.960  18.820  0.00  0.00    +0.000 A 
ATOM     18  N   UNL     1       4.473   4.986  18.572  0.00  0.00    +0.000 N 
ATOM     19  C   UNL     1       5.547   5.596  19.252  0.00  0.00    +0.000 A 
ENDBRANCH   1  17
BRANCH   6  20
ATOM     20  C   UNL     1       1.202  11.171  19.295  0.00  0.00    +0.000 A 
ATOM     21  C   UNL     1       0.266  11.825  20.112  0.00  0.00    +0.000 A 
ATOM     22  C   UNL     1       0.067  13.208  20.046  0.00  0.00    +0.000 A 
ATOM     23  C   UNL     1       0.807  13.978  19.152  0.00  0.00    +0.000 A 
ATOM     24  C   UNL     1       1.755  13.363  18.341  0.00  0.00    +0.000 A 
ATOM     25  C   UNL     1       1.950  11.984  18.421  0.00  0.00    +0.000 A 
ATOM     26  F   UNL     1       2.881  11.448  17.614  0.00  0.00    +0.000 F 
ENDBRANCH   6  20
TORSDOF 2
ENDMDL
MODEL 9
REMARK VINA RESULT:      -7.3      8.504     10.128
REMARK  Name = 
REMARK  4 active torsions:
REMARK  status: ('A' for Active; 'I' for Inactive)
REMARK    1  A    between atoms: C_1  and  C_2
REMARK    2  A    between atoms: C_7  and  C_8
REMARK    3  A    between atoms: C_9  and  C_10
REMARK    4  A    between atoms: N_15  and  C_16
REMARK                            x       y       z     vdW  Elec       q    Type
REMARK                         _______ _______ _______ _____ _____    ______ ____
ROOT
ATOM      1  C   UNL     1       7.378  15.493  19.996  0.00  0.00    +0.000 C 
ATOM      2  O   UNL     1       7.642  15.491  21.202  0.00  0.00    +0.000 OA
ATOM      3  N   UNL     1       6.045  15.695  19.598  0.00  0.00    +0.000 N 
ATOM      4  C   UNL     1       5.595  15.578  18.217  0.00  0.00    +0.000 C 
ATOM      5  C   UNL     1       4.098  15.361  18.016  0.00  0.00    +0.000 C 
ATOM      6  N   UNL     1       3.408  16.444  18.721  0.00  0.00    +0.000 N 
ATOM      7  C   UNL     1       3.670  16.430  20.176  0.00  0.00    +0.000 C 
ATOM      8  C   UNL     1       5.193  16.558  20.446  0.00  0.00    +0.000 C 
ENDROOT
BRANCH   1  17
ATOM      9  C   UNL     1       9.337  10.282  19.266  0.00  0.00    +0.000 C 
ATOM     10  C   UNL     1       9.509  11.692  18.787  0.00  0.00    +0.000 A 
ATOM     11  C   UNL     1      10.587  11.939  17.837  0.00  0.00    +0.000 A 
ATOM     12  C   UNL     1      10.822  13.171  17.354  0.00  0.00    +0.000 A 
ATOM     13  C   UNL     1      10.031  14.259  17.784  0.00  0.00    +0.000 A 
ATOM     14  N   UNL     1      10.132  15.514  17.464  0.00  0.00    +0.000 NA
ATOM     15  C   UNL     1       9.230  16.170  18.249  0.00  0.00    +0.000 A 
ATOM     16  C   UNL     1       9.324  17.650  18.177  0.00  0.00    +0.000 C 
ATOM     17  C   UNL     1       8.440  15.282  18.999  0.00  0.00    +0.000 A 
ATOM     18  N   UNL     1       9.014  14.033  18.712  0.00  0.00    +0.000 N 
ATOM     19  C   UNL     1       8.749  12.734  19.194  0.00  0.00    +0.000 A 
ENDBRANCH   1  17
BRANCH   6  20
ATOM     20  C   UNL     1       2.175  16.884  18.255  0.00  0.00    +0.000 A 
ATOM     21  C   UNL     1       1.060  16.802  19.106  0.00  0.00    +0.000 A 
ATOM     22  C   UNL     1      -0.198  17.281  18.722  0.00  0.00    +0.000 A 
ATOM     23  C   UNL     1      -0.372  17.858  17.467  0.00  0.00    +0.000 A 
ATOM     24  C   UNL     1       0.716  17.970  16.608  0.00  0.00    +0.000 A 
ATOM     25  C   UNL     1       1.967  17.495  17.004  0.00  0.00    +0.000 A 
ATOM     26  F   UNL     1       2.980  17.633  16.132  0.00  0.00    +0.000 F 
ENDBRANCH   6  20
TORSDOF 2
ENDMDL
