MODEL 1
REMARK VINA RESULT:      -8.1      0.000      0.000
REMARK  Name = 
REMARK  8 active torsions:
REMARK  status: ('A' for Active; 'I' for Inactive)
REMARK    1  A    between atoms: C_1  and  C_2
REMARK    2  A    between atoms: C_2  and  C_25
REMARK    3  A    between atoms: C_3  and  C_4
REMARK    4  A    between atoms: C_3  and  C_10
REMARK    5  A    between atoms: C_13  and  O_14
REMARK    6  A    between atoms: O_14  and  C_15
REMARK    7  A    between atoms: C_15  and  C_16
REMARK    8  A    between atoms: C_16  and  N_17
REMARK                            x       y       z     vdW  Elec       q    Type
REMARK                         _______ _______ _______ _____ _____    ______ ____
ROOT
ATOM      1  C   UNL     1       3.174   2.995  16.543  0.00  0.00    +0.000 C 
ATOM      2  C   UNL     1       4.335   3.913  16.835  0.00  0.00    +0.000 C 
ATOM      3  C   UNL     1       4.575   4.535  18.020  0.00  0.00    +0.000 C 
ENDROOT
BRANCH   2   4
ATOM      4  C   UNL     1       5.231   4.103  15.668  0.00  0.00    +0.000 A 
ATOM      5  C   UNL     1       6.596   4.351  15.879  0.00  0.00    +0.000 A 
ATOM      6  C   UNL     1       7.438   4.613  14.796  0.00  0.00    +0.000 A 
ATOM      7  C   UNL     1       6.917   4.620  13.509  0.00  0.00    +0.000 A 
ATOM      8  F   UNL     1       7.719   4.900  12.473  0.00  0.00    +0.000 F 
ATOM      9  C   UNL     1       5.571   4.354  13.279  0.00  0.00    +0.000 A 
ATOM     10  C   UNL     1       4.726   4.089  14.360  0.00  0.00    +0.000 A 
ENDBRANCH   2   4
BRANCH   3  11
ATOM     11  C   UNL     1       3.685   4.287  19.180  0.00  0.00    +0.000 A 
ATOM     12  C   UNL     1       3.787   3.080  19.881  0.00  0.00    +0.000 A 
ATOM     13  C   UNL     1       2.967   2.837  20.984  0.00  0.00    +0.000 A 
ATOM     14  C   UNL     1       2.044   3.798  21.394  0.00  0.00    +0.000 A 
ATOM     15  C   UNL     1       1.939   5.003  20.705  0.00  0.00    +0.000 A 
ATOM     16  C   UNL     1       2.759   5.251  19.601  0.00  0.00    +0.000 A 
ENDBRANCH   3  11
BRANCH   3  17
ATOM     17  C   UNL     1       5.663   5.536  18.134  0.00  0.00    +0.000 A 
ATOM     18  C   UNL     1       6.768   5.197  18.914  0.00  0.00    +0.000 A 
ATOM     19  C   UNL     1       7.835   6.078  19.048  0.00  0.00    +0.000 A 
ATOM     20  C   UNL     1       7.825   7.318  18.399  0.00  0.00    +0.000 A 
ATOM     21  C   UNL     1       6.716   7.666  17.624  0.00  0.00    +0.000 A 
ATOM     22  C   UNL     1       5.637   6.778  17.489  0.00  0.00    +0.000 A 
BRANCH  20  23
ATOM     23  O   UNL     1       8.851   8.236  18.464  0.00  0.00    +0.000 OA
BRANCH  23  24
ATOM     24  C   UNL     1       8.425   9.578  18.194  0.00  0.00    +0.000 C 
BRANCH  24  25
ATOM     25  C   UNL     1       9.282  10.631  18.904  0.00  0.00    +0.000 C 
BRANCH  25  26
ATOM     26  N   UNL     1       9.992  11.514  17.949  0.00  0.00    +0.000 NA
ATOM     27  C   UNL     1       9.411  12.876  17.956  0.00  0.00    +0.000 C 
ATOM     28  C   UNL     1       9.735  13.699  19.229  0.00  0.00    +0.000 C 
ATOM     29  N   UNL     1      11.168  13.746  19.560  0.00  0.00    +0.000 NA
ATOM     30  C   UNL     1      11.764  12.404  19.529  0.00  0.00    +0.000 C 
ATOM     31  C   UNL     1      11.442  11.654  18.220  0.00  0.00    +0.000 C 
ATOM     32  H   UNL     1      11.289  14.150  20.488  0.00  0.00    +0.000 HD
ENDBRANCH  25  26
ENDBRANCH  24  25
ENDBRANCH  23  24
ENDBRANCH  20  23
ENDBRANCH   3  17
TORSDOF 7
ENDMDL
MODEL 2
REMARK VINA RESULT:      -8.1      7.312     10.430
REMARK  Name = 
REMARK  8 active torsions:
REMARK  status: ('A' for Active; 'I' for Inactive)
REMARK    1  A    between atoms: C_1  and  C_2
REMARK    2  A    between atoms: C_2  and  C_25
REMARK    3  A    between atoms: C_3  and  C_4
REMARK    4  A    between atoms: C_3  and  C_10
REMARK    5  A    between atoms: C_13  and  O_14
REMARK    6  A    between atoms: O_14  and  C_15
REMARK    7  A    between atoms: C_15  and  C_16
REMARK    8  A    between atoms: C_16  and  N_17
REMARK                            x       y       z     vdW  Elec       q    Type
REMARK                         _______ _______ _______ _____ _____    ______ ____
ROOT
ATOM      1  C   UNL     1      -0.927  14.493  18.642  0.00  0.00    +0.000 C 
ATOM      2  C   UNL     1      -0.146  13.213  18.807  0.00  0.00    +0.000 C 
ATOM      3  C   UNL     1      -0.637  11.957  18.638  0.00  0.00    +0.000 C 
ENDROOT
BRANCH   2   4
ATOM      4  C   UNL     1       1.266  13.443  19.198  0.00  0.00    +0.000 A 
ATOM      5  C   UNL     1       1.597  13.558  20.557  0.00  0.00    +0.000 A 
ATOM      6  C   UNL     1       2.907  13.856  20.939  0.00  0.00    +0.000 A 
ATOM      7  C   UNL     1       3.880  14.032  19.966  0.00  0.00    +0.000 A 
ATOM      8  F   UNL     1       5.131  14.346  20.332  0.00  0.00    +0.000 F 
ATOM      9  C   UNL     1       3.577  13.899  18.615  0.00  0.00    +0.000 A 
ATOM     10  C   UNL     1       2.268  13.599  18.229  0.00  0.00    +0.000 A 
ENDBRANCH   2   4
BRANCH   3  11
ATOM     11  C   UNL     1      -2.042  11.764  18.202  0.00  0.00    +0.000 A 
ATOM     12  C   UNL     1      -2.306  11.344  16.893  0.00  0.00    +0.000 A 
ATOM     13  C   UNL     1      -3.621  11.144  16.470  0.00  0.00    +0.000 A 
ATOM     14  C   UNL     1      -4.678  11.357  17.353  0.00  0.00    +0.000 A 
ATOM     15  C   UNL     1      -4.425  11.771  18.658  0.00  0.00    +0.000 A 
ATOM     16  C   UNL     1      -3.110  11.972  19.085  0.00  0.00    +0.000 A 
ENDBRANCH   3  11
BRANCH   3  17
ATOM     17  C   UNL     1       0.189  10.775  18.982  0.00  0.00    +0.000 A 
ATOM     18  C   UNL     1       0.095  10.282  20.283  0.00  0.00    +0.000 A 
ATOM     19  C   UNL     1       0.824   9.164  20.669  0.00  0.00    +0.000 A 
ATOM     20  C   UNL     1       1.661   8.507  19.760  0.00  0.00    +0.000 A 
ATOM     21  C   UNL     1       1.766   9.001  18.458  0.00  0.00    +0.000 A 
ATOM     22  C   UNL     1       1.031  10.132  18.067  0.00  0.00    +0.000 A 
BRANCH  20  23
ATOM     23  O   UNL     1       2.399   7.381  20.058  0.00  0.00    +0.000 OA
BRANCH  23  24
ATOM     24  C   UNL     1       2.552   6.494  18.942  0.00  0.00    +0.000 C 
BRANCH  24  25
ATOM     25  C   UNL     1       2.354   5.022  19.317  0.00  0.00    +0.000 C 
BRANCH  25  26
ATOM     26  N   UNL     1       1.782   4.231  18.202  0.00  0.00    +0.000 NA
ATOM     27  C   UNL     1       2.846   3.770  17.281  0.00  0.00    +0.000 C 
ATOM     28  C   UNL     1       3.739   2.642  17.855  0.00  0.00    +0.000 C 
ATOM     29  N   UNL     1       2.985   1.496  18.388  0.00  0.00    +0.000 NA
ATOM     30  C   UNL     1       1.908   1.941  19.283  0.00  0.00    +0.000 C 
ATOM     31  C   UNL     1       1.028   3.032  18.637  0.00  0.00    +0.000 C 
ATOM     32  H   UNL     1       3.617   0.881  18.898  0.00  0.00    +0.000 HD
ENDBRANCH  25  26
ENDBRANCH  24  25
ENDBRANCH  23  24
ENDBRANCH  20  23
ENDBRANCH   3  17
TORSDOF 7
ENDMDL
MODEL 3
REMARK VINA RESULT:      -8.1      0.496      1.420
REMARK  Name = 
REMARK  8 active torsions:
REMARK  status: ('A' for Active; 'I' for Inactive)
REMARK    1  A    between atoms: C_1  and  C_2
REMARK    2  A    between atoms: C_2  and  C_25
REMARK    3  A    between atoms: C_3  and  C_4
REMARK    4  A    between atoms: C_3  and  C_10
REMARK    5  A    between atoms: C_13  and  O_14
REMARK    6  A    between atoms: O_14  and  C_15
REMARK    7  A    between atoms: C_15  and  C_16
REMARK    8  A    between atoms: C_16  and  N_17
REMARK                            x       y       z     vdW  Elec       q    Type
REMARK                         _______ _______ _______ _____ _____    ______ ____
ROOT
ATOM      1  C   UNL     1       3.172   3.120  16.546  0.00  0.00    +0.000 C 
ATOM      2  C   UNL     1       4.343   4.029  16.825  0.00  0.00    +0.000 C 
ATOM      3  C   UNL     1       4.608   4.638  18.012  0.00  0.00    +0.000 C 
ENDROOT
BRANCH   2   4
ATOM      4  C   UNL     1       5.218   4.227  15.644  0.00  0.00    +0.000 A 
ATOM      5  C   UNL     1       4.668   4.145  14.355  0.00  0.00    +0.000 A 
ATOM      6  C   UNL     1       5.491   4.247  13.232  0.00  0.00    +0.000 A 
ATOM      7  C   UNL     1       6.856   4.435  13.399  0.00  0.00    +0.000 A 
ATOM      8  F   UNL     1       7.650   4.504  12.321  0.00  0.00    +0.000 F 
ATOM      9  C   UNL     1       7.416   4.541  14.668  0.00  0.00    +0.000 A 
ATOM     10  C   UNL     1       6.595   4.443  15.794  0.00  0.00    +0.000 A 
ENDBRANCH   2   4
BRANCH   3  11
ATOM     11  C   UNL     1       3.738   4.382  19.186  0.00  0.00    +0.000 A 
ATOM     12  C   UNL     1       2.844   5.372  19.610  0.00  0.00    +0.000 A 
ATOM     13  C   UNL     1       2.007   5.142  20.703  0.00  0.00    +0.000 A 
ATOM     14  C   UNL     1       2.057   3.922  21.376  0.00  0.00    +0.000 A 
ATOM     15  C   UNL     1       2.940   2.930  20.959  0.00  0.00    +0.000 A 
ATOM     16  C   UNL     1       3.778   3.156  19.864  0.00  0.00    +0.000 A 
ENDBRANCH   3  11
BRANCH   3  17
ATOM     17  C   UNL     1       5.702   5.633  18.117  0.00  0.00    +0.000 A 
ATOM     18  C   UNL     1       6.778   5.318  18.945  0.00  0.00    +0.000 A 
ATOM     19  C   UNL     1       7.849   6.194  19.075  0.00  0.00    +0.000 A 
ATOM     20  C   UNL     1       7.873   7.404  18.372  0.00  0.00    +0.000 A 
ATOM     21  C   UNL     1       6.794   7.728  17.546  0.00  0.00    +0.000 A 
ATOM     22  C   UNL     1       5.709   6.844  17.417  0.00  0.00    +0.000 A 
BRANCH  20  23
ATOM     23  O   UNL     1       8.907   8.315  18.429  0.00  0.00    +0.000 OA
BRANCH  23  24
ATOM     24  C   UNL     1       8.468   9.675  18.311  0.00  0.00    +0.000 C 
BRANCH  24  25
ATOM     25  C   UNL     1       9.056  10.587  19.392  0.00  0.00    +0.000 C 
BRANCH  25  26
ATOM     26  N   UNL     1      10.449  10.992  19.087  0.00  0.00    +0.000 NA
ATOM     27  C   UNL     1      10.526  11.676  17.777  0.00  0.00    +0.000 C 
ATOM     28  C   UNL     1       9.924  13.104  17.769  0.00  0.00    +0.000 C 
ATOM     29  N   UNL     1      10.438  13.975  18.837  0.00  0.00    +0.000 NA
ATOM     30  C   UNL     1      10.393  13.297  20.140  0.00  0.00    +0.000 C 
ATOM     31  C   UNL     1      11.047  11.900  20.093  0.00  0.00    +0.000 C 
ATOM     32  H   UNL     1       9.881  14.827  18.879  0.00  0.00    +0.000 HD
ENDBRANCH  25  26
ENDBRANCH  24  25
ENDBRANCH  23  24
ENDBRANCH  20  23
ENDBRANCH   3  17
TORSDOF 7
ENDMDL
MODEL 4
REMARK VINA RESULT:      -8.1      7.280     10.915
REMARK  Name = 
REMARK  8 active torsions:
REMARK  status: ('A' for Active; 'I' for Inactive)
REMARK    1  A    between atoms: C_1  and  C_2
REMARK    2  A    between atoms: C_2  and  C_25
REMARK    3  A    between atoms: C_3  and  C_4
REMARK    4  A    between atoms: C_3  and  C_10
REMARK    5  A    between atoms: C_13  and  O_14
REMARK    6  A    between atoms: O_14  and  C_15
REMARK    7  A    between atoms: C_15  and  C_16
REMARK    8  A    between atoms: C_16  and  N_17
REMARK                            x       y       z     vdW  Elec       q    Type
REMARK                         _______ _______ _______ _____ _____    ______ ____
ROOT
ATOM      1  C   UNL     1      -0.054  14.908  18.596  0.00  0.00    +0.000 C 
ATOM      2  C   UNL     1       0.069  13.456  18.988  0.00  0.00    +0.000 C 
ATOM      3  C   UNL     1       1.212  12.838  19.387  0.00  0.00    +0.000 C 
ENDROOT
BRANCH   2   4
ATOM      4  C   UNL     1      -1.214  12.718  18.888  0.00  0.00    +0.000 A 
ATOM      5  C   UNL     1      -1.518  12.019  17.709  0.00  0.00    +0.000 A 
ATOM      6  C   UNL     1      -2.755  11.387  17.566  0.00  0.00    +0.000 A 
ATOM      7  C   UNL     1      -3.679  11.450  18.601  0.00  0.00    +0.000 A 
ATOM      8  F   UNL     1      -4.878  10.868  18.452  0.00  0.00    +0.000 F 
ATOM      9  C   UNL     1      -3.387  12.119  19.784  0.00  0.00    +0.000 A 
ATOM     10  C   UNL     1      -2.149  12.750  19.931  0.00  0.00    +0.000 A 
ENDBRANCH   2   4
BRANCH   3  11
ATOM     11  C   UNL     1       2.468  13.616  19.520  0.00  0.00    +0.000 A 
ATOM     12  C   UNL     1       3.229  13.897  18.380  0.00  0.00    +0.000 A 
ATOM     13  C   UNL     1       4.405  14.641  18.485  0.00  0.00    +0.000 A 
ATOM     14  C   UNL     1       4.825  15.111  19.729  0.00  0.00    +0.000 A 
ATOM     15  C   UNL     1       4.072  14.840  20.868  0.00  0.00    +0.000 A 
ATOM     16  C   UNL     1       2.893  14.096  20.766  0.00  0.00    +0.000 A 
ENDBRANCH   3  11
BRANCH   3  17
ATOM     17  C   UNL     1       1.237  11.370  19.595  0.00  0.00    +0.000 A 
ATOM     18  C   UNL     1       1.615  10.575  18.514  0.00  0.00    +0.000 A 
ATOM     19  C   UNL     1       1.682   9.193  18.643  0.00  0.00    +0.000 A 
ATOM     20  C   UNL     1       1.380   8.572  19.861  0.00  0.00    +0.000 A 
ATOM     21  C   UNL     1       0.994   9.364  20.945  0.00  0.00    +0.000 A 
ATOM     22  C   UNL     1       0.923  10.760  20.815  0.00  0.00    +0.000 A 
BRANCH  20  23
ATOM     23  O   UNL     1       1.445   7.212  20.076  0.00  0.00    +0.000 OA
BRANCH  23  24
ATOM     24  C   UNL     1       2.610   6.604  19.503  0.00  0.00    +0.000 C 
BRANCH  24  25
ATOM     25  C   UNL     1       2.320   5.242  18.866  0.00  0.00    +0.000 C 
BRANCH  25  26
ATOM     26  N   UNL     1       2.630   4.117  19.782  0.00  0.00    +0.000 NA
ATOM     27  C   UNL     1       1.410   3.337  20.091  0.00  0.00    +0.000 C 
ATOM     28  C   UNL     1       0.895   2.468  18.916  0.00  0.00    +0.000 C 
ATOM     29  N   UNL     1       1.925   1.603  18.317  0.00  0.00    +0.000 NA
ATOM     30  C   UNL     1       3.151   2.360  18.030  0.00  0.00    +0.000 C 
ATOM     31  C   UNL     1       3.636   3.168  19.252  0.00  0.00    +0.000 C 
ATOM     32  H   UNL     1       1.567   1.197  17.454  0.00  0.00    +0.000 HD
ENDBRANCH  25  26
ENDBRANCH  24  25
ENDBRANCH  23  24
ENDBRANCH  20  23
ENDBRANCH   3  17
TORSDOF 7
ENDMDL
MODEL 5
REMARK VINA RESULT:      -8.0      0.595      1.297
REMARK  Name = 
REMARK  8 active torsions:
REMARK  status: ('A' for Active; 'I' for Inactive)
REMARK    1  A    between atoms: C_1  and  C_2
REMARK    2  A    between atoms: C_2  and  C_25
REMARK    3  A    between atoms: C_3  and  C_4
REMARK    4  A    between atoms: C_3  and  C_10
REMARK    5  A    between atoms: C_13  and  O_14
REMARK    6  A    between atoms: O_14  and  C_15
REMARK    7  A    between atoms: C_15  and  C_16
REMARK    8  A    between atoms: C_16  and  N_17
REMARK                            x       y       z     vdW  Elec       q    Type
REMARK                         _______ _______ _______ _____ _____    ______ ____
ROOT
ATOM      1  C   UNL     1       3.276   3.000  16.607  0.00  0.00    +0.000 C 
ATOM      2  C   UNL     1       4.419   3.948  16.875  0.00  0.00    +0.000 C 
ATOM      3  C   UNL     1       4.650   4.600  18.045  0.00  0.00    +0.000 C 
ENDROOT
BRANCH   2   4
ATOM      4  C   UNL     1       5.307   4.131  15.701  0.00  0.00    +0.000 A 
ATOM      5  C   UNL     1       6.675   4.374  15.902  0.00  0.00    +0.000 A 
ATOM      6  C   UNL     1       7.511   4.630  14.812  0.00  0.00    +0.000 A 
ATOM      7  C   UNL     1       6.980   4.635  13.529  0.00  0.00    +0.000 A 
ATOM      8  F   UNL     1       7.777   4.909  12.486  0.00  0.00    +0.000 F 
ATOM      9  C   UNL     1       5.632   4.374  13.309  0.00  0.00    +0.000 A 
ATOM     10  C   UNL     1       4.794   4.115  14.397  0.00  0.00    +0.000 A 
ENDBRANCH   2   4
BRANCH   3  11
ATOM     11  C   UNL     1       3.768   4.359  19.214  0.00  0.00    +0.000 A 
ATOM     12  C   UNL     1       2.845   5.340  19.595  0.00  0.00    +0.000 A 
ATOM     13  C   UNL     1       1.998   5.124  20.682  0.00  0.00    +0.000 A 
ATOM     14  C   UNL     1       2.065   3.926  21.392  0.00  0.00    +0.000 A 
ATOM     15  C   UNL     1       2.977   2.943  21.018  0.00  0.00    +0.000 A 
ATOM     16  C   UNL     1       3.826   3.155  19.928  0.00  0.00    +0.000 A 
ENDBRANCH   3  11
BRANCH   3  17
ATOM     17  C   UNL     1       5.717   5.626  18.135  0.00  0.00    +0.000 A 
ATOM     18  C   UNL     1       6.814   5.342  18.947  0.00  0.00    +0.000 A 
ATOM     19  C   UNL     1       7.861   6.248  19.061  0.00  0.00    +0.000 A 
ATOM     20  C   UNL     1       7.840   7.459  18.359  0.00  0.00    +0.000 A 
ATOM     21  C   UNL     1       6.740   7.751  17.549  0.00  0.00    +0.000 A 
ATOM     22  C   UNL     1       5.679   6.838  17.435  0.00  0.00    +0.000 A 
BRANCH  20  23
ATOM     23  O   UNL     1       8.848   8.398  18.401  0.00  0.00    +0.000 OA
BRANCH  23  24
ATOM     24  C   UNL     1       8.384   9.734  18.163  0.00  0.00    +0.000 C 
BRANCH  24  25
ATOM     25  C   UNL     1       9.516  10.766  18.154  0.00  0.00    +0.000 C 
BRANCH  25  26
ATOM     26  N   UNL     1       9.322  11.821  19.178  0.00  0.00    +0.000 NA
ATOM     27  C   UNL     1      10.239  11.621  20.323  0.00  0.00    +0.000 C 
ATOM     28  C   UNL     1      11.722  11.949  20.015  0.00  0.00    +0.000 C 
ATOM     29  N   UNL     1      11.927  13.276  19.413  0.00  0.00    +0.000 NA
ATOM     30  C   UNL     1      11.004  13.498  18.292  0.00  0.00    +0.000 C 
ATOM     31  C   UNL     1       9.540  13.197  18.675  0.00  0.00    +0.000 C 
ATOM     32  H   UNL     1      12.888  13.354  19.082  0.00  0.00    +0.000 HD
ENDBRANCH  25  26
ENDBRANCH  24  25
ENDBRANCH  23  24
ENDBRANCH  20  23
ENDBRANCH   3  17
TORSDOF 7
ENDMDL
MODEL 6
REMARK VINA RESULT:      -8.0      7.055     10.442
REMARK  Name = 
REMARK  8 active torsions:
REMARK  status: ('A' for Active; 'I' for Inactive)
REMARK    1  A    between atoms: C_1  and  C_2
REMARK    2  A    between atoms: C_2  and  C_25
REMARK    3  A    between atoms: C_3  and  C_4
REMARK    4  A    between atoms: C_3  and  C_10
REMARK    5  A    between atoms: C_13  and  O_14
REMARK    6  A    between atoms: O_14  and  C_15
REMARK    7  A    between atoms: C_15  and  C_16
REMARK    8  A    between atoms: C_16  and  N_17
REMARK                            x       y       z     vdW  Elec       q    Type
REMARK                         _______ _______ _______ _____ _____    ______ ____
ROOT
ATOM      1  C   UNL     1      -0.173  14.921  18.540  0.00  0.00    +0.000 C 
ATOM      2  C   UNL     1       0.017  13.459  18.860  0.00  0.00    +0.000 C 
ATOM      3  C   UNL     1       1.189  12.874  19.224  0.00  0.00    +0.000 C 
ENDROOT
BRANCH   2   4
ATOM      4  C   UNL     1      -1.232  12.670  18.730  0.00  0.00    +0.000 A 
ATOM      5  C   UNL     1      -1.479  11.960  17.545  0.00  0.00    +0.000 A 
ATOM      6  C   UNL     1      -2.686  11.279  17.373  0.00  0.00    +0.000 A 
ATOM      7  C   UNL     1      -3.637  11.304  18.385  0.00  0.00    +0.000 A 
ATOM      8  F   UNL     1      -4.807  10.674  18.207  0.00  0.00    +0.000 F 
ATOM      9  C   UNL     1      -3.400  11.984  19.575  0.00  0.00    +0.000 A 
ATOM     10  C   UNL     1      -2.192  12.664  19.751  0.00  0.00    +0.000 A 
ENDBRANCH   2   4
BRANCH   3  11
ATOM     11  C   UNL     1       2.410  13.701  19.390  0.00  0.00    +0.000 A 
ATOM     12  C   UNL     1       2.809  14.092  20.673  0.00  0.00    +0.000 A 
ATOM     13  C   UNL     1       3.962  14.857  20.849  0.00  0.00    +0.000 A 
ATOM     14  C   UNL     1       4.725  15.234  19.744  0.00  0.00    +0.000 A 
ATOM     15  C   UNL     1       4.338  14.846  18.464  0.00  0.00    +0.000 A 
ATOM     16  C   UNL     1       3.184  14.078  18.285  0.00  0.00    +0.000 A 
ENDBRANCH   3  11
BRANCH   3  17
ATOM     17  C   UNL     1       1.281  11.401  19.361  0.00  0.00    +0.000 A 
ATOM     18  C   UNL     1       1.796  10.687  18.279  0.00  0.00    +0.000 A 
ATOM     19  C   UNL     1       1.932   9.306  18.345  0.00  0.00    +0.000 A 
ATOM     20  C   UNL     1       1.562   8.604  19.499  0.00  0.00    +0.000 A 
ATOM     21  C   UNL     1       1.039   9.314  20.583  0.00  0.00    +0.000 A 
ATOM     22  C   UNL     1       0.899  10.710  20.516  0.00  0.00    +0.000 A 
BRANCH  20  23
ATOM     23  O   UNL     1       1.687   7.240  19.651  0.00  0.00    +0.000 OA
BRANCH  23  24
ATOM     24  C   UNL     1       2.611   6.651  18.727  0.00  0.00    +0.000 C 
BRANCH  24  25
ATOM     25  C   UNL     1       2.319   5.172  18.453  0.00  0.00    +0.000 C 
BRANCH  25  26
ATOM     26  N   UNL     1       3.300   4.571  17.518  0.00  0.00    +0.000 NA
ATOM     27  C   UNL     1       4.676   5.013  17.840  0.00  0.00    +0.000 C 
ATOM     28  C   UNL     1       5.260   4.386  19.131  0.00  0.00    +0.000 C 
ATOM     29  N   UNL     1       5.164   2.918  19.179  0.00  0.00    +0.000 NA
ATOM     30  C   UNL     1       3.810   2.465  18.834  0.00  0.00    +0.000 C 
ATOM     31  C   UNL     1       3.304   3.089  17.517  0.00  0.00    +0.000 C 
ATOM     32  H   UNL     1       5.403   2.592  20.114  0.00  0.00    +0.000 HD
ENDBRANCH  25  26
ENDBRANCH  24  25
ENDBRANCH  23  24
ENDBRANCH  20  23
ENDBRANCH   3  17
TORSDOF 7
ENDMDL
MODEL 7
REMARK VINA RESULT:      -8.0      0.490      1.396
REMARK  Name = 
REMARK  8 active torsions:
REMARK  status: ('A' for Active; 'I' for Inactive)
REMARK    1  A    between atoms: C_1  and  C_2
REMARK    2  A    between atoms: C_2  and  C_25
REMARK    3  A    between atoms: C_3  and  C_4
REMARK    4  A    between atoms: C_3  and  C_10
REMARK    5  A    between atoms: C_13  and  O_14
REMARK    6  A    between atoms: O_14  and  C_15
REMARK    7  A    between atoms: C_15  and  C_16
REMARK    8  A    between atoms: C_16  and  N_17
REMARK                            x       y       z     vdW  Elec       q    Type
REMARK                         _______ _______ _______ _____ _____    ______ ____
ROOT
ATOM      1  C   UNL     1       3.099   3.188  16.587  0.00  0.00    +0.000 C 
ATOM      2  C   UNL     1       4.321   4.022  16.877  0.00  0.00    +0.000 C 
ATOM      3  C   UNL     1       4.615   4.609  18.068  0.00  0.00    +0.000 C 
ENDROOT
BRANCH   2   4
ATOM      4  C   UNL     1       5.216   4.169  15.703  0.00  0.00    +0.000 A 
ATOM      5  C   UNL     1       6.595   4.335  15.902  0.00  0.00    +0.000 A 
ATOM      6  C   UNL     1       7.441   4.556  14.813  0.00  0.00    +0.000 A 
ATOM      7  C   UNL     1       6.908   4.604  13.532  0.00  0.00    +0.000 A 
ATOM      8  F   UNL     1       7.716   4.846  12.489  0.00  0.00    +0.000 F 
ATOM      9  C   UNL     1       5.547   4.420  13.313  0.00  0.00    +0.000 A 
ATOM     10  C   UNL     1       4.698   4.196  14.401  0.00  0.00    +0.000 A 
ENDBRANCH   2   4
BRANCH   3  11
ATOM     11  C   UNL     1       3.722   4.404  19.235  0.00  0.00    +0.000 A 
ATOM     12  C   UNL     1       2.868   5.437  19.639  0.00  0.00    +0.000 A 
ATOM     13  C   UNL     1       2.011   5.256  20.725  0.00  0.00    +0.000 A 
ATOM     14  C   UNL     1       2.000   4.042  21.411  0.00  0.00    +0.000 A 
ATOM     15  C   UNL     1       2.843   3.008  21.014  0.00  0.00    +0.000 A 
ATOM     16  C   UNL     1       3.702   3.185  19.926  0.00  0.00    +0.000 A 
ENDBRANCH   3  11
BRANCH   3  17
ATOM     17  C   UNL     1       5.768   5.535  18.184  0.00  0.00    +0.000 A 
ATOM     18  C   UNL     1       5.693   6.743  17.492  0.00  0.00    +0.000 A 
ATOM     19  C   UNL     1       6.728   7.667  17.573  0.00  0.00    +0.000 A 
ATOM     20  C   UNL     1       7.859   7.409  18.354  0.00  0.00    +0.000 A 
ATOM     21  C   UNL     1       7.942   6.197  19.044  0.00  0.00    +0.000 A 
ATOM     22  C   UNL     1       6.899   5.260  18.961  0.00  0.00    +0.000 A 
BRANCH  20  23
ATOM     23  O   UNL     1       8.915   8.282  18.504  0.00  0.00    +0.000 OA
BRANCH  23  24
ATOM     24  C   UNL     1       8.534   9.658  18.371  0.00  0.00    +0.000 C 
BRANCH  24  25
ATOM     25  C   UNL     1       9.188  10.563  19.419  0.00  0.00    +0.000 C 
BRANCH  25  26
ATOM     26  N   UNL     1      10.533  11.025  18.999  0.00  0.00    +0.000 NA
ATOM     27  C   UNL     1      10.460  11.777  17.726  0.00  0.00    +0.000 C 
ATOM     28  C   UNL     1       9.824  13.185  17.854  0.00  0.00    +0.000 C 
ATOM     29  N   UNL     1      10.421  14.016  18.911  0.00  0.00    +0.000 NA
ATOM     30  C   UNL     1      10.525  13.272  20.174  0.00  0.00    +0.000 C 
ATOM     31  C   UNL     1      11.206  11.900  19.988  0.00  0.00    +0.000 C 
ATOM     32  H   UNL     1       9.849  14.847  19.053  0.00  0.00    +0.000 HD
ENDBRANCH  25  26
ENDBRANCH  24  25
ENDBRANCH  23  24
ENDBRANCH  20  23
ENDBRANCH   3  17
TORSDOF 7
ENDMDL
MODEL 8
REMARK VINA RESULT:      -8.0      7.261     10.870
REMARK  Name = 
REMARK  8 active torsions:
REMARK  status: ('A' for Active; 'I' for Inactive)
REMARK    1  A    between atoms: C_1  and  C_2
REMARK    2  A    between atoms: C_2  and  C_25
REMARK    3  A    between atoms: C_3  and  C_4
REMARK    4  A    between atoms: C_3  and  C_10
REMARK    5  A    between atoms: C_13  and  O_14
REMARK    6  A    between atoms: O_14  and  C_15
REMARK    7  A    between atoms: C_15  and  C_16
REMARK    8  A    between atoms: C_16  and  N_17
REMARK                            x       y       z     vdW  Elec       q    Type
REMARK                         _______ _______ _______ _____ _____    ______ ____
ROOT
ATOM      1  C   UNL     1      -0.144  14.798  18.346  0.00  0.00    +0.000 C 
ATOM      2  C   UNL     1      -0.008  13.371  18.819  0.00  0.00    +0.000 C 
ATOM      3  C   UNL     1       1.135  12.792  19.271  0.00  0.00    +0.000 C 
ENDROOT
BRANCH   2   4
ATOM      4  C   UNL     1      -1.279  12.610  18.737  0.00  0.00    +0.000 A 
ATOM      5  C   UNL     1      -1.541  11.823  17.605  0.00  0.00    +0.000 A 
ATOM      6  C   UNL     1      -2.767  11.166  17.474  0.00  0.00    +0.000 A 
ATOM      7  C   UNL     1      -3.721  11.292  18.474  0.00  0.00    +0.000 A 
ATOM      8  F   UNL     1      -4.908  10.684  18.334  0.00  0.00    +0.000 F 
ATOM      9  C   UNL     1      -3.470  12.049  19.614  0.00  0.00    +0.000 A 
ATOM     10  C   UNL     1      -2.244  12.706  19.749  0.00  0.00    +0.000 A 
ENDBRANCH   2   4
BRANCH   3  11
ATOM     11  C   UNL     1       2.378  13.594  19.383  0.00  0.00    +0.000 A 
ATOM     12  C   UNL     1       2.784  14.063  20.637  0.00  0.00    +0.000 A 
ATOM     13  C   UNL     1       3.958  14.807  20.763  0.00  0.00    +0.000 A 
ATOM     14  C   UNL     1       4.734  15.084  19.638  0.00  0.00    +0.000 A 
ATOM     15  C   UNL     1       4.339  14.618  18.387  0.00  0.00    +0.000 A 
ATOM     16  C   UNL     1       3.165  13.872  18.257  0.00  0.00    +0.000 A 
ENDBRANCH   3  11
BRANCH   3  17
ATOM     17  C   UNL     1       1.177  11.338  19.559  0.00  0.00    +0.000 A 
ATOM     18  C   UNL     1       1.575  10.490  18.526  0.00  0.00    +0.000 A 
ATOM     19  C   UNL     1       1.658   9.118  18.731  0.00  0.00    +0.000 A 
ATOM     20  C   UNL     1       1.351   8.561  19.978  0.00  0.00    +0.000 A 
ATOM     21  C   UNL     1       0.944   9.405  21.014  0.00  0.00    +0.000 A 
ATOM     22  C   UNL     1       0.857  10.792  20.807  0.00  0.00    +0.000 A 
BRANCH  20  23
ATOM     23  O   UNL     1       1.430   7.216  20.268  0.00  0.00    +0.000 OA
BRANCH  23  24
ATOM     24  C   UNL     1       2.503   6.553  19.586  0.00  0.00    +0.000 C 
BRANCH  24  25
ATOM     25  C   UNL     1       2.444   5.028  19.718  0.00  0.00    +0.000 C 
BRANCH  25  26
ATOM     26  N   UNL     1       1.776   4.390  18.558  0.00  0.00    +0.000 NA
ATOM     27  C   UNL     1       2.770   3.962  17.547  0.00  0.00    +0.000 C 
ATOM     28  C   UNL     1       3.611   2.729  17.964  0.00  0.00    +0.000 C 
ATOM     29  N   UNL     1       2.807   1.583  18.416  0.00  0.00    +0.000 NA
ATOM     30  C   UNL     1       1.799   1.999  19.400  0.00  0.00    +0.000 C 
ATOM     31  C   UNL     1       0.965   3.201  18.908  0.00  0.00    +0.000 C 
ATOM     32  H   UNL     1       3.418   0.882  18.832  0.00  0.00    +0.000 HD
ENDBRANCH  25  26
ENDBRANCH  24  25
ENDBRANCH  23  24
ENDBRANCH  20  23
ENDBRANCH   3  17
TORSDOF 7
ENDMDL
MODEL 9
REMARK VINA RESULT:      -8.0      0.595      1.806
REMARK  Name = 
REMARK  8 active torsions:
REMARK  status: ('A' for Active; 'I' for Inactive)
REMARK    1  A    between atoms: C_1  and  C_2
REMARK    2  A    between atoms: C_2  and  C_25
REMARK    3  A    between atoms: C_3  and  C_4
REMARK    4  A    between atoms: C_3  and  C_10
REMARK    5  A    between atoms: C_13  and  O_14
REMARK    6  A    between atoms: O_14  and  C_15
REMARK    7  A    between atoms: C_15  and  C_16
REMARK    8  A    between atoms: C_16  and  N_17
REMARK                            x       y       z     vdW  Elec       q    Type
REMARK                         _______ _______ _______ _____ _____    ______ ____
ROOT
ATOM      1  C   UNL     1       3.190   2.992  16.644  0.00  0.00    +0.000 C 
ATOM      2  C   UNL     1       4.367   3.898  16.905  0.00  0.00    +0.000 C 
ATOM      3  C   UNL     1       4.670   4.481  18.095  0.00  0.00    +0.000 C 
ENDROOT
BRANCH   2   4
ATOM      4  C   UNL     1       5.203   4.124  15.700  0.00  0.00    +0.000 A 
ATOM      5  C   UNL     1       4.605   4.106  14.431  0.00  0.00    +0.000 A 
ATOM      6  C   UNL     1       5.389   4.234  13.282  0.00  0.00    +0.000 A 
ATOM      7  C   UNL     1       6.763   4.385  13.405  0.00  0.00    +0.000 A 
ATOM      8  F   UNL     1       7.518   4.479  12.302  0.00  0.00    +0.000 F 
ATOM      9  C   UNL     1       7.371   4.428  14.655  0.00  0.00    +0.000 A 
ATOM     10  C   UNL     1       6.589   4.302  15.807  0.00  0.00    +0.000 A 
ENDBRANCH   2   4
BRANCH   3  11
ATOM     11  C   UNL     1       3.839   4.198  19.291  0.00  0.00    +0.000 A 
ATOM     12  C   UNL     1       2.936   5.165  19.747  0.00  0.00    +0.000 A 
ATOM     13  C   UNL     1       2.136   4.909  20.862  0.00  0.00    +0.000 A 
ATOM     14  C   UNL     1       2.231   3.686  21.524  0.00  0.00    +0.000 A 
ATOM     15  C   UNL     1       3.124   2.717  21.074  0.00  0.00    +0.000 A 
ATOM     16  C   UNL     1       3.926   2.968  19.958  0.00  0.00    +0.000 A 
ENDBRANCH   3  11
BRANCH   3  17
ATOM     17  C   UNL     1       5.766   5.476  18.186  0.00  0.00    +0.000 A 
ATOM     18  C   UNL     1       5.600   6.677  17.498  0.00  0.00    +0.000 A 
ATOM     19  C   UNL     1       6.577   7.665  17.556  0.00  0.00    +0.000 A 
ATOM     20  C   UNL     1       7.740   7.477  18.312  0.00  0.00    +0.000 A 
ATOM     21  C   UNL     1       7.914   6.272  18.997  0.00  0.00    +0.000 A 
ATOM     22  C   UNL     1       6.929   5.273  18.937  0.00  0.00    +0.000 A 
BRANCH  20  23
ATOM     23  O   UNL     1       8.743   8.414  18.438  0.00  0.00    +0.000 OA
BRANCH  23  24
ATOM     24  C   UNL     1       8.310   9.748  18.142  0.00  0.00    +0.000 C 
BRANCH  24  25
ATOM     25  C   UNL     1       9.444  10.775  18.217  0.00  0.00    +0.000 C 
BRANCH  25  26
ATOM     26  N   UNL     1       9.260  11.733  19.333  0.00  0.00    +0.000 NA
ATOM     27  C   UNL     1      10.274  11.516  20.389  0.00  0.00    +0.000 C 
ATOM     28  C   UNL     1      11.704  11.972  20.002  0.00  0.00    +0.000 C 
ATOM     29  N   UNL     1      11.773  13.352  19.495  0.00  0.00    +0.000 NA
ATOM     30  C   UNL     1      10.753  13.590  18.465  0.00  0.00    +0.000 C 
ATOM     31  C   UNL     1       9.346  13.156  18.927  0.00  0.00    +0.000 C 
ATOM     32  H   UNL     1      12.698  13.524  19.102  0.00  0.00    +0.000 HD
ENDBRANCH  25  26
ENDBRANCH  24  25
ENDBRANCH  23  24
ENDBRANCH  20  23
ENDBRANCH   3  17
TORSDOF 7
ENDMDL
