MODEL 1
REMARK VINA RESULT:      -6.5      0.000      0.000
REMARK  Name = 
REMARK  8 active torsions:
REMARK  status: ('A' for Active; 'I' for Inactive)
REMARK    1  A    between atoms: C_1  and  C_2
REMARK    2  A    between atoms: C_2  and  O_3
REMARK    3  A    between atoms: O_3  and  C_4
REMARK    4  A    between atoms: C_4  and  C_5
REMARK    5  A    between atoms: N_7  and  C_8
REMARK    6  A    between atoms: C_8  and  C_9
REMARK    7  A    between atoms: C_9  and  N_10
REMARK    8  A    between atoms: C_13  and  C_14
REMARK                            x       y       z     vdW  Elec       q    Type
REMARK                         _______ _______ _______ _____ _____    ______ ____
ROOT
ATOM      1  N   UNL     1       5.823   4.813  16.901  0.00  0.00    +0.000 N 
ATOM      2  C   UNL     1       5.540   6.114  17.184  0.00  0.00    +0.000 A 
ATOM      3  C   UNL     1       4.464   6.083  18.034  0.00  0.00    +0.000 A 
ATOM      4  C   UNL     1       4.158   4.706  18.225  0.00  0.00    +0.000 A 
ATOM      5  N   UNL     1       5.015   3.935  17.524  0.00  0.00    +0.000 NA
ENDROOT
BRANCH   4   6
ATOM      6  C   UNL     1       3.086   4.153  19.050  0.00  0.00    +0.000 A 
ATOM      7  C   UNL     1       2.937   2.782  19.230  0.00  0.00    +0.000 A 
ATOM      8  N   UNL     1       1.955   2.239  19.998  0.00  0.00    +0.000 NA
ATOM      9  C   UNL     1       1.125   3.133  20.580  0.00  0.00    +0.000 A 
ATOM     10  C   UNL     1       1.263   4.500  20.402  0.00  0.00    +0.000 A 
ATOM     11  N   UNL     1       2.239   5.041  19.638  0.00  0.00    +0.000 NA
ENDBRANCH   4   6
BRANCH   1  12
ATOM     12  C   UNL     1       6.872   4.330  16.025  0.00  0.00    +0.000 C 
BRANCH  12  13
ATOM     13  C   UNL     1       6.687   4.829  14.594  0.00  0.00    +0.000 C 
BRANCH  13  16
ATOM     14  C   UNL     1       6.331   3.653  12.454  0.00  0.00    +0.000 C 
ATOM     15  O   UNL     1       7.383   4.060  11.967  0.00  0.00    +0.000 OA
ATOM     16  N   UNL     1       5.941   3.907  13.755  0.00  0.00    +0.000 N 
ATOM     17  H   UNL     1       4.963   3.741  13.970  0.00  0.00    +0.000 HD
BRANCH  14  18
ATOM     18  C   UNL     1       5.325   2.819  11.664  0.00  0.00    +0.000 C 
BRANCH  18  19
ATOM     19  O   UNL     1       4.034   3.416  11.607  0.00  0.00    +0.000 OA
BRANCH  19  21
ATOM     20  C   UNL     1       2.876   4.239   9.685  0.00  0.00    +0.000 C 
ATOM     21  C   UNL     1       3.310   3.003  10.445  0.00  0.00    +0.000 C 
ENDBRANCH  19  21
ENDBRANCH  18  19
ENDBRANCH  14  18
ENDBRANCH  13  16
ENDBRANCH  12  13
ENDBRANCH   1  12
TORSDOF 7
ENDMDL
MODEL 2
REMARK VINA RESULT:      -6.5      1.950      2.498
REMARK  Name = 
REMARK  8 active torsions:
REMARK  status: ('A' for Active; 'I' for Inactive)
REMARK    1  A    between atoms: C_1  and  C_2
REMARK    2  A    between atoms: C_2  and  O_3
REMARK    3  A    between atoms: O_3  and  C_4
REMARK    4  A    between atoms: C_4  and  C_5
REMARK    5  A    between atoms: N_7  and  C_8
REMARK    6  A    between atoms: C_8  and  C_9
REMARK    7  A    between atoms: C_9  and  N_10
REMARK    8  A    between atoms: C_13  and  C_14
REMARK                            x       y       z     vdW  Elec       q    Type
REMARK                         _______ _______ _______ _____ _____    ______ ____
ROOT
ATOM      1  N   UNL     1       5.591   6.133  18.220  0.00  0.00    +0.000 N 
ATOM      2  C   UNL     1       4.600   6.730  17.502  0.00  0.00    +0.000 A 
ATOM      3  C   UNL     1       3.429   6.175  17.954  0.00  0.00    +0.000 A 
ATOM      4  C   UNL     1       3.804   5.246  18.965  0.00  0.00    +0.000 A 
ATOM      5  N   UNL     1       5.143   5.240  19.122  0.00  0.00    +0.000 NA
ENDROOT
BRANCH   4   6
ATOM      6  C   UNL     1       2.909   4.398  19.750  0.00  0.00    +0.000 A 
ATOM      7  C   UNL     1       3.397   3.385  20.569  0.00  0.00    +0.000 A 
ATOM      8  N   UNL     1       2.590   2.585  21.317  0.00  0.00    +0.000 NA
ATOM      9  C   UNL     1       1.268   2.847  21.209  0.00  0.00    +0.000 A 
ATOM     10  C   UNL     1       0.773   3.851  20.392  0.00  0.00    +0.000 A 
ATOM     11  N   UNL     1       1.575   4.646  19.647  0.00  0.00    +0.000 NA
ENDBRANCH   4   6
BRANCH   1  12
ATOM     12  C   UNL     1       7.014   6.375  18.090  0.00  0.00    +0.000 C 
BRANCH  12  13
ATOM     13  C   UNL     1       7.780   5.090  17.787  0.00  0.00    +0.000 C 
BRANCH  13  16
ATOM     14  C   UNL     1       6.974   4.516  15.527  0.00  0.00    +0.000 C 
ATOM     15  O   UNL     1       7.560   5.456  14.996  0.00  0.00    +0.000 OA
ATOM     16  N   UNL     1       7.082   4.207  16.868  0.00  0.00    +0.000 N 
ATOM     17  H   UNL     1       6.376   3.580  17.242  0.00  0.00    +0.000 HD
BRANCH  14  18
ATOM     18  C   UNL     1       6.045   3.582  14.755  0.00  0.00    +0.000 C 
BRANCH  18  19
ATOM     19  O   UNL     1       5.671   4.098  13.482  0.00  0.00    +0.000 OA
BRANCH  19  21
ATOM     20  C   UNL     1       7.248   4.420  11.714  0.00  0.00    +0.000 C 
ATOM     21  C   UNL     1       6.348   3.425  12.417  0.00  0.00    +0.000 C 
ENDBRANCH  19  21
ENDBRANCH  18  19
ENDBRANCH  14  18
ENDBRANCH  13  16
ENDBRANCH  12  13
ENDBRANCH   1  12
TORSDOF 7
ENDMDL
MODEL 3
REMARK VINA RESULT:      -6.4      1.431      1.905
REMARK  Name = 
REMARK  8 active torsions:
REMARK  status: ('A' for Active; 'I' for Inactive)
REMARK    1  A    between atoms: C_1  and  C_2
REMARK    2  A    between atoms: C_2  and  O_3
REMARK    3  A    between atoms: O_3  and  C_4
REMARK    4  A    between atoms: C_4  and  C_5
REMARK    5  A    between atoms: N_7  and  C_8
REMARK    6  A    between atoms: C_8  and  C_9
REMARK    7  A    between atoms: C_9  and  N_10
REMARK    8  A    between atoms: C_13  and  C_14
REMARK                            x       y       z     vdW  Elec       q    Type
REMARK                         _______ _______ _______ _____ _____    ______ ____
ROOT
ATOM      1  N   UNL     1       5.355   5.911  17.498  0.00  0.00    +0.000 N 
ATOM      2  C   UNL     1       4.389   6.849  17.298  0.00  0.00    +0.000 A 
ATOM      3  C   UNL     1       3.297   6.413  18.005  0.00  0.00    +0.000 A 
ATOM      4  C   UNL     1       3.693   5.193  18.620  0.00  0.00    +0.000 A 
ATOM      5  N   UNL     1       4.972   4.902  18.303  0.00  0.00    +0.000 NA
ENDROOT
BRANCH   4   6
ATOM      6  C   UNL     1       2.876   4.340  19.480  0.00  0.00    +0.000 A 
ATOM      7  C   UNL     1       1.487   4.424  19.483  0.00  0.00    +0.000 A 
ATOM      8  N   UNL     1       0.700   3.638  20.266  0.00  0.00    +0.000 NA
ATOM      9  C   UNL     1       1.367   2.761  21.048  0.00  0.00    +0.000 A 
ATOM     10  C   UNL     1       2.750   2.675  21.056  0.00  0.00    +0.000 A 
ATOM     11  N   UNL     1       3.534   3.456  20.278  0.00  0.00    +0.000 NA
ENDBRANCH   4   6
BRANCH   1  12
ATOM     12  C   UNL     1       6.692   5.918  16.938  0.00  0.00    +0.000 C 
BRANCH  12  13
ATOM     13  C   UNL     1       7.147   4.515  16.545  0.00  0.00    +0.000 C 
BRANCH  13  16
ATOM     14  C   UNL     1       6.901   4.640  14.093  0.00  0.00    +0.000 C 
ATOM     15  O   UNL     1       7.789   5.479  13.970  0.00  0.00    +0.000 OA
ATOM     16  N   UNL     1       6.567   4.050  15.296  0.00  0.00    +0.000 N 
ATOM     17  H   UNL     1       5.673   3.570  15.327  0.00  0.00    +0.000 HD
BRANCH  14  18
ATOM     18  C   UNL     1       6.053   4.158  12.918  0.00  0.00    +0.000 C 
BRANCH  18  19
ATOM     19  O   UNL     1       6.642   3.066  12.220  0.00  0.00    +0.000 OA
BRANCH  19  21
ATOM     20  C   UNL     1       4.384   3.090  11.434  0.00  0.00    +0.000 C 
ATOM     21  C   UNL     1       5.660   2.280  11.541  0.00  0.00    +0.000 C 
ENDBRANCH  19  21
ENDBRANCH  18  19
ENDBRANCH  14  18
ENDBRANCH  13  16
ENDBRANCH  12  13
ENDBRANCH   1  12
TORSDOF 7
ENDMDL
MODEL 4
REMARK VINA RESULT:      -6.4      1.129      1.198
REMARK  Name = 
REMARK  8 active torsions:
REMARK  status: ('A' for Active; 'I' for Inactive)
REMARK    1  A    between atoms: C_1  and  C_2
REMARK    2  A    between atoms: C_2  and  O_3
REMARK    3  A    between atoms: O_3  and  C_4
REMARK    4  A    between atoms: C_4  and  C_5
REMARK    5  A    between atoms: N_7  and  C_8
REMARK    6  A    between atoms: C_8  and  C_9
REMARK    7  A    between atoms: C_9  and  N_10
REMARK    8  A    between atoms: C_13  and  C_14
REMARK                            x       y       z     vdW  Elec       q    Type
REMARK                         _______ _______ _______ _____ _____    ______ ____
ROOT
ATOM      1  N   UNL     1       5.796   4.939  16.373  0.00  0.00    +0.000 N 
ATOM      2  C   UNL     1       6.541   4.814  17.506  0.00  0.00    +0.000 A 
ATOM      3  C   UNL     1       5.675   4.365  18.471  0.00  0.00    +0.000 A 
ATOM      4  C   UNL     1       4.412   4.234  17.830  0.00  0.00    +0.000 A 
ATOM      5  N   UNL     1       4.507   4.584  16.531  0.00  0.00    +0.000 NA
ENDROOT
BRANCH   4   6
ATOM      6  C   UNL     1       3.162   3.788  18.441  0.00  0.00    +0.000 A 
ATOM      7  C   UNL     1       2.503   2.643  18.003  0.00  0.00    +0.000 A 
ATOM      8  N   UNL     1       1.343   2.199  18.557  0.00  0.00    +0.000 NA
ATOM      9  C   UNL     1       0.870   2.954  19.574  0.00  0.00    +0.000 A 
ATOM     10  C   UNL     1       1.517   4.098  20.013  0.00  0.00    +0.000 A 
ATOM     11  N   UNL     1       2.670   4.541  19.462  0.00  0.00    +0.000 NA
ENDBRANCH   4   6
BRANCH   1  12
ATOM     12  C   UNL     1       6.264   5.402  15.081  0.00  0.00    +0.000 C 
BRANCH  12  13
ATOM     13  C   UNL     1       6.550   4.239  14.135  0.00  0.00    +0.000 C 
BRANCH  13  16
ATOM     14  C   UNL     1       5.516   3.197  12.151  0.00  0.00    +0.000 C 
ATOM     15  O   UNL     1       6.593   2.852  11.675  0.00  0.00    +0.000 OA
ATOM     16  N   UNL     1       5.383   3.808  13.383  0.00  0.00    +0.000 N 
ATOM     17  H   UNL     1       4.495   4.267  13.563  0.00  0.00    +0.000 HD
BRANCH  14  18
ATOM     18  C   UNL     1       4.189   2.994  11.422  0.00  0.00    +0.000 C 
BRANCH  18  19
ATOM     19  O   UNL     1       3.804   4.123  10.646  0.00  0.00    +0.000 OA
BRANCH  19  21
ATOM     20  C   UNL     1       2.306   5.003   9.004  0.00  0.00    +0.000 C 
ATOM     21  C   UNL     1       2.961   3.752   9.552  0.00  0.00    +0.000 C 
ENDBRANCH  19  21
ENDBRANCH  18  19
ENDBRANCH  14  18
ENDBRANCH  13  16
ENDBRANCH  12  13
ENDBRANCH   1  12
TORSDOF 7
ENDMDL
MODEL 5
REMARK VINA RESULT:      -6.3      3.272      5.506
REMARK  Name = 
REMARK  8 active torsions:
REMARK  status: ('A' for Active; 'I' for Inactive)
REMARK    1  A    between atoms: C_1  and  C_2
REMARK    2  A    between atoms: C_2  and  O_3
REMARK    3  A    between atoms: O_3  and  C_4
REMARK    4  A    between atoms: C_4  and  C_5
REMARK    5  A    between atoms: N_7  and  C_8
REMARK    6  A    between atoms: C_8  and  C_9
REMARK    7  A    between atoms: C_9  and  N_10
REMARK    8  A    between atoms: C_13  and  C_14
REMARK                            x       y       z     vdW  Elec       q    Type
REMARK                         _______ _______ _______ _____ _____    ______ ____
ROOT
ATOM      1  N   UNL     1       2.895   4.126  19.308  0.00  0.00    +0.000 N 
ATOM      2  C   UNL     1       2.503   4.255  20.606  0.00  0.00    +0.000 A 
ATOM      3  C   UNL     1       2.123   5.566  20.749  0.00  0.00    +0.000 A 
ATOM      4  C   UNL     1       2.309   6.167  19.472  0.00  0.00    +0.000 A 
ATOM      5  N   UNL     1       2.778   5.259  18.592  0.00  0.00    +0.000 NA
ENDROOT
BRANCH   4   6
ATOM      6  C   UNL     1       2.045   7.559  19.113  0.00  0.00    +0.000 A 
ATOM      7  C   UNL     1       2.423   8.077  17.878  0.00  0.00    +0.000 A 
ATOM      8  N   UNL     1       2.183   9.365  17.512  0.00  0.00    +0.000 NA
ATOM      9  C   UNL     1       1.547  10.113  18.440  0.00  0.00    +0.000 A 
ATOM     10  C   UNL     1       1.173   9.607  19.675  0.00  0.00    +0.000 A 
ATOM     11  N   UNL     1       1.411   8.327  20.040  0.00  0.00    +0.000 NA
ENDBRANCH   4   6
BRANCH   1  12
ATOM     12  C   UNL     1       3.402   2.923  18.677  0.00  0.00    +0.000 C 
BRANCH  12  13
ATOM     13  C   UNL     1       4.041   3.222  17.324  0.00  0.00    +0.000 C 
BRANCH  13  16
ATOM     14  C   UNL     1       6.100   4.145  16.326  0.00  0.00    +0.000 C 
ATOM     15  O   UNL     1       5.782   3.825  15.184  0.00  0.00    +0.000 OA
ATOM     16  N   UNL     1       5.284   3.966  17.426  0.00  0.00    +0.000 N 
ATOM     17  H   UNL     1       5.735   4.032  18.334  0.00  0.00    +0.000 HD
BRANCH  14  18
ATOM     18  C   UNL     1       7.450   4.777  16.660  0.00  0.00    +0.000 C 
BRANCH  18  19
ATOM     19  O   UNL     1       7.443   6.195  16.540  0.00  0.00    +0.000 OA
BRANCH  19  21
ATOM     20  C   UNL     1       7.823   8.293  17.620  0.00  0.00    +0.000 C 
ATOM     21  C   UNL     1       7.464   6.835  17.818  0.00  0.00    +0.000 C 
ENDBRANCH  19  21
ENDBRANCH  18  19
ENDBRANCH  14  18
ENDBRANCH  13  16
ENDBRANCH  12  13
ENDBRANCH   1  12
TORSDOF 7
ENDMDL
MODEL 6
REMARK VINA RESULT:      -6.3      1.794      2.448
REMARK  Name = 
REMARK  8 active torsions:
REMARK  status: ('A' for Active; 'I' for Inactive)
REMARK    1  A    between atoms: C_1  and  C_2
REMARK    2  A    between atoms: C_2  and  O_3
REMARK    3  A    between atoms: O_3  and  C_4
REMARK    4  A    between atoms: C_4  and  C_5
REMARK    5  A    between atoms: N_7  and  C_8
REMARK    6  A    between atoms: C_8  and  C_9
REMARK    7  A    between atoms: C_9  and  N_10
REMARK    8  A    between atoms: C_13  and  C_14
REMARK                            x       y       z     vdW  Elec       q    Type
REMARK                         _______ _______ _______ _____ _____    ______ ____
ROOT
ATOM      1  N   UNL     1       5.729   5.709  18.491  0.00  0.00    +0.000 N 
ATOM      2  C   UNL     1       4.836   6.538  17.885  0.00  0.00    +0.000 A 
ATOM      3  C   UNL     1       3.597   6.108  18.288  0.00  0.00    +0.000 A 
ATOM      4  C   UNL     1       3.832   5.005  19.157  0.00  0.00    +0.000 A 
ATOM      5  N   UNL     1       5.156   4.779  19.278  0.00  0.00    +0.000 NA
ENDROOT
BRANCH   4   6
ATOM      6  C   UNL     1       2.823   4.202  19.845  0.00  0.00    +0.000 A 
ATOM      7  C   UNL     1       2.871   3.992  21.219  0.00  0.00    +0.000 A 
ATOM      8  N   UNL     1       1.943   3.256  21.887  0.00  0.00    +0.000 NA
ATOM      9  C   UNL     1       0.961   2.738  21.116  0.00  0.00    +0.000 A 
ATOM     10  C   UNL     1       0.909   2.938  19.746  0.00  0.00    +0.000 A 
ATOM     11  N   UNL     1       1.832   3.669  19.081  0.00  0.00    +0.000 NA
ENDBRANCH   4   6
BRANCH   1  12
ATOM     12  C   UNL     1       7.172   5.751  18.358  0.00  0.00    +0.000 C 
BRANCH  12  13
ATOM     13  C   UNL     1       7.689   4.632  17.459  0.00  0.00    +0.000 C 
BRANCH  13  16
ATOM     14  C   UNL     1       6.499   4.288  15.325  0.00  0.00    +0.000 C 
ATOM     15  O   UNL     1       5.619   3.601  15.837  0.00  0.00    +0.000 OA
ATOM     16  N   UNL     1       7.507   4.901  16.042  0.00  0.00    +0.000 N 
ATOM     17  H   UNL     1       8.305   5.227  15.506  0.00  0.00    +0.000 HD
BRANCH  14  18
ATOM     18  C   UNL     1       6.580   4.534  13.820  0.00  0.00    +0.000 C 
BRANCH  18  19
ATOM     19  O   UNL     1       6.581   3.330  13.060  0.00  0.00    +0.000 OA
BRANCH  19  21
ATOM     20  C   UNL     1       5.526   1.962  11.408  0.00  0.00    +0.000 C 
ATOM     21  C   UNL     1       5.529   3.314  12.091  0.00  0.00    +0.000 C 
ENDBRANCH  19  21
ENDBRANCH  18  19
ENDBRANCH  14  18
ENDBRANCH  13  16
ENDBRANCH  12  13
ENDBRANCH   1  12
TORSDOF 7
ENDMDL
MODEL 7
REMARK VINA RESULT:      -6.3      3.627      5.564
REMARK  Name = 
REMARK  8 active torsions:
REMARK  status: ('A' for Active; 'I' for Inactive)
REMARK    1  A    between atoms: C_1  and  C_2
REMARK    2  A    between atoms: C_2  and  O_3
REMARK    3  A    between atoms: O_3  and  C_4
REMARK    4  A    between atoms: C_4  and  C_5
REMARK    5  A    between atoms: N_7  and  C_8
REMARK    6  A    between atoms: C_8  and  C_9
REMARK    7  A    between atoms: C_9  and  N_10
REMARK    8  A    between atoms: C_13  and  C_14
REMARK                            x       y       z     vdW  Elec       q    Type
REMARK                         _______ _______ _______ _____ _____    ______ ____
ROOT
ATOM      1  N   UNL     1       4.635   4.348  16.562  0.00  0.00    +0.000 N 
ATOM      2  C   UNL     1       4.207   3.375  17.413  0.00  0.00    +0.000 A 
ATOM      3  C   UNL     1       3.436   4.015  18.350  0.00  0.00    +0.000 A 
ATOM      4  C   UNL     1       3.440   5.390  17.984  0.00  0.00    +0.000 A 
ATOM      5  N   UNL     1       4.179   5.576  16.871  0.00  0.00    +0.000 NA
ENDROOT
BRANCH   4   6
ATOM      6  C   UNL     1       2.760   6.483  18.676  0.00  0.00    +0.000 A 
ATOM      7  C   UNL     1       2.522   7.704  18.054  0.00  0.00    +0.000 A 
ATOM      8  N   UNL     1       1.884   8.736  18.670  0.00  0.00    +0.000 NA
ATOM      9  C   UNL     1       1.493   8.490  19.939  0.00  0.00    +0.000 A 
ATOM     10  C   UNL     1       1.731   7.278  20.569  0.00  0.00    +0.000 A 
ATOM     11  N   UNL     1       2.365   6.252  19.958  0.00  0.00    +0.000 NA
ENDBRANCH   4   6
BRANCH   1  12
ATOM     12  C   UNL     1       5.499   4.168  15.412  0.00  0.00    +0.000 C 
BRANCH  12  13
ATOM     13  C   UNL     1       6.973   4.160  15.809  0.00  0.00    +0.000 C 
BRANCH  13  16
ATOM     14  C   UNL     1       7.580   5.461  17.816  0.00  0.00    +0.000 C 
ATOM     15  O   UNL     1       7.528   4.484  18.559  0.00  0.00    +0.000 OA
ATOM     16  N   UNL     1       7.403   5.392  16.448  0.00  0.00    +0.000 N 
ATOM     17  H   UNL     1       7.220   6.272  15.975  0.00  0.00    +0.000 HD
BRANCH  14  18
ATOM     18  C   UNL     1       7.840   6.875  18.331  0.00  0.00    +0.000 C 
BRANCH  18  19
ATOM     19  O   UNL     1       8.037   7.818  17.284  0.00  0.00    +0.000 OA
BRANCH  19  21
ATOM     20  C   UNL     1       8.843   9.581  18.683  0.00  0.00    +0.000 C 
ATOM     21  C   UNL     1       7.760   9.154  17.714  0.00  0.00    +0.000 C 
ENDBRANCH  19  21
ENDBRANCH  18  19
ENDBRANCH  14  18
ENDBRANCH  13  16
ENDBRANCH  12  13
ENDBRANCH   1  12
TORSDOF 7
ENDMDL
MODEL 8
REMARK VINA RESULT:      -6.3      1.581      2.120
REMARK  Name = 
REMARK  8 active torsions:
REMARK  status: ('A' for Active; 'I' for Inactive)
REMARK    1  A    between atoms: C_1  and  C_2
REMARK    2  A    between atoms: C_2  and  O_3
REMARK    3  A    between atoms: O_3  and  C_4
REMARK    4  A    between atoms: C_4  and  C_5
REMARK    5  A    between atoms: N_7  and  C_8
REMARK    6  A    between atoms: C_8  and  C_9
REMARK    7  A    between atoms: C_9  and  N_10
REMARK    8  A    between atoms: C_13  and  C_14
REMARK                            x       y       z     vdW  Elec       q    Type
REMARK                         _______ _______ _______ _____ _____    ______ ____
ROOT
ATOM      1  N   UNL     1       4.984   6.694  17.599  0.00  0.00    +0.000 N 
ATOM      2  C   UNL     1       3.887   7.495  17.505  0.00  0.00    +0.000 A 
ATOM      3  C   UNL     1       2.837   6.742  17.967  0.00  0.00    +0.000 A 
ATOM      4  C   UNL     1       3.392   5.484  18.333  0.00  0.00    +0.000 A 
ATOM      5  N   UNL     1       4.722   5.475  18.108  0.00  0.00    +0.000 NA
ENDROOT
BRANCH   4   6
ATOM      6  C   UNL     1       2.673   4.336  18.881  0.00  0.00    +0.000 A 
ATOM      7  C   UNL     1       3.021   3.031  18.548  0.00  0.00    +0.000 A 
ATOM      8  N   UNL     1       2.375   1.943  19.047  0.00  0.00    +0.000 NA
ATOM      9  C   UNL     1       1.364   2.220  19.899  0.00  0.00    +0.000 A 
ATOM     10  C   UNL     1       1.007   3.517  20.232  0.00  0.00    +0.000 A 
ATOM     11  N   UNL     1       1.647   4.599  19.735  0.00  0.00    +0.000 NA
ENDBRANCH   4   6
BRANCH   1  12
ATOM     12  C   UNL     1       6.338   7.037  17.210  0.00  0.00    +0.000 C 
BRANCH  12  13
ATOM     13  C   UNL     1       7.020   5.892  16.467  0.00  0.00    +0.000 C 
BRANCH  13  16
ATOM     14  C   UNL     1       5.938   4.288  14.935  0.00  0.00    +0.000 C 
ATOM     15  O   UNL     1       5.912   3.389  15.771  0.00  0.00    +0.000 OA
ATOM     16  N   UNL     1       6.385   5.568  15.201  0.00  0.00    +0.000 N 
ATOM     17  H   UNL     1       6.594   6.146  14.393  0.00  0.00    +0.000 HD
BRANCH  14  18
ATOM     18  C   UNL     1       5.482   4.086  13.492  0.00  0.00    +0.000 C 
BRANCH  18  19
ATOM     19  O   UNL     1       6.393   3.304  12.727  0.00  0.00    +0.000 OA
BRANCH  19  21
ATOM     20  C   UNL     1       4.350   3.196  11.490  0.00  0.00    +0.000 C 
ATOM     21  C   UNL     1       5.732   2.602  11.670  0.00  0.00    +0.000 C 
ENDBRANCH  19  21
ENDBRANCH  18  19
ENDBRANCH  14  18
ENDBRANCH  13  16
ENDBRANCH  12  13
ENDBRANCH   1  12
TORSDOF 7
ENDMDL
MODEL 9
REMARK VINA RESULT:      -6.3      3.034      5.161
REMARK  Name = 
REMARK  8 active torsions:
REMARK  status: ('A' for Active; 'I' for Inactive)
REMARK    1  A    between atoms: C_1  and  C_2
REMARK    2  A    between atoms: C_2  and  O_3
REMARK    3  A    between atoms: O_3  and  C_4
REMARK    4  A    between atoms: C_4  and  C_5
REMARK    5  A    between atoms: N_7  and  C_8
REMARK    6  A    between atoms: C_8  and  C_9
REMARK    7  A    between atoms: C_9  and  N_10
REMARK    8  A    between atoms: C_13  and  C_14
REMARK                            x       y       z     vdW  Elec       q    Type
REMARK                         _______ _______ _______ _____ _____    ______ ____
ROOT
ATOM      1  N   UNL     1       3.159   4.337  19.840  0.00  0.00    +0.000 N 
ATOM      2  C   UNL     1       2.220   4.375  20.825  0.00  0.00    +0.000 A 
ATOM      3  C   UNL     1       1.670   5.631  20.764  0.00  0.00    +0.000 A 
ATOM      4  C   UNL     1       2.334   6.295  19.696  0.00  0.00    +0.000 A 
ATOM      5  N   UNL     1       3.245   5.478  19.130  0.00  0.00    +0.000 NA
ENDROOT
BRANCH   4   6
ATOM      6  C   UNL     1       2.101   7.663  19.235  0.00  0.00    +0.000 A 
ATOM      7  C   UNL     1       2.530   8.094  17.984  0.00  0.00    +0.000 A 
ATOM      8  N   UNL     1       2.320   9.357  17.526  0.00  0.00    +0.000 NA
ATOM      9  C   UNL     1       1.660  10.172  18.378  0.00  0.00    +0.000 A 
ATOM     10  C   UNL     1       1.235   9.752  19.628  0.00  0.00    +0.000 A 
ATOM     11  N   UNL     1       1.443   8.497  20.085  0.00  0.00    +0.000 NA
ENDBRANCH   4   6
BRANCH   1  12
ATOM     12  C   UNL     1       4.027   3.221  19.519  0.00  0.00    +0.000 C 
BRANCH  12  13
ATOM     13  C   UNL     1       5.479   3.662  19.362  0.00  0.00    +0.000 C 
BRANCH  13  16
ATOM     14  C   UNL     1       7.014   4.764  17.776  0.00  0.00    +0.000 C 
ATOM     15  O   UNL     1       7.983   4.663  18.523  0.00  0.00    +0.000 OA
ATOM     16  N   UNL     1       5.770   4.237  18.060  0.00  0.00    +0.000 N 
ATOM     17  H   UNL     1       4.996   4.588  17.503  0.00  0.00    +0.000 HD
BRANCH  14  18
ATOM     18  C   UNL     1       7.078   5.499  16.438  0.00  0.00    +0.000 C 
BRANCH  18  19
ATOM     19  O   UNL     1       7.703   4.733  15.414  0.00  0.00    +0.000 OA
BRANCH  19  21
ATOM     20  C   UNL     1       5.698   4.193  14.228  0.00  0.00    +0.000 C 
ATOM     21  C   UNL     1       7.042   4.890  14.156  0.00  0.00    +0.000 C 
ENDBRANCH  19  21
ENDBRANCH  18  19
ENDBRANCH  14  18
ENDBRANCH  13  16
ENDBRANCH  12  13
ENDBRANCH   1  12
TORSDOF 7
ENDMDL
