MODEL 1
REMARK VINA RESULT:      -6.4      0.000      0.000
REMARK  Name = 
REMARK  1 active torsions:
REMARK  status: ('A' for Active; 'I' for Inactive)
REMARK    1  A    between atoms: C_4  and  C_5
REMARK                            x       y       z     vdW  Elec       q    Type
REMARK                         _______ _______ _______ _____ _____    ______ ____
ROOT
ATOM      1  C   UNL     1       3.803   4.809  18.560  0.00  0.00    +0.000 A 
ATOM      2  C   UNL     1       3.919   5.671  17.369  0.00  0.00    +0.000 A 
ATOM      3  C   UNL     1       5.069   6.309  17.100  0.00  0.00    +0.000 A 
ATOM      4  N   UNL     1       6.141   6.155  17.966  0.00  0.00    +0.000 N 
ATOM      5  C   UNL     1       7.405   6.679  17.896  0.00  0.00    +0.000 A 
ATOM      6  C   UNL     1       8.061   6.202  19.006  0.00  0.00    +0.000 A 
ATOM      7  N   UNL     1       7.240   5.400  19.758  0.00  0.00    +0.000 NA
ATOM      8  C   UNL     1       6.091   5.382  19.117  0.00  0.00    +0.000 A 
ATOM      9  C   UNL     1       4.869   4.702  19.394  0.00  0.00    +0.000 A 
ENDROOT
BRANCH   1  13
ATOM     10  C   UNL     1       0.689   3.194  19.903  0.00  0.00    +0.000 A 
ATOM     11  C   UNL     1       0.863   2.274  18.897  0.00  0.00    +0.000 A 
ATOM     12  S   UNL     1       2.217   2.637  17.926  0.00  0.00    +0.000 S 
ATOM     13  C   UNL     1       2.629   4.030  18.865  0.00  0.00    +0.000 A 
ATOM     14  C   UNL     1       1.697   4.201  19.881  0.00  0.00    +0.000 A 
ENDBRANCH   1  13
TORSDOF 1
ENDMDL
MODEL 2
REMARK VINA RESULT:      -6.3      0.877      1.089
REMARK  Name = 
REMARK  1 active torsions:
REMARK  status: ('A' for Active; 'I' for Inactive)
REMARK    1  A    between atoms: C_4  and  C_5
REMARK                            x       y       z     vdW  Elec       q    Type
REMARK                         _______ _______ _______ _____ _____    ______ ____
ROOT
ATOM      1  C   UNL     1       3.806   4.785  18.581  0.00  0.00    +0.000 A 
ATOM      2  C   UNL     1       3.902   5.629  17.375  0.00  0.00    +0.000 A 
ATOM      3  C   UNL     1       5.043   6.274  17.085  0.00  0.00    +0.000 A 
ATOM      4  N   UNL     1       6.124   6.145  17.943  0.00  0.00    +0.000 N 
ATOM      5  C   UNL     1       7.382   6.681  17.854  0.00  0.00    +0.000 A 
ATOM      6  C   UNL     1       8.053   6.229  18.965  0.00  0.00    +0.000 A 
ATOM      7  N   UNL     1       7.247   5.431  19.738  0.00  0.00    +0.000 NA
ATOM      8  C   UNL     1       6.092   5.390  19.107  0.00  0.00    +0.000 A 
ATOM      9  C   UNL     1       4.880   4.703  19.407  0.00  0.00    +0.000 A 
ENDROOT
BRANCH   1  13
ATOM     10  C   UNL     1       0.770   2.581  18.766  0.00  0.00    +0.000 A 
ATOM     11  C   UNL     1       0.682   2.996  20.072  0.00  0.00    +0.000 A 
ATOM     12  S   UNL     1       1.955   4.049  20.496  0.00  0.00    +0.000 S 
ATOM     13  C   UNL     1       2.642   4.000  18.909  0.00  0.00    +0.000 A 
ATOM     14  C   UNL     1       1.895   3.151  18.103  0.00  0.00    +0.000 A 
ENDBRANCH   1  13
TORSDOF 1
ENDMDL
MODEL 3
REMARK VINA RESULT:      -6.3      2.956      5.302
REMARK  Name = 
REMARK  1 active torsions:
REMARK  status: ('A' for Active; 'I' for Inactive)
REMARK    1  A    between atoms: C_4  and  C_5
REMARK                            x       y       z     vdW  Elec       q    Type
REMARK                         _______ _______ _______ _____ _____    ______ ____
ROOT
ATOM      1  C   UNL     1       3.895   3.839  17.913  0.00  0.00    +0.000 A 
ATOM      2  C   UNL     1       2.485   4.035  17.526  0.00  0.00    +0.000 A 
ATOM      3  C   UNL     1       1.499   3.783  18.401  0.00  0.00    +0.000 A 
ATOM      4  N   UNL     1       1.825   3.324  19.668  0.00  0.00    +0.000 N 
ATOM      5  C   UNL     1       1.009   3.020  20.727  0.00  0.00    +0.000 A 
ATOM      6  C   UNL     1       1.853   2.618  21.735  0.00  0.00    +0.000 A 
ATOM      7  N   UNL     1       3.164   2.665  21.331  0.00  0.00    +0.000 NA
ATOM      8  C   UNL     1       3.128   3.093  20.087  0.00  0.00    +0.000 A 
ATOM      9  C   UNL     1       4.172   3.367  19.155  0.00  0.00    +0.000 A 
ENDROOT
BRANCH   1  13
ATOM     10  C   UNL     1       6.389   4.455  15.173  0.00  0.00    +0.000 A 
ATOM     11  C   UNL     1       7.251   4.803  16.184  0.00  0.00    +0.000 A 
ATOM     12  S   UNL     1       6.508   4.716  17.716  0.00  0.00    +0.000 S 
ATOM     13  C   UNL     1       5.007   4.167  17.055  0.00  0.00    +0.000 A 
ATOM     14  C   UNL     1       5.104   4.096  15.671  0.00  0.00    +0.000 A 
ENDBRANCH   1  13
TORSDOF 1
ENDMDL
MODEL 4
REMARK VINA RESULT:      -6.2      2.045      2.796
REMARK  Name = 
REMARK  1 active torsions:
REMARK  status: ('A' for Active; 'I' for Inactive)
REMARK    1  A    between atoms: C_4  and  C_5
REMARK                            x       y       z     vdW  Elec       q    Type
REMARK                         _______ _______ _______ _____ _____    ______ ____
ROOT
ATOM      1  C   UNL     1       4.157   4.008  18.461  0.00  0.00    +0.000 A 
ATOM      2  C   UNL     1       5.451   4.443  19.021  0.00  0.00    +0.000 A 
ATOM      3  C   UNL     1       6.479   4.735  18.209  0.00  0.00    +0.000 A 
ATOM      4  N   UNL     1       6.311   4.610  16.838  0.00  0.00    +0.000 N 
ATOM      5  C   UNL     1       7.192   4.865  15.820  0.00  0.00    +0.000 A 
ATOM      6  C   UNL     1       6.507   4.578  14.663  0.00  0.00    +0.000 A 
ATOM      7  N   UNL     1       5.231   4.153  14.937  0.00  0.00    +0.000 NA
ATOM      8  C   UNL     1       5.130   4.180  16.249  0.00  0.00    +0.000 A 
ATOM      9  C   UNL     1       4.040   3.877  17.115  0.00  0.00    +0.000 A 
ENDROOT
BRANCH   1  13
ATOM     10  C   UNL     1       0.809   3.824  20.154  0.00  0.00    +0.000 A 
ATOM     11  C   UNL     1       1.433   2.999  21.058  0.00  0.00    +0.000 A 
ATOM     12  S   UNL     1       3.069   2.732  20.657  0.00  0.00    +0.000 S 
ATOM     13  C   UNL     1       2.988   3.758  19.267  0.00  0.00    +0.000 A 
ATOM     14  C   UNL     1       1.698   4.253  19.126  0.00  0.00    +0.000 A 
ENDBRANCH   1  13
TORSDOF 1
ENDMDL
MODEL 5
REMARK VINA RESULT:      -6.2      2.767      5.287
REMARK  Name = 
REMARK  1 active torsions:
REMARK  status: ('A' for Active; 'I' for Inactive)
REMARK    1  A    between atoms: C_4  and  C_5
REMARK                            x       y       z     vdW  Elec       q    Type
REMARK                         _______ _______ _______ _____ _____    ______ ____
ROOT
ATOM      1  C   UNL     1       4.078   3.903  18.069  0.00  0.00    +0.000 A 
ATOM      2  C   UNL     1       2.738   4.089  17.481  0.00  0.00    +0.000 A 
ATOM      3  C   UNL     1       1.636   3.839  18.205  0.00  0.00    +0.000 A 
ATOM      4  N   UNL     1       1.776   3.393  19.510  0.00  0.00    +0.000 N 
ATOM      5  C   UNL     1       0.816   3.094  20.441  0.00  0.00    +0.000 A 
ATOM      6  C   UNL     1       1.506   2.704  21.565  0.00  0.00    +0.000 A 
ATOM      7  N   UNL     1       2.861   2.754  21.355  0.00  0.00    +0.000 NA
ATOM      8  C   UNL     1       3.005   3.171  20.115  0.00  0.00    +0.000 A 
ATOM      9  C   UNL     1       4.172   3.443  19.343  0.00  0.00    +0.000 A 
ENDROOT
BRANCH   1  13
ATOM     10  C   UNL     1       7.504   4.904  16.900  0.00  0.00    +0.000 A 
ATOM     11  C   UNL     1       6.999   4.747  15.632  0.00  0.00    +0.000 A 
ATOM     12  S   UNL     1       5.376   4.223  15.651  0.00  0.00    +0.000 S 
ATOM     13  C   UNL     1       5.301   4.230  17.379  0.00  0.00    +0.000 A 
ATOM     14  C   UNL     1       6.534   4.602  17.899  0.00  0.00    +0.000 A 
ENDBRANCH   1  13
TORSDOF 1
ENDMDL
MODEL 6
REMARK VINA RESULT:      -6.1      2.621      5.444
REMARK  Name = 
REMARK  1 active torsions:
REMARK  status: ('A' for Active; 'I' for Inactive)
REMARK    1  A    between atoms: C_4  and  C_5
REMARK                            x       y       z     vdW  Elec       q    Type
REMARK                         _______ _______ _______ _____ _____    ______ ____
ROOT
ATOM      1  C   UNL     1       4.589   4.776  18.345  0.00  0.00    +0.000 A 
ATOM      2  C   UNL     1       3.986   4.042  17.216  0.00  0.00    +0.000 A 
ATOM      3  C   UNL     1       2.827   3.383  17.374  0.00  0.00    +0.000 A 
ATOM      4  N   UNL     1       2.213   3.392  18.617  0.00  0.00    +0.000 N 
ATOM      5  C   UNL     1       1.034   2.819  19.016  0.00  0.00    +0.000 A 
ATOM      6  C   UNL     1       0.901   3.142  20.346  0.00  0.00    +0.000 A 
ATOM      7  N   UNL     1       1.962   3.897  20.779  0.00  0.00    +0.000 NA
ATOM      8  C   UNL     1       2.740   4.039  19.726  0.00  0.00    +0.000 A 
ATOM      9  C   UNL     1       3.967   4.742  19.551  0.00  0.00    +0.000 A 
ENDROOT
BRANCH   1  13
ATOM     10  C   UNL     1       7.896   6.535  18.615  0.00  0.00    +0.000 A 
ATOM     11  C   UNL     1       7.469   7.274  17.540  0.00  0.00    +0.000 A 
ATOM     12  S   UNL     1       5.931   6.778  16.994  0.00  0.00    +0.000 S 
ATOM     13  C   UNL     1       5.785   5.572  18.226  0.00  0.00    +0.000 A 
ATOM     14  C   UNL     1       6.935   5.558  19.004  0.00  0.00    +0.000 A 
ENDBRANCH   1  13
TORSDOF 1
ENDMDL
MODEL 7
REMARK VINA RESULT:      -6.0      3.150      5.717
REMARK  Name = 
REMARK  1 active torsions:
REMARK  status: ('A' for Active; 'I' for Inactive)
REMARK    1  A    between atoms: C_4  and  C_5
REMARK                            x       y       z     vdW  Elec       q    Type
REMARK                         _______ _______ _______ _____ _____    ______ ____
ROOT
ATOM      1  C   UNL     1       4.512   3.877  17.504  0.00  0.00    +0.000 A 
ATOM      2  C   UNL     1       4.951   3.693  18.900  0.00  0.00    +0.000 A 
ATOM      3  C   UNL     1       4.084   3.282  19.838  0.00  0.00    +0.000 A 
ATOM      4  N   UNL     1       2.766   3.045  19.477  0.00  0.00    +0.000 N 
ATOM      5  C   UNL     1       1.715   2.606  20.240  0.00  0.00    +0.000 A 
ATOM      6  C   UNL     1       0.643   2.542  19.381  0.00  0.00    +0.000 A 
ATOM      7  N   UNL     1       1.001   2.927  18.114  0.00  0.00    +0.000 NA
ATOM      8  C   UNL     1       2.281   3.224  18.190  0.00  0.00    +0.000 A 
ATOM      9  C   UNL     1       3.208   3.655  17.196  0.00  0.00    +0.000 A 
ENDROOT
BRANCH   1  13
ATOM     10  C   UNL     1       6.331   4.592  14.297  0.00  0.00    +0.000 A 
ATOM     11  C   UNL     1       7.403   4.897  15.100  0.00  0.00    +0.000 A 
ATOM     12  S   UNL     1       7.023   4.752  16.756  0.00  0.00    +0.000 S 
ATOM     13  C   UNL     1       5.405   4.235  16.431  0.00  0.00    +0.000 A 
ATOM     14  C   UNL     1       5.187   4.219  15.059  0.00  0.00    +0.000 A 
ENDBRANCH   1  13
TORSDOF 1
ENDMDL
MODEL 8
REMARK VINA RESULT:      -6.0      2.651      5.467
REMARK  Name = 
REMARK  1 active torsions:
REMARK  status: ('A' for Active; 'I' for Inactive)
REMARK    1  A    between atoms: C_4  and  C_5
REMARK                            x       y       z     vdW  Elec       q    Type
REMARK                         _______ _______ _______ _____ _____    ______ ____
ROOT
ATOM      1  C   UNL     1       4.511   4.882  18.275  0.00  0.00    +0.000 A 
ATOM      2  C   UNL     1       3.926   4.132  17.147  0.00  0.00    +0.000 A 
ATOM      3  C   UNL     1       2.797   3.426  17.311  0.00  0.00    +0.000 A 
ATOM      4  N   UNL     1       2.196   3.401  18.561  0.00  0.00    +0.000 N 
ATOM      5  C   UNL     1       1.044   2.778  18.966  0.00  0.00    +0.000 A 
ATOM      6  C   UNL     1       0.912   3.087  20.300  0.00  0.00    +0.000 A 
ATOM      7  N   UNL     1       1.947   3.880  20.728  0.00  0.00    +0.000 NA
ATOM      8  C   UNL     1       2.707   4.061  19.669  0.00  0.00    +0.000 A 
ATOM      9  C   UNL     1       3.904   4.814  19.487  0.00  0.00    +0.000 A 
ENDROOT
BRANCH   1  13
ATOM     10  C   UNL     1       7.221   7.326  17.389  0.00  0.00    +0.000 A 
ATOM     11  C   UNL     1       7.925   6.753  18.419  0.00  0.00    +0.000 A 
ATOM     12  S   UNL     1       7.028   5.536  19.208  0.00  0.00    +0.000 S 
ATOM     13  C   UNL     1       5.672   5.726  18.150  0.00  0.00    +0.000 A 
ATOM     14  C   UNL     1       5.930   6.742  17.239  0.00  0.00    +0.000 A 
ENDBRANCH   1  13
TORSDOF 1
ENDMDL
MODEL 9
REMARK VINA RESULT:      -6.0      2.265      2.601
REMARK  Name = 
REMARK  1 active torsions:
REMARK  status: ('A' for Active; 'I' for Inactive)
REMARK    1  A    between atoms: C_4  and  C_5
REMARK                            x       y       z     vdW  Elec       q    Type
REMARK                         _______ _______ _______ _____ _____    ______ ____
ROOT
ATOM      1  C   UNL     1       3.692   4.503  18.236  0.00  0.00    +0.000 A 
ATOM      2  C   UNL     1       3.789   5.947  17.950  0.00  0.00    +0.000 A 
ATOM      3  C   UNL     1       4.536   6.389  16.927  0.00  0.00    +0.000 A 
ATOM      4  N   UNL     1       5.225   5.469  16.151  0.00  0.00    +0.000 N 
ATOM      5  C   UNL     1       6.025   5.671  15.057  0.00  0.00    +0.000 A 
ATOM      6  C   UNL     1       6.448   4.419  14.677  0.00  0.00    +0.000 A 
ATOM      7  N   UNL     1       5.933   3.452  15.503  0.00  0.00    +0.000 NA
ATOM      8  C   UNL     1       5.199   4.101  16.382  0.00  0.00    +0.000 A 
ATOM      9  C   UNL     1       4.399   3.637  17.467  0.00  0.00    +0.000 A 
ENDROOT
BRANCH   1  13
ATOM     10  C   UNL     1       1.043   3.564  20.728  0.00  0.00    +0.000 A 
ATOM     11  C   UNL     1       1.966   2.666  21.207  0.00  0.00    +0.000 A 
ATOM     12  S   UNL     1       3.414   2.695  20.307  0.00  0.00    +0.000 S 
ATOM     13  C   UNL     1       2.844   3.953  19.265  0.00  0.00    +0.000 A 
ATOM     14  C   UNL     1       1.544   4.295  19.613  0.00  0.00    +0.000 A 
ENDBRANCH   1  13
TORSDOF 1
ENDMDL
