MODEL 1
REMARK VINA RESULT:      -5.6      0.000      0.000
REMARK  Name = 
REMARK  14 active torsions:
REMARK  status: ('A' for Active; 'I' for Inactive)
REMARK    1  A    between atoms: C_1  and  C_2
REMARK    2  A    between atoms: C_2  and  O_4
REMARK    3  A    between atoms: O_4  and  C_5
REMARK    4  A    between atoms: C_5  and  C_6
REMARK    5  A    between atoms: C_8  and  N_9
REMARK    6  A    between atoms: C_17  and  O_18
REMARK    7  A    between atoms: O_18  and  C_19
REMARK    8  A    between atoms: C_19  and  C_20
REMARK    9  A    between atoms: C_22  and  O_23
REMARK   10  A    between atoms: O_23  and  C_24
REMARK   11  A    between atoms: C_24  and  C_25
REMARK   12  A    between atoms: C_27  and  O_28
REMARK   13  A    between atoms: O_28  and  C_29
REMARK   14  A    between atoms: C_29  and  C_30
REMARK                            x       y       z     vdW  Elec       q    Type
REMARK                         _______ _______ _______ _____ _____    ______ ____
ROOT
ATOM      1  C   UNL     1      -3.416  12.039  19.876  0.00  0.00    +0.000 C 
ATOM      2  O   UNL     1      -2.187  12.775  19.951  0.00  0.00    +0.000 OA
ATOM      3  C   UNL     1      -1.720  13.107  21.268  0.00  0.00    +0.000 C 
ATOM      4  C   UNL     1      -2.803  13.823  22.096  0.00  0.00    +0.000 C 
ATOM      5  C   UNL     1      -4.062  12.946  22.173  0.00  0.00    +0.000 C 
ATOM      6  C   UNL     1      -4.559  12.649  20.731  0.00  0.00    +0.000 C 
ENDROOT
BRANCH   3   7
ATOM      7  N   UNL     1      -1.061  11.951  21.895  0.00  0.00    +0.000 N 
ATOM      8  C   UNL     1      -1.479  11.216  22.983  0.00  0.00    +0.000 A 
ATOM      9  C   UNL     1      -0.571  10.195  23.142  0.00  0.00    +0.000 A 
ATOM     10  N   UNL     1       0.413  10.277  22.203  0.00  0.00    +0.000 NA
ATOM     11  C   UNL     1       0.101  11.338  21.485  0.00  0.00    +0.000 A 
ATOM     12  N   UNL     1       0.916  11.797  20.408  0.00  0.00    +0.000 N 
ATOM     13  O   UNL     1       1.251  12.991  20.436  0.00  0.00    +0.000 OA
ATOM     14  O   UNL     1       1.188  10.984  19.518  0.00  0.00    +0.000 OA
ENDBRANCH   3   7
BRANCH   1  15
ATOM     15  C   UNL     1      -3.771  11.876  18.387  0.00  0.00    +0.000 C 
BRANCH  15  16
ATOM     16  O   UNL     1      -3.512  10.542  17.920  0.00  0.00    +0.000 OA
BRANCH  16  18
ATOM     17  C   UNL     1      -2.782  10.815  15.704  0.00  0.00    +0.000 C 
ATOM     18  C   UNL     1      -2.426  10.416  17.106  0.00  0.00    +0.000 C 
ATOM     19  O   UNL     1      -1.337   9.988  17.445  0.00  0.00    +0.000 OA
ENDBRANCH  16  18
ENDBRANCH  15  16
ENDBRANCH   1  15
BRANCH   4  20
ATOM     20  O   UNL     1      -2.261  14.173  23.383  0.00  0.00    +0.000 OA
BRANCH  20  21
ATOM     21  C   UNL     1      -1.407  15.236  23.411  0.00  0.00    +0.000 C 
ATOM     22  C   UNL     1      -2.062  16.477  22.883  0.00  0.00    +0.000 C 
ATOM     23  O   UNL     1      -0.265  15.199  23.848  0.00  0.00    +0.000 OA
ENDBRANCH  20  21
ENDBRANCH   4  20
BRANCH   5  24
ATOM     24  O   UNL     1      -5.109  13.568  22.951  0.00  0.00    +0.000 OA
BRANCH  24  25
ATOM     25  C   UNL     1      -5.639  12.803  23.947  0.00  0.00    +0.000 C 
ATOM     26  C   UNL     1      -7.125  12.960  24.035  0.00  0.00    +0.000 C 
ATOM     27  O   UNL     1      -5.002  12.032  24.653  0.00  0.00    +0.000 OA
ENDBRANCH  24  25
ENDBRANCH   5  24
BRANCH   6  28
ATOM     28  O   UNL     1      -5.001  13.871  20.093  0.00  0.00    +0.000 OA
BRANCH  28  29
ATOM     29  C   UNL     1      -6.227  13.826  19.499  0.00  0.00    +0.000 C 
ATOM     30  C   UNL     1      -7.132  12.874  20.220  0.00  0.00    +0.000 C 
ATOM     31  O   UNL     1      -6.575  14.501  18.541  0.00  0.00    +0.000 OA
ENDBRANCH  28  29
ENDBRANCH   6  28
TORSDOF 10
ENDMDL
MODEL 2
REMARK VINA RESULT:      -5.6      2.415      5.514
REMARK  Name = 
REMARK  14 active torsions:
REMARK  status: ('A' for Active; 'I' for Inactive)
REMARK    1  A    between atoms: C_1  and  C_2
REMARK    2  A    between atoms: C_2  and  O_4
REMARK    3  A    between atoms: O_4  and  C_5
REMARK    4  A    between atoms: C_5  and  C_6
REMARK    5  A    between atoms: C_8  and  N_9
REMARK    6  A    between atoms: C_17  and  O_18
REMARK    7  A    between atoms: O_18  and  C_19
REMARK    8  A    between atoms: C_19  and  C_20
REMARK    9  A    between atoms: C_22  and  O_23
REMARK   10  A    between atoms: O_23  and  C_24
REMARK   11  A    between atoms: C_24  and  C_25
REMARK   12  A    between atoms: C_27  and  O_28
REMARK   13  A    between atoms: O_28  and  C_29
REMARK   14  A    between atoms: C_29  and  C_30
REMARK                            x       y       z     vdW  Elec       q    Type
REMARK                         _______ _______ _______ _____ _____    ______ ____
ROOT
ATOM      1  C   UNL     1      -2.481  12.939  20.114  0.00  0.00    +0.000 C 
ATOM      2  O   UNL     1      -3.847  12.515  20.003  0.00  0.00    +0.000 OA
ATOM      3  C   UNL     1      -4.783  13.136  20.898  0.00  0.00    +0.000 C 
ATOM      4  C   UNL     1      -4.326  13.032  22.365  0.00  0.00    +0.000 C 
ATOM      5  C   UNL     1      -2.933  13.658  22.521  0.00  0.00    +0.000 C 
ATOM      6  C   UNL     1      -1.943  12.929  21.570  0.00  0.00    +0.000 C 
ENDROOT
BRANCH   3   7
ATOM      7  N   UNL     1      -5.162  14.472  20.414  0.00  0.00    +0.000 N 
ATOM      8  C   UNL     1      -4.599  15.688  20.734  0.00  0.00    +0.000 A 
ATOM      9  C   UNL     1      -5.246  16.634  19.973  0.00  0.00    +0.000 A 
ATOM     10  N   UNL     1      -6.209  16.055  19.202  0.00  0.00    +0.000 NA
ATOM     11  C   UNL     1      -6.144  14.771  19.496  0.00  0.00    +0.000 A 
ATOM     12  N   UNL     1      -7.028  13.810  18.922  0.00  0.00    +0.000 N 
ATOM     13  O   UNL     1      -7.632  13.071  19.713  0.00  0.00    +0.000 OA
ATOM     14  O   UNL     1      -7.091  13.766  17.689  0.00  0.00    +0.000 OA
ENDBRANCH   3   7
BRANCH   1  15
ATOM     15  C   UNL     1      -1.649  12.087  19.137  0.00  0.00    +0.000 C 
BRANCH  15  16
ATOM     16  O   UNL     1      -2.391  11.763  17.949  0.00  0.00    +0.000 OA
BRANCH  16  18
ATOM     17  C   UNL     1      -3.697   9.826  17.705  0.00  0.00    +0.000 C 
ATOM     18  C   UNL     1      -2.340  10.451  17.578  0.00  0.00    +0.000 C 
ATOM     19  O   UNL     1      -1.333   9.852  17.245  0.00  0.00    +0.000 OA
ENDBRANCH  16  18
ENDBRANCH  15  16
ENDBRANCH   1  15
BRANCH   4  20
ATOM     20  O   UNL     1      -5.327  13.625  23.216  0.00  0.00    +0.000 OA
BRANCH  20  21
ATOM     21  C   UNL     1      -5.987  12.778  24.055  0.00  0.00    +0.000 C 
ATOM     22  C   UNL     1      -7.468  13.002  24.005  0.00  0.00    +0.000 C 
ATOM     23  O   UNL     1      -5.449  11.915  24.735  0.00  0.00    +0.000 OA
ENDBRANCH  20  21
ENDBRANCH   4  20
BRANCH   5  24
ATOM     24  O   UNL     1      -2.461  13.598  23.885  0.00  0.00    +0.000 OA
BRANCH  24  25
ATOM     25  C   UNL     1      -1.769  14.689  24.320  0.00  0.00    +0.000 C 
ATOM     26  C   UNL     1      -2.579  15.518  25.267  0.00  0.00    +0.000 C 
ATOM     27  O   UNL     1      -0.607  14.943  24.030  0.00  0.00    +0.000 OA
ENDBRANCH  24  25
ENDBRANCH   5  24
BRANCH   6  28
ATOM     28  O   UNL     1      -1.775  11.553  21.984  0.00  0.00    +0.000 OA
BRANCH  28  29
ATOM     29  C   UNL     1      -0.506  11.176  22.309  0.00  0.00    +0.000 C 
ATOM     30  C   UNL     1      -0.520   9.944  23.161  0.00  0.00    +0.000 C 
ATOM     31  O   UNL     1       0.516  11.727  21.926  0.00  0.00    +0.000 OA
ENDBRANCH  28  29
ENDBRANCH   6  28
TORSDOF 10
ENDMDL
MODEL 3
REMARK VINA RESULT:      -5.6      7.651     11.665
REMARK  Name = 
REMARK  14 active torsions:
REMARK  status: ('A' for Active; 'I' for Inactive)
REMARK    1  A    between atoms: C_1  and  C_2
REMARK    2  A    between atoms: C_2  and  O_4
REMARK    3  A    between atoms: O_4  and  C_5
REMARK    4  A    between atoms: C_5  and  C_6
REMARK    5  A    between atoms: C_8  and  N_9
REMARK    6  A    between atoms: C_17  and  O_18
REMARK    7  A    between atoms: O_18  and  C_19
REMARK    8  A    between atoms: C_19  and  C_20
REMARK    9  A    between atoms: C_22  and  O_23
REMARK   10  A    between atoms: O_23  and  C_24
REMARK   11  A    between atoms: C_24  and  C_25
REMARK   12  A    between atoms: C_27  and  O_28
REMARK   13  A    between atoms: O_28  and  C_29
REMARK   14  A    between atoms: C_29  and  C_30
REMARK                            x       y       z     vdW  Elec       q    Type
REMARK                         _______ _______ _______ _____ _____    ______ ____
ROOT
ATOM      1  C   UNL     1       5.200   6.683  17.954  0.00  0.00    +0.000 C 
ATOM      2  O   UNL     1       3.961   7.003  17.308  0.00  0.00    +0.000 OA
ATOM      3  C   UNL     1       2.784   6.368  17.833  0.00  0.00    +0.000 C 
ATOM      4  C   UNL     1       2.946   4.839  17.914  0.00  0.00    +0.000 C 
ATOM      5  C   UNL     1       4.175   4.491  18.767  0.00  0.00    +0.000 C 
ATOM      6  C   UNL     1       5.430   5.159  18.139  0.00  0.00    +0.000 C 
ENDROOT
BRANCH   3   7
ATOM      7  N   UNL     1       2.322   7.052  19.051  0.00  0.00    +0.000 N 
ATOM      8  C   UNL     1       2.257   6.557  20.336  0.00  0.00    +0.000 A 
ATOM      9  C   UNL     1       1.831   7.592  21.136  0.00  0.00    +0.000 A 
ATOM     10  N   UNL     1       1.607   8.712  20.393  0.00  0.00    +0.000 NA
ATOM     11  C   UNL     1       1.894   8.356  19.156  0.00  0.00    +0.000 A 
ATOM     12  N   UNL     1       1.748   9.246  18.051  0.00  0.00    +0.000 N 
ATOM     13  O   UNL     1       1.080   8.834  17.092  0.00  0.00    +0.000 OA
ATOM     14  O   UNL     1       2.328  10.335  18.122  0.00  0.00    +0.000 OA
ENDBRANCH   3   7
BRANCH   1  15
ATOM     15  C   UNL     1       6.325   7.392  17.178  0.00  0.00    +0.000 C 
BRANCH  15  16
ATOM     16  O   UNL     1       7.477   7.628  18.006  0.00  0.00    +0.000 OA
BRANCH  16  18
ATOM     17  C   UNL     1       8.945   9.119  19.072  0.00  0.00    +0.000 C 
ATOM     18  C   UNL     1       7.982   8.893  17.945  0.00  0.00    +0.000 C 
ATOM     19  O   UNL     1       7.661   9.741  17.132  0.00  0.00    +0.000 OA
ENDBRANCH  16  18
ENDBRANCH  15  16
ENDBRANCH   1  15
BRANCH   4  20
ATOM     20  O   UNL     1       1.720   4.258  18.398  0.00  0.00    +0.000 OA
BRANCH  20  21
ATOM     21  C   UNL     1       1.456   2.982  17.998  0.00  0.00    +0.000 C 
ATOM     22  C   UNL     1       0.474   2.314  18.914  0.00  0.00    +0.000 C 
ATOM     23  O   UNL     1       1.925   2.456  16.998  0.00  0.00    +0.000 OA
ENDBRANCH  20  21
ENDBRANCH   4  20
BRANCH   5  24
ATOM     24  O   UNL     1       4.366   3.064  18.884  0.00  0.00    +0.000 OA
BRANCH  24  25
ATOM     25  C   UNL     1       4.426   2.578  20.156  0.00  0.00    +0.000 C 
ATOM     26  C   UNL     1       3.297   3.086  20.997  0.00  0.00    +0.000 C 
ATOM     27  O   UNL     1       5.257   1.776  20.562  0.00  0.00    +0.000 OA
ENDBRANCH  24  25
ENDBRANCH   5  24
BRANCH   6  28
ATOM     28  O   UNL     1       5.708   4.580  16.842  0.00  0.00    +0.000 OA
BRANCH  28  29
ATOM     29  C   UNL     1       7.023   4.487  16.497  0.00  0.00    +0.000 C 
ATOM     30  C   UNL     1       7.198   4.651  15.018  0.00  0.00    +0.000 C 
ATOM     31  O   UNL     1       7.951   4.341  17.279  0.00  0.00    +0.000 OA
ENDBRANCH  28  29
ENDBRANCH   6  28
TORSDOF 10
ENDMDL
MODEL 4
REMARK VINA RESULT:      -5.6      2.585      5.249
REMARK  Name = 
REMARK  14 active torsions:
REMARK  status: ('A' for Active; 'I' for Inactive)
REMARK    1  A    between atoms: C_1  and  C_2
REMARK    2  A    between atoms: C_2  and  O_4
REMARK    3  A    between atoms: O_4  and  C_5
REMARK    4  A    between atoms: C_5  and  C_6
REMARK    5  A    between atoms: C_8  and  N_9
REMARK    6  A    between atoms: C_17  and  O_18
REMARK    7  A    between atoms: O_18  and  C_19
REMARK    8  A    between atoms: C_19  and  C_20
REMARK    9  A    between atoms: C_22  and  O_23
REMARK   10  A    between atoms: O_23  and  C_24
REMARK   11  A    between atoms: C_24  and  C_25
REMARK   12  A    between atoms: C_27  and  O_28
REMARK   13  A    between atoms: O_28  and  C_29
REMARK   14  A    between atoms: C_29  and  C_30
REMARK                            x       y       z     vdW  Elec       q    Type
REMARK                         _______ _______ _______ _____ _____    ______ ____
ROOT
ATOM      1  C   UNL     1      -0.276  14.380  20.863  0.00  0.00    +0.000 C 
ATOM      2  O   UNL     1       0.608  13.256  20.754  0.00  0.00    +0.000 OA
ATOM      3  C   UNL     1       0.026  11.963  20.981  0.00  0.00    +0.000 C 
ATOM      4  C   UNL     1      -0.728  11.901  22.322  0.00  0.00    +0.000 C 
ATOM      5  C   UNL     1      -1.807  12.994  22.362  0.00  0.00    +0.000 C 
ATOM      6  C   UNL     1      -1.130  14.378  22.158  0.00  0.00    +0.000 C 
ENDROOT
BRANCH   3   7
ATOM      7  N   UNL     1      -0.700  11.500  19.789  0.00  0.00    +0.000 N 
ATOM      8  C   UNL     1      -1.978  11.826  19.388  0.00  0.00    +0.000 A 
ATOM      9  C   UNL     1      -2.181  11.206  18.177  0.00  0.00    +0.000 A 
ATOM     10  N   UNL     1      -1.082  10.487  17.815  0.00  0.00    +0.000 NA
ATOM     11  C   UNL     1      -0.224  10.671  18.799  0.00  0.00    +0.000 A 
ATOM     12  N   UNL     1       1.057  10.044  18.822  0.00  0.00    +0.000 N 
ATOM     13  O   UNL     1       1.346   9.411  19.849  0.00  0.00    +0.000 OA
ATOM     14  O   UNL     1       1.787  10.213  17.840  0.00  0.00    +0.000 OA
ENDBRANCH   3   7
BRANCH   1  15
ATOM     15  C   UNL     1       0.568  15.655  20.676  0.00  0.00    +0.000 C 
BRANCH  15  16
ATOM     16  O   UNL     1       0.982  15.824  19.309  0.00  0.00    +0.000 OA
BRANCH  16  18
ATOM     17  C   UNL     1       3.193  15.812  20.101  0.00  0.00    +0.000 C 
ATOM     18  C   UNL     1       2.203  16.407  19.145  0.00  0.00    +0.000 C 
ATOM     19  O   UNL     1       2.451  17.319  18.375  0.00  0.00    +0.000 OA
ENDBRANCH  16  18
ENDBRANCH  15  16
ENDBRANCH   1  15
BRANCH   4  20
ATOM     20  O   UNL     1      -1.243  10.569  22.515  0.00  0.00    +0.000 OA
BRANCH  20  21
ATOM     21  C   UNL     1      -0.345   9.625  22.914  0.00  0.00    +0.000 C 
ATOM     22  C   UNL     1      -0.488   8.363  22.117  0.00  0.00    +0.000 C 
ATOM     23  O   UNL     1       0.500   9.793  23.782  0.00  0.00    +0.000 OA
ENDBRANCH  20  21
ENDBRANCH   4  20
BRANCH   5  24
ATOM     24  O   UNL     1      -2.554  12.973  23.598  0.00  0.00    +0.000 OA
BRANCH  24  25
ATOM     25  C   UNL     1      -3.854  12.573  23.497  0.00  0.00    +0.000 C 
ATOM     26  C   UNL     1      -4.498  12.435  24.841  0.00  0.00    +0.000 C 
ATOM     27  O   UNL     1      -4.454  12.401  22.443  0.00  0.00    +0.000 OA
ENDBRANCH  24  25
ENDBRANCH   5  24
BRANCH   6  28
ATOM     28  O   UNL     1      -0.262  14.679  23.276  0.00  0.00    +0.000 OA
BRANCH  28  29
ATOM     29  C   UNL     1      -0.755  15.554  24.198  0.00  0.00    +0.000 C 
ATOM     30  C   UNL     1      -1.684  16.537  23.553  0.00  0.00    +0.000 C 
ATOM     31  O   UNL     1      -0.522  15.525  25.398  0.00  0.00    +0.000 OA
ENDBRANCH  28  29
ENDBRANCH   6  28
TORSDOF 10
ENDMDL
MODEL 5
REMARK VINA RESULT:      -5.6      2.229      5.622
REMARK  Name = 
REMARK  14 active torsions:
REMARK  status: ('A' for Active; 'I' for Inactive)
REMARK    1  A    between atoms: C_1  and  C_2
REMARK    2  A    between atoms: C_2  and  O_4
REMARK    3  A    between atoms: O_4  and  C_5
REMARK    4  A    between atoms: C_5  and  C_6
REMARK    5  A    between atoms: C_8  and  N_9
REMARK    6  A    between atoms: C_17  and  O_18
REMARK    7  A    between atoms: O_18  and  C_19
REMARK    8  A    between atoms: C_19  and  C_20
REMARK    9  A    between atoms: C_22  and  O_23
REMARK   10  A    between atoms: O_23  and  C_24
REMARK   11  A    between atoms: C_24  and  C_25
REMARK   12  A    between atoms: C_27  and  O_28
REMARK   13  A    between atoms: O_28  and  C_29
REMARK   14  A    between atoms: C_29  and  C_30
REMARK                            x       y       z     vdW  Elec       q    Type
REMARK                         _______ _______ _______ _____ _____    ______ ____
ROOT
ATOM      1  C   UNL     1      -3.457  12.894  20.430  0.00  0.00    +0.000 C 
ATOM      2  O   UNL     1      -3.668  12.134  21.628  0.00  0.00    +0.000 OA
ATOM      3  C   UNL     1      -2.526  11.954  22.480  0.00  0.00    +0.000 C 
ATOM      4  C   UNL     1      -1.321  11.383  21.710  0.00  0.00    +0.000 C 
ATOM      5  C   UNL     1      -0.976  12.303  20.530  0.00  0.00    +0.000 C 
ATOM      6  C   UNL     1      -2.222  12.433  19.611  0.00  0.00    +0.000 C 
ENDROOT
BRANCH   3   7
ATOM      7  N   UNL     1      -2.286  13.157  23.292  0.00  0.00    +0.000 N 
ATOM      8  C   UNL     1      -1.130  13.900  23.395  0.00  0.00    +0.000 A 
ATOM      9  C   UNL     1      -1.419  14.968  24.213  0.00  0.00    +0.000 A 
ATOM     10  N   UNL     1      -2.711  14.908  24.642  0.00  0.00    +0.000 NA
ATOM     11  C   UNL     1      -3.196  13.814  24.089  0.00  0.00    +0.000 A 
ATOM     12  N   UNL     1      -4.530  13.365  24.324  0.00  0.00    +0.000 N 
ATOM     13  O   UNL     1      -4.661  12.191  24.698  0.00  0.00    +0.000 OA
ATOM     14  O   UNL     1      -5.443  14.167  24.100  0.00  0.00    +0.000 OA
ENDBRANCH   3   7
BRANCH   1  15
ATOM     15  C   UNL     1      -4.774  12.881  19.633  0.00  0.00    +0.000 C 
BRANCH  15  16
ATOM     16  O   UNL     1      -5.695  11.903  20.142  0.00  0.00    +0.000 OA
BRANCH  16  18
ATOM     17  C   UNL     1      -7.342  12.592  18.615  0.00  0.00    +0.000 C 
ATOM     18  C   UNL     1      -7.012  12.241  20.035  0.00  0.00    +0.000 C 
ATOM     19  O   UNL     1      -7.800  12.306  20.962  0.00  0.00    +0.000 OA
ENDBRANCH  16  18
ENDBRANCH  15  16
ENDBRANCH   1  15
BRANCH   4  20
ATOM     20  O   UNL     1      -0.228  11.178  22.626  0.00  0.00    +0.000 OA
BRANCH  20  21
ATOM     21  C   UNL     1       0.002   9.892  23.015  0.00  0.00    +0.000 C 
ATOM     22  C   UNL     1      -0.298   8.924  21.910  0.00  0.00    +0.000 C 
ATOM     23  O   UNL     1       0.437   9.565  24.111  0.00  0.00    +0.000 OA
ENDBRANCH  20  21
ENDBRANCH   4  20
BRANCH   5  24
ATOM     24  O   UNL     1       0.159  11.817  19.779  0.00  0.00    +0.000 OA
BRANCH  24  25
ATOM     25  C   UNL     1       1.230  12.658  19.715  0.00  0.00    +0.000 C 
ATOM     26  C   UNL     1       2.006  12.474  18.448  0.00  0.00    +0.000 C 
ATOM     27  O   UNL     1       1.504  13.507  20.553  0.00  0.00    +0.000 OA
ENDBRANCH  24  25
ENDBRANCH   5  24
BRANCH   6  28
ATOM     28  O   UNL     1      -2.530  11.157  19.003  0.00  0.00    +0.000 OA
BRANCH  28  29
ATOM     29  C   UNL     1      -2.376  11.085  17.650  0.00  0.00    +0.000 C 
ATOM     30  C   UNL     1      -2.979   9.823  17.113  0.00  0.00    +0.000 C 
ATOM     31  O   UNL     1      -1.865  11.947  16.949  0.00  0.00    +0.000 OA
ENDBRANCH  28  29
ENDBRANCH   6  28
TORSDOF 10
ENDMDL
MODEL 6
REMARK VINA RESULT:      -5.5      2.750      5.699
REMARK  Name = 
REMARK  14 active torsions:
REMARK  status: ('A' for Active; 'I' for Inactive)
REMARK    1  A    between atoms: C_1  and  C_2
REMARK    2  A    between atoms: C_2  and  O_4
REMARK    3  A    between atoms: O_4  and  C_5
REMARK    4  A    between atoms: C_5  and  C_6
REMARK    5  A    between atoms: C_8  and  N_9
REMARK    6  A    between atoms: C_17  and  O_18
REMARK    7  A    between atoms: O_18  and  C_19
REMARK    8  A    between atoms: C_19  and  C_20
REMARK    9  A    between atoms: C_22  and  O_23
REMARK   10  A    between atoms: O_23  and  C_24
REMARK   11  A    between atoms: C_24  and  C_25
REMARK   12  A    between atoms: C_27  and  O_28
REMARK   13  A    between atoms: O_28  and  C_29
REMARK   14  A    between atoms: C_29  and  C_30
REMARK                            x       y       z     vdW  Elec       q    Type
REMARK                         _______ _______ _______ _____ _____    ______ ____
ROOT
ATOM      1  C   UNL     1      -2.843  13.259  20.270  0.00  0.00    +0.000 C 
ATOM      2  O   UNL     1      -3.998  12.560  19.786  0.00  0.00    +0.000 OA
ATOM      3  C   UNL     1      -5.256  12.921  20.377  0.00  0.00    +0.000 C 
ATOM      4  C   UNL     1      -5.210  12.844  21.915  0.00  0.00    +0.000 C 
ATOM      5  C   UNL     1      -4.085  13.744  22.446  0.00  0.00    +0.000 C 
ATOM      6  C   UNL     1      -2.738  13.291  21.818  0.00  0.00    +0.000 C 
ENDROOT
BRANCH   3   7
ATOM      7  N   UNL     1      -5.771  14.167  19.790  0.00  0.00    +0.000 N 
ATOM      8  C   UNL     1      -5.551  15.462  20.208  0.00  0.00    +0.000 A 
ATOM      9  C   UNL     1      -6.178  16.282  19.298  0.00  0.00    +0.000 A 
ATOM     10  N   UNL     1      -6.801  15.545  18.337  0.00  0.00    +0.000 NA
ATOM     11  C   UNL     1      -6.553  14.291  18.664  0.00  0.00    +0.000 A 
ATOM     12  N   UNL     1      -7.071  13.190  17.920  0.00  0.00    +0.000 N 
ATOM     13  O   UNL     1      -7.683  12.325  18.564  0.00  0.00    +0.000 OA
ATOM     14  O   UNL     1      -6.836  13.167  16.707  0.00  0.00    +0.000 OA
ENDBRANCH   3   7
BRANCH   1  15
ATOM     15  C   UNL     1      -1.609  12.655  19.574  0.00  0.00    +0.000 C 
BRANCH  15  16
ATOM     16  O   UNL     1      -1.969  11.935  18.383  0.00  0.00    +0.000 OA
BRANCH  16  18
ATOM     17  C   UNL     1      -1.991   9.947  17.132  0.00  0.00    +0.000 C 
ATOM     18  C   UNL     1      -1.322  10.746  18.211  0.00  0.00    +0.000 C 
ATOM     19  O   UNL     1      -0.374  10.358  18.870  0.00  0.00    +0.000 OA
ENDBRANCH  16  18
ENDBRANCH  15  16
ENDBRANCH   1  15
BRANCH   4  20
ATOM     20  O   UNL     1      -6.511  13.166  22.444  0.00  0.00    +0.000 OA
BRANCH  20  21
ATOM     21  C   UNL     1      -7.224  12.130  22.970  0.00  0.00    +0.000 C 
ATOM     22  C   UNL     1      -7.913  11.341  21.897  0.00  0.00    +0.000 C 
ATOM     23  O   UNL     1      -7.267  11.849  24.160  0.00  0.00    +0.000 OA
ENDBRANCH  20  21
ENDBRANCH   4  20
BRANCH   5  24
ATOM     24  O   UNL     1      -4.006  13.717  23.889  0.00  0.00    +0.000 OA
BRANCH  24  25
ATOM     25  C   UNL     1      -3.827  14.926  24.493  0.00  0.00    +0.000 C 
ATOM     26  C   UNL     1      -2.520  14.995  25.219  0.00  0.00    +0.000 C 
ATOM     27  O   UNL     1      -4.602  15.870  24.413  0.00  0.00    +0.000 OA
ENDBRANCH  24  25
ENDBRANCH   5  24
BRANCH   6  28
ATOM     28  O   UNL     1      -2.393  11.963  22.278  0.00  0.00    +0.000 OA
BRANCH  28  29
ATOM     29  C   UNL     1      -1.200  11.845  22.926  0.00  0.00    +0.000 C 
ATOM     30  C   UNL     1      -0.838  10.404  23.114  0.00  0.00    +0.000 C 
ATOM     31  O   UNL     1      -0.485  12.777  23.269  0.00  0.00    +0.000 OA
ENDBRANCH  28  29
ENDBRANCH   6  28
TORSDOF 10
ENDMDL
MODEL 7
REMARK VINA RESULT:      -5.5      2.957      5.556
REMARK  Name = 
REMARK  14 active torsions:
REMARK  status: ('A' for Active; 'I' for Inactive)
REMARK    1  A    between atoms: C_1  and  C_2
REMARK    2  A    between atoms: C_2  and  O_4
REMARK    3  A    between atoms: O_4  and  C_5
REMARK    4  A    between atoms: C_5  and  C_6
REMARK    5  A    between atoms: C_8  and  N_9
REMARK    6  A    between atoms: C_17  and  O_18
REMARK    7  A    between atoms: O_18  and  C_19
REMARK    8  A    between atoms: C_19  and  C_20
REMARK    9  A    between atoms: C_22  and  O_23
REMARK   10  A    between atoms: O_23  and  C_24
REMARK   11  A    between atoms: C_24  and  C_25
REMARK   12  A    between atoms: C_27  and  O_28
REMARK   13  A    between atoms: O_28  and  C_29
REMARK   14  A    between atoms: C_29  and  C_30
REMARK                            x       y       z     vdW  Elec       q    Type
REMARK                         _______ _______ _______ _____ _____    ______ ____
ROOT
ATOM      1  C   UNL     1      -3.220  12.871  20.287  0.00  0.00    +0.000 C 
ATOM      2  O   UNL     1      -4.327  11.984  20.073  0.00  0.00    +0.000 OA
ATOM      3  C   UNL     1      -5.611  12.447  20.519  0.00  0.00    +0.000 C 
ATOM      4  C   UNL     1      -5.581  12.891  21.993  0.00  0.00    +0.000 C 
ATOM      5  C   UNL     1      -4.517  13.982  22.184  0.00  0.00    +0.000 C 
ATOM      6  C   UNL     1      -3.138  13.425  21.735  0.00  0.00    +0.000 C 
ENDROOT
BRANCH   3   7
ATOM      7  N   UNL     1      -6.189  13.394  19.552  0.00  0.00    +0.000 N 
ATOM      8  C   UNL     1      -6.637  14.677  19.777  0.00  0.00    +0.000 A 
ATOM      9  C   UNL     1      -7.015  15.183  18.555  0.00  0.00    +0.000 A 
ATOM     10  N   UNL     1      -6.839  14.253  17.575  0.00  0.00    +0.000 NA
ATOM     11  C   UNL     1      -6.360  13.196  18.200  0.00  0.00    +0.000 A 
ATOM     12  N   UNL     1      -6.073  11.972  17.524  0.00  0.00    +0.000 N 
ATOM     13  O   UNL     1      -6.577  10.945  18.000  0.00  0.00    +0.000 OA
ATOM     14  O   UNL     1      -5.318  12.030  16.548  0.00  0.00    +0.000 OA
ENDBRANCH   3   7
BRANCH   1  15
ATOM     15  C   UNL     1      -1.945  12.143  19.826  0.00  0.00    +0.000 C 
BRANCH  15  16
ATOM     16  O   UNL     1      -1.969  11.868  18.415  0.00  0.00    +0.000 OA
BRANCH  16  18
ATOM     17  C   UNL     1      -0.370  10.154  18.263  0.00  0.00    +0.000 C 
ATOM     18  C   UNL     1      -1.803  10.557  18.079  0.00  0.00    +0.000 C 
ATOM     19  O   UNL     1      -2.674   9.827  17.640  0.00  0.00    +0.000 OA
ENDBRANCH  16  18
ENDBRANCH  15  16
ENDBRANCH   1  15
BRANCH   4  20
ATOM     20  O   UNL     1      -6.905  13.295  22.393  0.00  0.00    +0.000 OA
BRANCH  20  21
ATOM     21  C   UNL     1      -7.374  12.763  23.556  0.00  0.00    +0.000 C 
ATOM     22  C   UNL     1      -7.815  13.833  24.509  0.00  0.00    +0.000 C 
ATOM     23  O   UNL     1      -7.465  11.565  23.785  0.00  0.00    +0.000 OA
ENDBRANCH  20  21
ENDBRANCH   4  20
BRANCH   5  24
ATOM     24  O   UNL     1      -4.455  14.444  23.552  0.00  0.00    +0.000 OA
BRANCH  24  25
ATOM     25  C   UNL     1      -4.251  15.781  23.716  0.00  0.00    +0.000 C 
ATOM     26  C   UNL     1      -3.606  16.088  25.032  0.00  0.00    +0.000 C 
ATOM     27  O   UNL     1      -4.503  16.636  22.877  0.00  0.00    +0.000 OA
ENDBRANCH  24  25
ENDBRANCH   5  24
BRANCH   6  28
ATOM     28  O   UNL     1      -2.723  12.350  22.611  0.00  0.00    +0.000 OA
BRANCH  28  29
ATOM     29  C   UNL     1      -1.434  12.399  23.050  0.00  0.00    +0.000 C 
ATOM     30  C   UNL     1      -1.007  13.816  23.287  0.00  0.00    +0.000 C 
ATOM     31  O   UNL     1      -0.725  11.429  23.274  0.00  0.00    +0.000 OA
ENDBRANCH  28  29
ENDBRANCH   6  28
TORSDOF 10
ENDMDL
MODEL 8
REMARK VINA RESULT:      -5.5      1.013      1.202
REMARK  Name = 
REMARK  14 active torsions:
REMARK  status: ('A' for Active; 'I' for Inactive)
REMARK    1  A    between atoms: C_1  and  C_2
REMARK    2  A    between atoms: C_2  and  O_4
REMARK    3  A    between atoms: O_4  and  C_5
REMARK    4  A    between atoms: C_5  and  C_6
REMARK    5  A    between atoms: C_8  and  N_9
REMARK    6  A    between atoms: C_17  and  O_18
REMARK    7  A    between atoms: O_18  and  C_19
REMARK    8  A    between atoms: C_19  and  C_20
REMARK    9  A    between atoms: C_22  and  O_23
REMARK   10  A    between atoms: O_23  and  C_24
REMARK   11  A    between atoms: C_24  and  C_25
REMARK   12  A    between atoms: C_27  and  O_28
REMARK   13  A    between atoms: O_28  and  C_29
REMARK   14  A    between atoms: C_29  and  C_30
REMARK                            x       y       z     vdW  Elec       q    Type
REMARK                         _______ _______ _______ _____ _____    ______ ____
ROOT
ATOM      1  C   UNL     1      -3.678  12.189  19.973  0.00  0.00    +0.000 C 
ATOM      2  O   UNL     1      -2.473  12.968  20.004  0.00  0.00    +0.000 OA
ATOM      3  C   UNL     1      -1.986  13.338  21.304  0.00  0.00    +0.000 C 
ATOM      4  C   UNL     1      -3.072  14.030  22.148  0.00  0.00    +0.000 C 
ATOM      5  C   UNL     1      -4.297  13.112  22.271  0.00  0.00    +0.000 C 
ATOM      6  C   UNL     1      -4.819  12.774  20.847  0.00  0.00    +0.000 C 
ENDROOT
BRANCH   3   7
ATOM      7  N   UNL     1      -1.271  12.216  21.932  0.00  0.00    +0.000 N 
ATOM      8  C   UNL     1      -1.716  11.367  22.922  0.00  0.00    +0.000 A 
ATOM      9  C   UNL     1      -0.721  10.438  23.121  0.00  0.00    +0.000 A 
ATOM     10  N   UNL     1       0.340  10.688  22.305  0.00  0.00    +0.000 NA
ATOM     11  C   UNL     1      -0.011  11.759  21.620  0.00  0.00    +0.000 A 
ATOM     12  N   UNL     1       0.856  12.375  20.669  0.00  0.00    +0.000 N 
ATOM     13  O   UNL     1       1.050  13.592  20.804  0.00  0.00    +0.000 OA
ATOM     14  O   UNL     1       1.309  11.659  19.770  0.00  0.00    +0.000 OA
ENDBRANCH   3   7
BRANCH   1  15
ATOM     15  C   UNL     1      -4.064  11.989  18.496  0.00  0.00    +0.000 C 
BRANCH  15  16
ATOM     16  O   UNL     1      -2.932  11.605  17.697  0.00  0.00    +0.000 OA
BRANCH  16  18
ATOM     17  C   UNL     1      -1.133  10.100  17.811  0.00  0.00    +0.000 C 
ATOM     18  C   UNL     1      -2.620  10.278  17.739  0.00  0.00    +0.000 C 
ATOM     19  O   UNL     1      -3.422   9.364  17.671  0.00  0.00    +0.000 OA
ENDBRANCH  16  18
ENDBRANCH  15  16
ENDBRANCH   1  15
BRANCH   4  20
ATOM     20  O   UNL     1      -2.509  14.421  23.415  0.00  0.00    +0.000 OA
BRANCH  20  21
ATOM     21  C   UNL     1      -2.603  15.742  23.737  0.00  0.00    +0.000 C 
ATOM     22  C   UNL     1      -3.376  15.943  25.006  0.00  0.00    +0.000 C 
ATOM     23  O   UNL     1      -2.088  16.650  23.099  0.00  0.00    +0.000 OA
ENDBRANCH  20  21
ENDBRANCH   4  20
BRANCH   5  24
ATOM     24  O   UNL     1      -5.345  13.710  23.066  0.00  0.00    +0.000 OA
BRANCH  24  25
ATOM     25  C   UNL     1      -5.922  12.895  23.993  0.00  0.00    +0.000 C 
ATOM     26  C   UNL     1      -7.386  13.173  24.141  0.00  0.00    +0.000 C 
ATOM     27  O   UNL     1      -5.344  12.000  24.597  0.00  0.00    +0.000 OA
ENDBRANCH  24  25
ENDBRANCH   5  24
BRANCH   6  28
ATOM     28  O   UNL     1      -5.320  13.969  20.202  0.00  0.00    +0.000 OA
BRANCH  28  29
ATOM     29  C   UNL     1      -6.647  13.970  19.892  0.00  0.00    +0.000 C 
ATOM     30  C   UNL     1      -6.901  14.764  18.648  0.00  0.00    +0.000 C 
ATOM     31  O   UNL     1      -7.518  13.369  20.505  0.00  0.00    +0.000 OA
ENDBRANCH  28  29
ENDBRANCH   6  28
TORSDOF 10
ENDMDL
MODEL 9
REMARK VINA RESULT:      -5.5      2.197      5.578
REMARK  Name = 
REMARK  14 active torsions:
REMARK  status: ('A' for Active; 'I' for Inactive)
REMARK    1  A    between atoms: C_1  and  C_2
REMARK    2  A    between atoms: C_2  and  O_4
REMARK    3  A    between atoms: O_4  and  C_5
REMARK    4  A    between atoms: C_5  and  C_6
REMARK    5  A    between atoms: C_8  and  N_9
REMARK    6  A    between atoms: C_17  and  O_18
REMARK    7  A    between atoms: O_18  and  C_19
REMARK    8  A    between atoms: C_19  and  C_20
REMARK    9  A    between atoms: C_22  and  O_23
REMARK   10  A    between atoms: O_23  and  C_24
REMARK   11  A    between atoms: C_24  and  C_25
REMARK   12  A    between atoms: C_27  and  O_28
REMARK   13  A    between atoms: O_28  and  C_29
REMARK   14  A    between atoms: C_29  and  C_30
REMARK                            x       y       z     vdW  Elec       q    Type
REMARK                         _______ _______ _______ _____ _____    ______ ____
ROOT
ATOM      1  C   UNL     1      -3.319  12.775  20.180  0.00  0.00    +0.000 C 
ATOM      2  O   UNL     1      -3.402  12.169  21.477  0.00  0.00    +0.000 OA
ATOM      3  C   UNL     1      -2.166  12.031  22.197  0.00  0.00    +0.000 C 
ATOM      4  C   UNL     1      -1.092  11.315  21.358  0.00  0.00    +0.000 C 
ATOM      5  C   UNL     1      -0.869  12.074  20.042  0.00  0.00    +0.000 C 
ATOM      6  C   UNL     1      -2.218  12.161  19.275  0.00  0.00    +0.000 C 
ENDROOT
BRANCH   3   7
ATOM      7  N   UNL     1      -1.780  13.305  22.821  0.00  0.00    +0.000 N 
ATOM      8  C   UNL     1      -0.617  14.024  22.647  0.00  0.00    +0.000 A 
ATOM      9  C   UNL     1      -0.754  15.179  23.382  0.00  0.00    +0.000 A 
ATOM     10  N   UNL     1      -1.953  15.199  24.027  0.00  0.00    +0.000 NA
ATOM     11  C   UNL     1      -2.535  14.066  23.685  0.00  0.00    +0.000 A 
ATOM     12  N   UNL     1      -3.813  13.681  24.189  0.00  0.00    +0.000 N 
ATOM     13  O   UNL     1      -3.889  12.556  24.704  0.00  0.00    +0.000 OA
ATOM     14  O   UNL     1      -4.745  14.478  24.038  0.00  0.00    +0.000 OA
ENDBRANCH   3   7
BRANCH   1  15
ATOM     15  C   UNL     1      -4.728  12.737  19.559  0.00  0.00    +0.000 C 
BRANCH  15  16
ATOM     16  O   UNL     1      -5.650  11.996  20.376  0.00  0.00    +0.000 OA
BRANCH  16  18
ATOM     17  C   UNL     1      -7.611  10.718  20.583  0.00  0.00    +0.000 C 
ATOM     18  C   UNL     1      -6.494  11.172  19.690  0.00  0.00    +0.000 C 
ATOM     19  O   UNL     1      -6.341  10.807  18.538  0.00  0.00    +0.000 OA
ENDBRANCH  16  18
ENDBRANCH  15  16
ENDBRANCH   1  15
BRANCH   4  20
ATOM     20  O   UNL     1       0.103  11.161  22.149  0.00  0.00    +0.000 OA
BRANCH  20  21
ATOM     21  C   UNL     1       0.320   9.927  22.683  0.00  0.00    +0.000 C 
ATOM     22  C   UNL     1       0.658   8.923  21.621  0.00  0.00    +0.000 C 
ATOM     23  O   UNL     1       0.287   9.671  23.878  0.00  0.00    +0.000 OA
ENDBRANCH  20  21
ENDBRANCH   4  20
BRANCH   5  24
ATOM     24  O   UNL     1       0.141  11.448  19.219  0.00  0.00    +0.000 OA
BRANCH  24  25
ATOM     25  C   UNL     1       1.198  12.238  18.878  0.00  0.00    +0.000 C 
ATOM     26  C   UNL     1       1.025  13.641  19.372  0.00  0.00    +0.000 C 
ATOM     27  O   UNL     1       2.201  11.852  18.291  0.00  0.00    +0.000 OA
ENDBRANCH  24  25
ENDBRANCH   5  24
BRANCH   6  28
ATOM     28  O   UNL     1      -2.647  10.840  18.868  0.00  0.00    +0.000 OA
BRANCH  28  29
ATOM     29  C   UNL     1      -2.433  10.517  17.562  0.00  0.00    +0.000 C 
ATOM     30  C   UNL     1      -3.411  11.222  16.673  0.00  0.00    +0.000 C 
ATOM     31  O   UNL     1      -1.538   9.793  17.149  0.00  0.00    +0.000 OA
ENDBRANCH  28  29
ENDBRANCH   6  28
TORSDOF 10
ENDMDL
