MODEL 1
REMARK VINA RESULT:      -7.9      0.000      0.000
REMARK  Name = 
REMARK  8 active torsions:
REMARK  status: ('A' for Active; 'I' for Inactive)
REMARK    1  A    between atoms: C_1  and  C_2
REMARK    2  A    between atoms: C_4  and  C_5
REMARK    3  A    between atoms: N_10  and  C_11
REMARK    4  A    between atoms: C_15  and  C_16
REMARK    5  A    between atoms: C_17  and  C_18
REMARK    6  A    between atoms: C_22  and  C_23
REMARK    7  A    between atoms: N_25  and  C_26
REMARK    8  A    between atoms: C_32  and  C_33
REMARK                            x       y       z     vdW  Elec       q    Type
REMARK                         _______ _______ _______ _____ _____    ______ ____
ROOT
ATOM      1  C   UNL     1       3.361  14.358  21.681  0.00  0.00    +0.000 C 
ATOM      2  C   UNL     1       2.226  13.660  20.988  0.00  0.00    +0.000 A 
ATOM      3  C   UNL     1       2.487  12.815  19.928  0.00  0.00    +0.000 A 
ATOM      4  C   UNL     1       1.455  12.039  19.387  0.00  0.00    +0.000 A 
ATOM      5  C   UNL     1       0.138  12.257  19.836  0.00  0.00    +0.000 A 
ATOM      6  C   UNL     1      -1.188  11.810  19.579  0.00  0.00    +0.000 A 
ATOM      7  C   UNL     1      -1.752  10.854  18.590  0.00  0.00    +0.000 C 
ATOM      8  N   UNL     1      -2.067  12.373  20.409  0.00  0.00    +0.000 NA
ATOM      9  N   UNL     1      -1.360  13.206  21.203  0.00  0.00    +0.000 N 
ATOM     10  C   UNL     1      -0.006  13.182  20.874  0.00  0.00    +0.000 A 
ATOM     11  N   UNL     1       0.993  13.863  21.489  0.00  0.00    +0.000 NA
ENDROOT
BRANCH   4  12
ATOM     12  C   UNL     1       1.790  11.070  18.332  0.00  0.00    +0.000 C 
ATOM     13  O   UNL     1       2.174  11.503  17.250  0.00  0.00    +0.000 OA
ATOM     14  N   UNL     1       1.756   9.711  18.631  0.00  0.00    +0.000 N 
ATOM     15  C   UNL     1       2.290   8.780  17.641  0.00  0.00    +0.000 C 
ATOM     16  C   UNL     1       3.079   7.630  18.286  0.00  0.00    +0.000 C 
ATOM     17  N   UNL     1       2.325   7.007  19.385  0.00  0.00    +0.000 N 
ATOM     18  C   UNL     1       1.806   7.954  20.391  0.00  0.00    +0.000 C 
ATOM     19  C   UNL     1       0.973   9.050  19.695  0.00  0.00    +0.000 C 
BRANCH  17  20
ATOM     20  C   UNL     1       2.262   5.637  19.595  0.00  0.00    +0.000 A 
ATOM     21  C   UNL     1       1.602   5.184  20.759  0.00  0.00    +0.000 A 
ATOM     22  C   UNL     1       1.439   3.834  21.059  0.00  0.00    +0.000 A 
ATOM     23  C   UNL     1       1.948   2.877  20.199  0.00  0.00    +0.000 A 
ATOM     24  C   UNL     1       2.627   3.261  19.037  0.00  0.00    +0.000 A 
ATOM     25  C   UNL     1       3.199   2.170  18.168  0.00  0.00    +0.000 C 
ATOM     26  C   UNL     1       2.782   4.642  18.718  0.00  0.00    +0.000 A 
ATOM     27  C   UNL     1       3.511   5.004  17.442  0.00  0.00    +0.000 C 
ENDBRANCH  17  20
ENDBRANCH   4  12
BRANCH   9  28
ATOM     28  C   UNL     1      -2.027  13.983  22.204  0.00  0.00    +0.000 A 
ATOM     29  C   UNL     1      -2.354  13.353  23.424  0.00  0.00    +0.000 A 
ATOM     30  C   UNL     1      -2.964  14.074  24.451  0.00  0.00    +0.000 A 
ATOM     31  C   UNL     1      -3.266  15.411  24.270  0.00  0.00    +0.000 A 
ATOM     32  C   UNL     1      -2.963  16.049  23.061  0.00  0.00    +0.000 A 
ATOM     33 CL   UNL     1      -3.431  17.714  22.943  0.00  0.00    +0.000 Cl
ATOM     34  C   UNL     1      -2.335  15.360  22.005  0.00  0.00    +0.000 A 
ATOM     35  C   UNL     1      -2.029  16.066  20.704  0.00  0.00    +0.000 C 
ENDBRANCH   9  28
TORSDOF 3
ENDMDL
MODEL 2
REMARK VINA RESULT:      -7.6      5.047      8.409
REMARK  Name = 
REMARK  8 active torsions:
REMARK  status: ('A' for Active; 'I' for Inactive)
REMARK    1  A    between atoms: C_1  and  C_2
REMARK    2  A    between atoms: C_4  and  C_5
REMARK    3  A    between atoms: N_10  and  C_11
REMARK    4  A    between atoms: C_15  and  C_16
REMARK    5  A    between atoms: C_17  and  C_18
REMARK    6  A    between atoms: C_22  and  C_23
REMARK    7  A    between atoms: N_25  and  C_26
REMARK    8  A    between atoms: C_32  and  C_33
REMARK                            x       y       z     vdW  Elec       q    Type
REMARK                         _______ _______ _______ _____ _____    ______ ____
ROOT
ATOM      1  C   UNL     1       0.608  17.778  17.305  0.00  0.00    +0.000 C 
ATOM      2  C   UNL     1       1.383  16.900  18.247  0.00  0.00    +0.000 A 
ATOM      3  C   UNL     1       2.588  17.341  18.758  0.00  0.00    +0.000 A 
ATOM      4  C   UNL     1       3.230  16.601  19.759  0.00  0.00    +0.000 A 
ATOM      5  C   UNL     1       2.709  15.339  20.107  0.00  0.00    +0.000 A 
ATOM      6  C   UNL     1       3.003  14.238  20.957  0.00  0.00    +0.000 A 
ATOM      7  C   UNL     1       4.133  13.955  21.882  0.00  0.00    +0.000 C 
ATOM      8  N   UNL     1       2.059  13.299  20.892  0.00  0.00    +0.000 NA
ATOM      9  N   UNL     1       1.147  13.740  19.998  0.00  0.00    +0.000 N 
ATOM     10  C   UNL     1       1.515  14.978  19.477  0.00  0.00    +0.000 A 
ATOM     11  N   UNL     1       0.817  15.728  18.588  0.00  0.00    +0.000 NA
ENDROOT
BRANCH   4  12
ATOM     12  C   UNL     1       4.454  17.155  20.358  0.00  0.00    +0.000 C 
ATOM     13  O   UNL     1       4.337  18.057  21.182  0.00  0.00    +0.000 OA
ATOM     14  N   UNL     1       5.679  16.574  20.046  0.00  0.00    +0.000 N 
ATOM     15  C   UNL     1       6.851  17.000  20.806  0.00  0.00    +0.000 C 
ATOM     16  C   UNL     1       7.790  15.828  21.137  0.00  0.00    +0.000 C 
ATOM     17  N   UNL     1       8.081  15.017  19.946  0.00  0.00    +0.000 N 
ATOM     18  C   UNL     1       6.890  14.574  19.194  0.00  0.00    +0.000 C 
ATOM     19  C   UNL     1       6.016  15.794  18.837  0.00  0.00    +0.000 C 
BRANCH  17  20
ATOM     20  C   UNL     1       9.341  14.522  19.640  0.00  0.00    +0.000 A 
ATOM     21  C   UNL     1       9.859  13.496  20.463  0.00  0.00    +0.000 A 
ATOM     22  C   UNL     1      11.093  12.893  20.233  0.00  0.00    +0.000 A 
ATOM     23  C   UNL     1      11.868  13.308  19.165  0.00  0.00    +0.000 A 
ATOM     24  C   UNL     1      11.419  14.333  18.323  0.00  0.00    +0.000 A 
ATOM     25  C   UNL     1      12.333  14.772  17.207  0.00  0.00    +0.000 C 
ATOM     26  C   UNL     1      10.149  14.941  18.545  0.00  0.00    +0.000 A 
ATOM     27  C   UNL     1       9.705  16.033  17.596  0.00  0.00    +0.000 C 
ENDBRANCH  17  20
ENDBRANCH   4  12
BRANCH   9  28
ATOM     28  C   UNL     1       0.001  12.940  19.687  0.00  0.00    +0.000 A 
ATOM     29  C   UNL     1       0.189  11.795  18.884  0.00  0.00    +0.000 A 
ATOM     30  C   UNL     1      -0.886  10.955  18.588  0.00  0.00    +0.000 A 
ATOM     31  C   UNL     1      -2.147  11.253  19.069  0.00  0.00    +0.000 A 
ATOM     32  C   UNL     1      -2.355  12.392  19.854  0.00  0.00    +0.000 A 
ATOM     33 CL   UNL     1      -3.989  12.679  20.359  0.00  0.00    +0.000 Cl
ATOM     34  C   UNL     1      -1.295  13.258  20.187  0.00  0.00    +0.000 A 
ATOM     35  C   UNL     1      -1.546  14.491  21.025  0.00  0.00    +0.000 C 
ENDBRANCH   9  28
TORSDOF 3
ENDMDL
MODEL 3
REMARK VINA RESULT:      -7.4      5.219      7.316
REMARK  Name = 
REMARK  8 active torsions:
REMARK  status: ('A' for Active; 'I' for Inactive)
REMARK    1  A    between atoms: C_1  and  C_2
REMARK    2  A    between atoms: C_4  and  C_5
REMARK    3  A    between atoms: N_10  and  C_11
REMARK    4  A    between atoms: C_15  and  C_16
REMARK    5  A    between atoms: C_17  and  C_18
REMARK    6  A    between atoms: C_22  and  C_23
REMARK    7  A    between atoms: N_25  and  C_26
REMARK    8  A    between atoms: C_32  and  C_33
REMARK                            x       y       z     vdW  Elec       q    Type
REMARK                         _______ _______ _______ _____ _____    ______ ____
ROOT
ATOM      1  C   UNL     1      -1.675  11.604  18.089  0.00  0.00    +0.000 C 
ATOM      2  C   UNL     1      -1.353  12.800  18.938  0.00  0.00    +0.000 A 
ATOM      3  C   UNL     1      -0.349  13.666  18.550  0.00  0.00    +0.000 A 
ATOM      4  C   UNL     1      -0.157  14.865  19.247  0.00  0.00    +0.000 A 
ATOM      5  C   UNL     1      -0.890  15.085  20.429  0.00  0.00    +0.000 A 
ATOM      6  C   UNL     1      -1.012  16.045  21.472  0.00  0.00    +0.000 A 
ATOM      7  C   UNL     1      -0.290  17.313  21.760  0.00  0.00    +0.000 C 
ATOM      8  N   UNL     1      -1.971  15.714  22.336  0.00  0.00    +0.000 NA
ATOM      9  N   UNL     1      -2.482  14.540  21.906  0.00  0.00    +0.000 N 
ATOM     10  C   UNL     1      -1.836  14.107  20.750  0.00  0.00    +0.000 A 
ATOM     11  N   UNL     1      -2.118  12.993  20.029  0.00  0.00    +0.000 NA
ENDROOT
BRANCH   4  12
ATOM     12  C   UNL     1       0.847  15.813  18.740  0.00  0.00    +0.000 C 
ATOM     13  O   UNL     1       0.450  16.829  18.178  0.00  0.00    +0.000 OA
ATOM     14  N   UNL     1       2.192  15.573  19.000  0.00  0.00    +0.000 N 
ATOM     15  C   UNL     1       3.151  16.624  18.672  0.00  0.00    +0.000 C 
ATOM     16  C   UNL     1       4.254  16.762  19.733  0.00  0.00    +0.000 C 
ATOM     17  N   UNL     1       4.848  15.459  20.066  0.00  0.00    +0.000 N 
ATOM     18  C   UNL     1       3.873  14.406  20.416  0.00  0.00    +0.000 C 
ATOM     19  C   UNL     1       2.828  14.271  19.291  0.00  0.00    +0.000 C 
BRANCH  17  20
ATOM     20  C   UNL     1       6.210  15.256  20.243  0.00  0.00    +0.000 A 
ATOM     21  C   UNL     1       6.738  15.450  21.539  0.00  0.00    +0.000 A 
ATOM     22  C   UNL     1       8.079  15.240  21.849  0.00  0.00    +0.000 A 
ATOM     23  C   UNL     1       8.953  14.833  20.858  0.00  0.00    +0.000 A 
ATOM     24  C   UNL     1       8.496  14.639  19.548  0.00  0.00    +0.000 A 
ATOM     25  C   UNL     1       9.509  14.242  18.505  0.00  0.00    +0.000 C 
ATOM     26  C   UNL     1       7.120  14.837  19.231  0.00  0.00    +0.000 A 
ATOM     27  C   UNL     1       6.675  14.600  17.804  0.00  0.00    +0.000 C 
ENDBRANCH  17  20
ENDBRANCH   4  12
BRANCH   9  28
ATOM     28  C   UNL     1      -3.535  13.903  22.639  0.00  0.00    +0.000 A 
ATOM     29  C   UNL     1      -3.180  13.070  23.721  0.00  0.00    +0.000 A 
ATOM     30  C   UNL     1      -4.167  12.461  24.497  0.00  0.00    +0.000 A 
ATOM     31  C   UNL     1      -5.501  12.659  24.196  0.00  0.00    +0.000 A 
ATOM     32  C   UNL     1      -5.872  13.469  23.117  0.00  0.00    +0.000 A 
ATOM     33 CL   UNL     1      -7.575  13.603  22.816  0.00  0.00    +0.000 Cl
ATOM     34  C   UNL     1      -4.907  14.114  22.318  0.00  0.00    +0.000 A 
ATOM     35  C   UNL     1      -5.330  14.974  21.148  0.00  0.00    +0.000 C 
ENDBRANCH   9  28
TORSDOF 3
ENDMDL
MODEL 4
REMARK VINA RESULT:      -7.3      2.447      4.277
REMARK  Name = 
REMARK  8 active torsions:
REMARK  status: ('A' for Active; 'I' for Inactive)
REMARK    1  A    between atoms: C_1  and  C_2
REMARK    2  A    between atoms: C_4  and  C_5
REMARK    3  A    between atoms: N_10  and  C_11
REMARK    4  A    between atoms: C_15  and  C_16
REMARK    5  A    between atoms: C_17  and  C_18
REMARK    6  A    between atoms: C_22  and  C_23
REMARK    7  A    between atoms: N_25  and  C_26
REMARK    8  A    between atoms: C_32  and  C_33
REMARK                            x       y       z     vdW  Elec       q    Type
REMARK                         _______ _______ _______ _____ _____    ______ ____
ROOT
ATOM      1  C   UNL     1      -2.356  11.432  17.249  0.00  0.00    +0.000 C 
ATOM      2  C   UNL     1      -1.281  11.802  18.231  0.00  0.00    +0.000 A 
ATOM      3  C   UNL     1      -0.720  10.827  19.032  0.00  0.00    +0.000 A 
ATOM      4  C   UNL     1       0.391  11.136  19.826  0.00  0.00    +0.000 A 
ATOM      5  C   UNL     1       0.813  12.477  19.909  0.00  0.00    +0.000 A 
ATOM      6  C   UNL     1       1.780  13.274  20.580  0.00  0.00    +0.000 A 
ATOM      7  C   UNL     1       2.812  12.954  21.603  0.00  0.00    +0.000 C 
ATOM      8  N   UNL     1       1.728  14.547  20.187  0.00  0.00    +0.000 NA
ATOM      9  N   UNL     1       0.729  14.624  19.282  0.00  0.00    +0.000 N 
ATOM     10  C   UNL     1       0.127  13.382  19.094  0.00  0.00    +0.000 A 
ATOM     11  N   UNL     1      -0.879  13.087  18.233  0.00  0.00    +0.000 NA
ENDROOT
BRANCH   4  12
ATOM     12  C   UNL     1       1.030  10.048  20.583  0.00  0.00    +0.000 C 
ATOM     13  O   UNL     1       0.912  10.046  21.804  0.00  0.00    +0.000 OA
ATOM     14  N   UNL     1       1.654   9.019  19.884  0.00  0.00    +0.000 N 
ATOM     15  C   UNL     1       2.098   7.850  20.640  0.00  0.00    +0.000 C 
ATOM     16  C   UNL     1       1.851   6.536  19.881  0.00  0.00    +0.000 C 
ATOM     17  N   UNL     1       2.346   6.609  18.499  0.00  0.00    +0.000 N 
ATOM     18  C   UNL     1       1.878   7.783  17.736  0.00  0.00    +0.000 C 
ATOM     19  C   UNL     1       2.205   9.074  18.514  0.00  0.00    +0.000 C 
BRANCH  17  20
ATOM     20  C   UNL     1       3.031   5.578  17.871  0.00  0.00    +0.000 A 
ATOM     21  C   UNL     1       2.403   4.314  17.814  0.00  0.00    +0.000 A 
ATOM     22  C   UNL     1       2.972   3.214  17.177  0.00  0.00    +0.000 A 
ATOM     23  C   UNL     1       4.212   3.339  16.576  0.00  0.00    +0.000 A 
ATOM     24  C   UNL     1       4.894   4.561  16.612  0.00  0.00    +0.000 A 
ATOM     25  C   UNL     1       6.262   4.617  15.981  0.00  0.00    +0.000 C 
ATOM     26  C   UNL     1       4.308   5.694  17.249  0.00  0.00    +0.000 A 
ATOM     27  C   UNL     1       5.081   6.995  17.247  0.00  0.00    +0.000 C 
ENDBRANCH  17  20
ENDBRANCH   4  12
BRANCH   9  28
ATOM     28  C   UNL     1       0.405  15.880  18.675  0.00  0.00    +0.000 A 
ATOM     29  C   UNL     1       1.364  16.475  17.828  0.00  0.00    +0.000 A 
ATOM     30  C   UNL     1       1.083  17.676  17.175  0.00  0.00    +0.000 A 
ATOM     31  C   UNL     1      -0.136  18.298  17.370  0.00  0.00    +0.000 A 
ATOM     32  C   UNL     1      -1.093  17.731  18.218  0.00  0.00    +0.000 A 
ATOM     33 CL   UNL     1      -2.564  18.630  18.414  0.00  0.00    +0.000 Cl
ATOM     34  C   UNL     1      -0.854  16.513  18.885  0.00  0.00    +0.000 A 
ATOM     35  C   UNL     1      -1.898  15.925  19.807  0.00  0.00    +0.000 C 
ENDBRANCH   9  28
TORSDOF 3
ENDMDL
MODEL 5
REMARK VINA RESULT:      -7.2      5.149      7.473
REMARK  Name = 
REMARK  8 active torsions:
REMARK  status: ('A' for Active; 'I' for Inactive)
REMARK    1  A    between atoms: C_1  and  C_2
REMARK    2  A    between atoms: C_4  and  C_5
REMARK    3  A    between atoms: N_10  and  C_11
REMARK    4  A    between atoms: C_15  and  C_16
REMARK    5  A    between atoms: C_17  and  C_18
REMARK    6  A    between atoms: C_22  and  C_23
REMARK    7  A    between atoms: N_25  and  C_26
REMARK    8  A    between atoms: C_32  and  C_33
REMARK                            x       y       z     vdW  Elec       q    Type
REMARK                         _______ _______ _______ _____ _____    ______ ____
ROOT
ATOM      1  C   UNL     1      -1.766  11.333  18.269  0.00  0.00    +0.000 C 
ATOM      2  C   UNL     1      -1.538  12.603  19.038  0.00  0.00    +0.000 A 
ATOM      3  C   UNL     1      -0.605  13.517  18.589  0.00  0.00    +0.000 A 
ATOM      4  C   UNL     1      -0.507  14.770  19.207  0.00  0.00    +0.000 A 
ATOM      5  C   UNL     1      -1.254  15.008  20.377  0.00  0.00    +0.000 A 
ATOM      6  C   UNL     1      -1.449  16.020  21.356  0.00  0.00    +0.000 A 
ATOM      7  C   UNL     1      -0.828  17.357  21.559  0.00  0.00    +0.000 C 
ATOM      8  N   UNL     1      -2.379  15.673  22.246  0.00  0.00    +0.000 NA
ATOM      9  N   UNL     1      -2.797  14.437  21.895  0.00  0.00    +0.000 N 
ATOM     10  C   UNL     1      -2.120  13.982  20.765  0.00  0.00    +0.000 A 
ATOM     11  N   UNL     1      -2.314  12.806  20.119  0.00  0.00    +0.000 NA
ENDROOT
BRANCH   4  12
ATOM     12  C   UNL     1       0.420  15.759  18.634  0.00  0.00    +0.000 C 
ATOM     13  O   UNL     1      -0.051  16.799  18.186  0.00  0.00    +0.000 OA
ATOM     14  N   UNL     1       1.789  15.522  18.711  0.00  0.00    +0.000 N 
ATOM     15  C   UNL     1       2.692  16.603  18.327  0.00  0.00    +0.000 C 
ATOM     16  C   UNL     1       3.918  16.696  19.249  0.00  0.00    +0.000 C 
ATOM     17  N   UNL     1       4.558  15.385  19.430  0.00  0.00    +0.000 N 
ATOM     18  C   UNL     1       3.641  14.301  19.837  0.00  0.00    +0.000 C 
ATOM     19  C   UNL     1       2.464  14.215  18.844  0.00  0.00    +0.000 C 
BRANCH  17  20
ATOM     20  C   UNL     1       5.932  15.191  19.424  0.00  0.00    +0.000 A 
ATOM     21  C   UNL     1       6.546  14.897  18.186  0.00  0.00    +0.000 A 
ATOM     22  C   UNL     1       7.921  14.721  18.045  0.00  0.00    +0.000 A 
ATOM     23  C   UNL     1       8.739  14.824  19.156  0.00  0.00    +0.000 A 
ATOM     24  C   UNL     1       8.190  15.096  20.415  0.00  0.00    +0.000 A 
ATOM     25  C   UNL     1       9.131  15.147  21.592  0.00  0.00    +0.000 C 
ATOM     26  C   UNL     1       6.785  15.293  20.560  0.00  0.00    +0.000 A 
ATOM     27  C   UNL     1       6.245  15.600  21.940  0.00  0.00    +0.000 C 
ENDBRANCH  17  20
ENDBRANCH   4  12
BRANCH   9  28
ATOM     28  C   UNL     1      -3.796  13.768  22.673  0.00  0.00    +0.000 A 
ATOM     29  C   UNL     1      -3.381  13.067  23.825  0.00  0.00    +0.000 A 
ATOM     30  C   UNL     1      -4.317  12.436  24.645  0.00  0.00    +0.000 A 
ATOM     31  C   UNL     1      -5.660  12.482  24.320  0.00  0.00    +0.000 A 
ATOM     32  C   UNL     1      -6.089  13.160  23.173  0.00  0.00    +0.000 A 
ATOM     33 CL   UNL     1      -7.793  13.107  22.851  0.00  0.00    +0.000 Cl
ATOM     34  C   UNL     1      -5.177  13.822  22.327  0.00  0.00    +0.000 A 
ATOM     35  C   UNL     1      -5.662  14.536  21.086  0.00  0.00    +0.000 C 
ENDBRANCH   9  28
TORSDOF 3
ENDMDL
MODEL 6
REMARK VINA RESULT:      -7.2      2.416      4.365
REMARK  Name = 
REMARK  8 active torsions:
REMARK  status: ('A' for Active; 'I' for Inactive)
REMARK    1  A    between atoms: C_1  and  C_2
REMARK    2  A    between atoms: C_4  and  C_5
REMARK    3  A    between atoms: N_10  and  C_11
REMARK    4  A    between atoms: C_15  and  C_16
REMARK    5  A    between atoms: C_17  and  C_18
REMARK    6  A    between atoms: C_22  and  C_23
REMARK    7  A    between atoms: N_25  and  C_26
REMARK    8  A    between atoms: C_32  and  C_33
REMARK                            x       y       z     vdW  Elec       q    Type
REMARK                         _______ _______ _______ _____ _____    ______ ____
ROOT
ATOM      1  C   UNL     1      -1.721  13.376  23.440  0.00  0.00    +0.000 C 
ATOM      2  C   UNL     1      -0.694  13.266  22.350  0.00  0.00    +0.000 A 
ATOM      3  C   UNL     1      -0.865  12.342  21.338  0.00  0.00    +0.000 A 
ATOM      4  C   UNL     1       0.001  12.348  20.238  0.00  0.00    +0.000 A 
ATOM      5  C   UNL     1       1.124  13.197  20.265  0.00  0.00    +0.000 A 
ATOM      6  C   UNL     1       2.268  13.514  19.482  0.00  0.00    +0.000 A 
ATOM      7  C   UNL     1       2.791  12.971  18.199  0.00  0.00    +0.000 C 
ATOM      8  N   UNL     1       2.984  14.496  20.029  0.00  0.00    +0.000 NA
ATOM      9  N   UNL     1       2.354  14.830  21.177  0.00  0.00    +0.000 N 
ATOM     10  C   UNL     1       1.219  14.045  21.371  0.00  0.00    +0.000 A 
ATOM     11  N   UNL     1       0.333  14.135  22.395  0.00  0.00    +0.000 NA
ENDROOT
BRANCH   4  12
ATOM     12  C   UNL     1      -0.277  11.423  19.128  0.00  0.00    +0.000 C 
ATOM     13  O   UNL     1      -0.978  11.823  18.203  0.00  0.00    +0.000 OA
ATOM     14  N   UNL     1       0.341  10.176  19.120  0.00  0.00    +0.000 N 
ATOM     15  C   UNL     1       0.218   9.360  17.916  0.00  0.00    +0.000 C 
ATOM     16  C   UNL     1       1.523   8.622  17.574  0.00  0.00    +0.000 C 
ATOM     17  N   UNL     1       2.071   7.925  18.747  0.00  0.00    +0.000 N 
ATOM     18  C   UNL     1       2.210   8.762  19.955  0.00  0.00    +0.000 C 
ATOM     19  C   UNL     1       0.858   9.428  20.284  0.00  0.00    +0.000 C 
BRANCH  17  20
ATOM     20  C   UNL     1       2.610   6.646  18.700  0.00  0.00    +0.000 A 
ATOM     21  C   UNL     1       3.497   6.349  17.642  0.00  0.00    +0.000 A 
ATOM     22  C   UNL     1       4.131   5.115  17.510  0.00  0.00    +0.000 A 
ATOM     23  C   UNL     1       3.887   4.120  18.439  0.00  0.00    +0.000 A 
ATOM     24  C   UNL     1       3.004   4.346  19.502  0.00  0.00    +0.000 A 
ATOM     25  C   UNL     1       2.745   3.204  20.451  0.00  0.00    +0.000 C 
ATOM     26  C   UNL     1       2.366   5.613  19.649  0.00  0.00    +0.000 A 
ATOM     27  C   UNL     1       1.433   5.810  20.824  0.00  0.00    +0.000 C 
ENDBRANCH  17  20
ENDBRANCH   4  12
BRANCH   9  28
ATOM     28  C   UNL     1       2.890  15.858  22.018  0.00  0.00    +0.000 A 
ATOM     29  C   UNL     1       2.210  17.093  22.072  0.00  0.00    +0.000 A 
ATOM     30  C   UNL     1       2.663  18.114  22.909  0.00  0.00    +0.000 A 
ATOM     31  C   UNL     1       3.795  17.923  23.679  0.00  0.00    +0.000 A 
ATOM     32  C   UNL     1       4.491  16.710  23.627  0.00  0.00    +0.000 A 
ATOM     33 CL   UNL     1       5.919  16.610  24.607  0.00  0.00    +0.000 Cl
ATOM     34  C   UNL     1       4.059  15.649  22.806  0.00  0.00    +0.000 A 
ATOM     35  C   UNL     1       4.835  14.353  22.756  0.00  0.00    +0.000 C 
ENDBRANCH   9  28
TORSDOF 3
ENDMDL
MODEL 7
REMARK VINA RESULT:      -7.2      2.493      4.165
REMARK  Name = 
REMARK  8 active torsions:
REMARK  status: ('A' for Active; 'I' for Inactive)
REMARK    1  A    between atoms: C_1  and  C_2
REMARK    2  A    between atoms: C_4  and  C_5
REMARK    3  A    between atoms: N_10  and  C_11
REMARK    4  A    between atoms: C_15  and  C_16
REMARK    5  A    between atoms: C_17  and  C_18
REMARK    6  A    between atoms: C_22  and  C_23
REMARK    7  A    between atoms: N_25  and  C_26
REMARK    8  A    between atoms: C_32  and  C_33
REMARK                            x       y       z     vdW  Elec       q    Type
REMARK                         _______ _______ _______ _____ _____    ______ ____
ROOT
ATOM      1  C   UNL     1      -1.691  13.137  23.526  0.00  0.00    +0.000 C 
ATOM      2  C   UNL     1      -0.656  13.183  22.439  0.00  0.00    +0.000 A 
ATOM      3  C   UNL     1      -0.753  12.321  21.364  0.00  0.00    +0.000 A 
ATOM      4  C   UNL     1       0.112  12.471  20.273  0.00  0.00    +0.000 A 
ATOM      5  C   UNL     1       1.167  13.399  20.368  0.00  0.00    +0.000 A 
ATOM      6  C   UNL     1       2.284  13.857  19.618  0.00  0.00    +0.000 A 
ATOM      7  C   UNL     1       2.850  13.447  18.305  0.00  0.00    +0.000 C 
ATOM      8  N   UNL     1       2.921  14.851  20.238  0.00  0.00    +0.000 NA
ATOM      9  N   UNL     1       2.265  15.054  21.401  0.00  0.00    +0.000 N 
ATOM     10  C   UNL     1       1.194  14.173  21.532  0.00  0.00    +0.000 A 
ATOM     11  N   UNL     1       0.301  14.123  22.552  0.00  0.00    +0.000 NA
ENDROOT
BRANCH   4  12
ATOM     12  C   UNL     1      -0.090  11.607  19.100  0.00  0.00    +0.000 C 
ATOM     13  O   UNL     1      -0.625  12.095  18.109  0.00  0.00    +0.000 OA
ATOM     14  N   UNL     1       0.416  10.311  19.122  0.00  0.00    +0.000 N 
ATOM     15  C   UNL     1       0.388   9.545  17.879  0.00  0.00    +0.000 C 
ATOM     16  C   UNL     1       1.660   8.705  17.682  0.00  0.00    +0.000 C 
ATOM     17  N   UNL     1       1.986   7.927  18.886  0.00  0.00    +0.000 N 
ATOM     18  C   UNL     1       2.031   8.713  20.136  0.00  0.00    +0.000 C 
ATOM     19  C   UNL     1       0.708   9.486  20.312  0.00  0.00    +0.000 C 
BRANCH  17  20
ATOM     20  C   UNL     1       2.417   6.608  18.858  0.00  0.00    +0.000 A 
ATOM     21  C   UNL     1       1.651   5.654  19.565  0.00  0.00    +0.000 A 
ATOM     22  C   UNL     1       1.959   4.296  19.578  0.00  0.00    +0.000 A 
ATOM     23  C   UNL     1       3.067   3.841  18.885  0.00  0.00    +0.000 A 
ATOM     24  C   UNL     1       3.877   4.738  18.179  0.00  0.00    +0.000 A 
ATOM     25  C   UNL     1       5.095   4.184  17.486  0.00  0.00    +0.000 C 
ATOM     26  C   UNL     1       3.555   6.127  18.149  0.00  0.00    +0.000 A 
ATOM     27  C   UNL     1       4.455   7.052  17.359  0.00  0.00    +0.000 C 
ENDBRANCH  17  20
ENDBRANCH   4  12
BRANCH   9  28
ATOM     28  C   UNL     1       2.718  16.059  22.316  0.00  0.00    +0.000 A 
ATOM     29  C   UNL     1       1.934  17.223  22.465  0.00  0.00    +0.000 A 
ATOM     30  C   UNL     1       2.305  18.213  23.375  0.00  0.00    +0.000 A 
ATOM     31  C   UNL     1       3.456  18.064  24.125  0.00  0.00    +0.000 A 
ATOM     32  C   UNL     1       4.254  16.924  23.980  0.00  0.00    +0.000 A 
ATOM     33 CL   UNL     1       5.695  16.876  24.945  0.00  0.00    +0.000 Cl
ATOM     34  C   UNL     1       3.908  15.895  23.082  0.00  0.00    +0.000 A 
ATOM     35  C   UNL     1       4.793  14.678  22.932  0.00  0.00    +0.000 C 
ENDBRANCH   9  28
TORSDOF 3
ENDMDL
MODEL 8
REMARK VINA RESULT:      -7.1      2.843      4.344
REMARK  Name = 
REMARK  8 active torsions:
REMARK  status: ('A' for Active; 'I' for Inactive)
REMARK    1  A    between atoms: C_1  and  C_2
REMARK    2  A    between atoms: C_4  and  C_5
REMARK    3  A    between atoms: N_10  and  C_11
REMARK    4  A    between atoms: C_15  and  C_16
REMARK    5  A    between atoms: C_17  and  C_18
REMARK    6  A    between atoms: C_22  and  C_23
REMARK    7  A    between atoms: N_25  and  C_26
REMARK    8  A    between atoms: C_32  and  C_33
REMARK                            x       y       z     vdW  Elec       q    Type
REMARK                         _______ _______ _______ _____ _____    ______ ____
ROOT
ATOM      1  C   UNL     1      -2.746  11.338  17.766  0.00  0.00    +0.000 C 
ATOM      2  C   UNL     1      -1.603  11.735  18.656  0.00  0.00    +0.000 A 
ATOM      3  C   UNL     1      -0.968  10.779  19.423  0.00  0.00    +0.000 A 
ATOM      4  C   UNL     1       0.197  11.112  20.125  0.00  0.00    +0.000 A 
ATOM      5  C   UNL     1       0.605  12.459  20.158  0.00  0.00    +0.000 A 
ATOM      6  C   UNL     1       1.611  13.278  20.742  0.00  0.00    +0.000 A 
ATOM      7  C   UNL     1       2.723  12.985  21.685  0.00  0.00    +0.000 C 
ATOM      8  N   UNL     1       1.511  14.544  20.338  0.00  0.00    +0.000 NA
ATOM      9  N   UNL     1       0.444  14.596  19.512  0.00  0.00    +0.000 N 
ATOM     10  C   UNL     1      -0.154  13.344  19.387  0.00  0.00    +0.000 A 
ATOM     11  N   UNL     1      -1.219  13.025  18.611  0.00  0.00    +0.000 NA
ENDROOT
BRANCH   4  12
ATOM     12  C   UNL     1       0.908  10.042  20.843  0.00  0.00    +0.000 C 
ATOM     13  O   UNL     1       0.868  10.044  22.070  0.00  0.00    +0.000 OA
ATOM     14  N   UNL     1       1.509   9.024  20.110  0.00  0.00    +0.000 N 
ATOM     15  C   UNL     1       2.027   7.870  20.840  0.00  0.00    +0.000 C 
ATOM     16  C   UNL     1       1.762   6.547  20.104  0.00  0.00    +0.000 C 
ATOM     17  N   UNL     1       2.166   6.624  18.692  0.00  0.00    +0.000 N 
ATOM     18  C   UNL     1       1.623   7.783  17.957  0.00  0.00    +0.000 C 
ATOM     19  C   UNL     1       1.970   9.085  18.708  0.00  0.00    +0.000 C 
BRANCH  17  20
ATOM     20  C   UNL     1       2.833   5.605  18.026  0.00  0.00    +0.000 A 
ATOM     21  C   UNL     1       2.186   4.353  17.928  0.00  0.00    +0.000 A 
ATOM     22  C   UNL     1       2.736   3.268  17.251  0.00  0.00    +0.000 A 
ATOM     23  C   UNL     1       3.975   3.396  16.648  0.00  0.00    +0.000 A 
ATOM     24  C   UNL     1       4.676   4.606  16.724  0.00  0.00    +0.000 A 
ATOM     25  C   UNL     1       6.042   4.663  16.088  0.00  0.00    +0.000 C 
ATOM     26  C   UNL     1       4.109   5.724  17.402  0.00  0.00    +0.000 A 
ATOM     27  C   UNL     1       4.901   7.013  17.441  0.00  0.00    +0.000 C 
ENDBRANCH  17  20
ENDBRANCH   4  12
BRANCH   9  28
ATOM     28  C   UNL     1       0.056  15.840  18.916  0.00  0.00    +0.000 A 
ATOM     29  C   UNL     1      -1.160  16.424  19.330  0.00  0.00    +0.000 A 
ATOM     30  C   UNL     1      -1.564  17.656  18.816  0.00  0.00    +0.000 A 
ATOM     31  C   UNL     1      -0.777  18.305  17.882  0.00  0.00    +0.000 A 
ATOM     32  C   UNL     1       0.425  17.734  17.449  0.00  0.00    +0.000 A 
ATOM     33 CL   UNL     1       1.298  18.625  16.244  0.00  0.00    +0.000 Cl
ATOM     34  C   UNL     1       0.875  16.498  17.954  0.00  0.00    +0.000 A 
ATOM     35  C   UNL     1       2.170  15.894  17.460  0.00  0.00    +0.000 C 
ENDBRANCH   9  28
TORSDOF 3
ENDMDL
MODEL 9
REMARK VINA RESULT:      -7.0      1.861      2.535
REMARK  Name = 
REMARK  8 active torsions:
REMARK  status: ('A' for Active; 'I' for Inactive)
REMARK    1  A    between atoms: C_1  and  C_2
REMARK    2  A    between atoms: C_4  and  C_5
REMARK    3  A    between atoms: N_10  and  C_11
REMARK    4  A    between atoms: C_15  and  C_16
REMARK    5  A    between atoms: C_17  and  C_18
REMARK    6  A    between atoms: C_22  and  C_23
REMARK    7  A    between atoms: N_25  and  C_26
REMARK    8  A    between atoms: C_32  and  C_33
REMARK                            x       y       z     vdW  Elec       q    Type
REMARK                         _______ _______ _______ _____ _____    ______ ____
ROOT
ATOM      1  C   UNL     1      -0.387   9.490  23.521  0.00  0.00    +0.000 C 
ATOM      2  C   UNL     1      -0.212  10.636  22.567  0.00  0.00    +0.000 A 
ATOM      3  C   UNL     1       0.475  10.445  21.385  0.00  0.00    +0.000 A 
ATOM      4  C   UNL     1       0.499  11.461  20.422  0.00  0.00    +0.000 A 
ATOM      5  C   UNL     1      -0.047  12.717  20.750  0.00  0.00    +0.000 A 
ATOM      6  C   UNL     1      -0.207  14.014  20.189  0.00  0.00    +0.000 A 
ATOM      7  C   UNL     1       0.235  14.615  18.903  0.00  0.00    +0.000 C 
ATOM      8  N   UNL     1      -0.896  14.819  20.999  0.00  0.00    +0.000 NA
ATOM      9  N   UNL     1      -1.183  14.093  22.101  0.00  0.00    +0.000 N 
ATOM     10  C   UNL     1      -0.665  12.804  22.000  0.00  0.00    +0.000 A 
ATOM     11  N   UNL     1      -0.798  11.800  22.903  0.00  0.00    +0.000 NA
ENDROOT
BRANCH   4  12
ATOM     12  C   UNL     1       1.147  11.182  19.130  0.00  0.00    +0.000 C 
ATOM     13  O   UNL     1       1.481  12.136  18.434  0.00  0.00    +0.000 OA
ATOM     14  N   UNL     1       1.444   9.865  18.797  0.00  0.00    +0.000 N 
ATOM     15  C   UNL     1       2.268   9.628  17.615  0.00  0.00    +0.000 C 
ATOM     16  C   UNL     1       3.281   8.491  17.827  0.00  0.00    +0.000 C 
ATOM     17  N   UNL     1       2.639   7.294  18.388  0.00  0.00    +0.000 N 
ATOM     18  C   UNL     1       1.823   7.539  19.594  0.00  0.00    +0.000 C 
ATOM     19  C   UNL     1       0.786   8.644  19.306  0.00  0.00    +0.000 C 
BRANCH  17  20
ATOM     20  C   UNL     1       2.917   6.001  17.966  0.00  0.00    +0.000 A 
ATOM     21  C   UNL     1       1.930   5.015  18.186  0.00  0.00    +0.000 A 
ATOM     22  C   UNL     1       2.076   3.693  17.773  0.00  0.00    +0.000 A 
ATOM     23  C   UNL     1       3.236   3.304  17.126  0.00  0.00    +0.000 A 
ATOM     24  C   UNL     1       4.260   4.231  16.893  0.00  0.00    +0.000 A 
ATOM     25  C   UNL     1       5.517   3.731  16.227  0.00  0.00    +0.000 C 
ATOM     26  C   UNL     1       4.106   5.589  17.300  0.00  0.00    +0.000 A 
ATOM     27  C   UNL     1       5.236   6.553  17.011  0.00  0.00    +0.000 C 
ENDBRANCH  17  20
ENDBRANCH   4  12
BRANCH   9  28
ATOM     28  C   UNL     1      -1.911  14.687  23.182  0.00  0.00    +0.000 A 
ATOM     29  C   UNL     1      -1.194  15.067  24.336  0.00  0.00    +0.000 A 
ATOM     30  C   UNL     1      -1.846  15.690  25.401  0.00  0.00    +0.000 A 
ATOM     31  C   UNL     1      -3.207  15.923  25.334  0.00  0.00    +0.000 A 
ATOM     32  C   UNL     1      -3.938  15.540  24.204  0.00  0.00    +0.000 A 
ATOM     33 CL   UNL     1      -5.644  15.847  24.261  0.00  0.00    +0.000 Cl
ATOM     34  C   UNL     1      -3.315  14.920  23.103  0.00  0.00    +0.000 A 
ATOM     35  C   UNL     1      -4.127  14.502  21.898  0.00  0.00    +0.000 C 
ENDBRANCH   9  28
TORSDOF 3
ENDMDL
