MODEL 1
REMARK VINA RESULT:      -8.7      0.000      0.000
REMARK  Name = 
REMARK  7 active torsions:
REMARK  status: ('A' for Active; 'I' for Inactive)
REMARK    1  A    between atoms: C_2  and  C_3
REMARK    2  A    between atoms: C_2  and  C_21
REMARK    3  A    between atoms: C_3  and  C_15
REMARK    4  A    between atoms: N_4  and  N_5
REMARK    5  A    between atoms: N_5  and  C_6
REMARK    6  A    between atoms: C_10  and  N_11
REMARK    7  A    between atoms: C_15  and  C_17
REMARK                            x       y       z     vdW  Elec       q    Type
REMARK                         _______ _______ _______ _____ _____    ______ ____
ROOT
ATOM      1  C   UNL     1       3.348   4.267  19.630  0.00  0.00    +0.000 C 
ATOM      2  N   UNL     1       3.469   5.535  19.919  0.00  0.00    +0.000 NA
ENDROOT
BRANCH   1   4
ATOM      3  O   UNL     1       5.103   2.777  19.946  0.00  0.00    +0.000 OA
ATOM      4  C   UNL     1       4.629   3.609  19.182  0.00  0.00    +0.000 C 
BRANCH   4   5
ATOM      5  C   UNL     1       5.310   3.989  17.915  0.00  0.00    +0.000 A 
ATOM      6  C   UNL     1       6.638   4.434  17.873  0.00  0.00    +0.000 A 
ATOM      7  C   UNL     1       7.233   4.749  16.645  0.00  0.00    +0.000 A 
ATOM      8  C   UNL     1       6.502   4.622  15.464  0.00  0.00    +0.000 A 
ATOM      9 BR   UNL     1       7.312   5.033  13.807  0.00  0.00    +0.000 Br
ATOM     10  C   UNL     1       5.177   4.190  15.497  0.00  0.00    +0.000 A 
ATOM     11  C   UNL     1       4.581   3.881  16.722  0.00  0.00    +0.000 A 
ENDBRANCH   4   5
ENDBRANCH   1   4
BRANCH   2  12
ATOM     12  N   UNL     1       2.433   6.206  20.483  0.00  0.00    +0.000 N 
ATOM     13  H   UNL     1       1.644   5.666  20.843  0.00  0.00    +0.000 HD
BRANCH  12  14
ATOM     14  C   UNL     1       2.026   7.384  19.803  0.00  0.00    +0.000 A 
ATOM     15  C   UNL     1       2.390   7.613  18.464  0.00  0.00    +0.000 A 
ATOM     16  C   UNL     1       2.068   8.802  17.805  0.00  0.00    +0.000 A 
ATOM     17  C   UNL     1       1.385   9.806  18.485  0.00  0.00    +0.000 A 
ATOM     18  C   UNL     1       1.041   9.606  19.829  0.00  0.00    +0.000 A 
ATOM     19  C   UNL     1       1.367   8.409  20.492  0.00  0.00    +0.000 A 
BRANCH  18  20
ATOM     20  N   UNL     1       0.333  10.668  20.552  0.00  0.00    +0.000 N 
ATOM     21  O   UNL     1       0.930  11.232  21.482  0.00  0.00    +0.000 OA
ATOM     22  O   UNL     1      -0.820  10.945  20.185  0.00  0.00    +0.000 OA
ENDBRANCH  18  20
ENDBRANCH  12  14
ENDBRANCH   2  12
BRANCH   1  23
ATOM     23  C   UNL     1       2.087   3.448  19.826  0.00  0.00    +0.000 C 
ATOM     24  O   UNL     1       1.683   3.182  20.955  0.00  0.00    +0.000 OA
BRANCH  23  25
ATOM     25  C   UNL     1       1.398   3.010  18.556  0.00  0.00    +0.000 C 
ATOM     26  F   UNL     1       1.158   4.017  17.672  0.00  0.00    +0.000 F 
ATOM     27  F   UNL     1       2.089   2.049  17.887  0.00  0.00    +0.000 F 
ATOM     28  F   UNL     1       0.169   2.474  18.818  0.00  0.00    +0.000 F 
ENDBRANCH  23  25
ENDBRANCH   1  23
TORSDOF 7
ENDMDL
MODEL 2
REMARK VINA RESULT:      -8.5      0.196      1.194
REMARK  Name = 
REMARK  7 active torsions:
REMARK  status: ('A' for Active; 'I' for Inactive)
REMARK    1  A    between atoms: C_2  and  C_3
REMARK    2  A    between atoms: C_2  and  C_21
REMARK    3  A    between atoms: C_3  and  C_15
REMARK    4  A    between atoms: N_4  and  N_5
REMARK    5  A    between atoms: N_5  and  C_6
REMARK    6  A    between atoms: C_10  and  N_11
REMARK    7  A    between atoms: C_15  and  C_17
REMARK                            x       y       z     vdW  Elec       q    Type
REMARK                         _______ _______ _______ _____ _____    ______ ____
ROOT
ATOM      1  C   UNL     1       3.330   4.309  19.611  0.00  0.00    +0.000 C 
ATOM      2  N   UNL     1       3.473   5.574  19.902  0.00  0.00    +0.000 NA
ENDROOT
BRANCH   1   4
ATOM      3  O   UNL     1       5.097   2.830  19.920  0.00  0.00    +0.000 OA
ATOM      4  C   UNL     1       4.596   3.635  19.143  0.00  0.00    +0.000 C 
BRANCH   4   5
ATOM      5  C   UNL     1       5.234   3.969  17.841  0.00  0.00    +0.000 A 
ATOM      6  C   UNL     1       4.551   3.887  16.620  0.00  0.00    +0.000 A 
ATOM      7  C   UNL     1       5.198   4.243  15.431  0.00  0.00    +0.000 A 
ATOM      8  C   UNL     1       6.524   4.675  15.461  0.00  0.00    +0.000 A 
ATOM      9 BR   UNL     1       7.390   5.168  13.856  0.00  0.00    +0.000 Br
ATOM     10  C   UNL     1       7.214   4.749  16.670  0.00  0.00    +0.000 A 
ATOM     11  C   UNL     1       6.571   4.389  17.856  0.00  0.00    +0.000 A 
ENDBRANCH   4   5
ENDBRANCH   1   4
BRANCH   2  12
ATOM     12  N   UNL     1       2.455   6.257  20.482  0.00  0.00    +0.000 N 
ATOM     13  H   UNL     1       1.671   5.726  20.866  0.00  0.00    +0.000 HD
BRANCH  12  14
ATOM     14  C   UNL     1       2.040   7.431  19.800  0.00  0.00    +0.000 A 
ATOM     15  C   UNL     1       2.366   7.639  18.447  0.00  0.00    +0.000 A 
ATOM     16  C   UNL     1       2.037   8.823  17.783  0.00  0.00    +0.000 A 
ATOM     17  C   UNL     1       1.384   9.842  18.470  0.00  0.00    +0.000 A 
ATOM     18  C   UNL     1       1.078   9.663  19.825  0.00  0.00    +0.000 A 
ATOM     19  C   UNL     1       1.411   8.471  20.495  0.00  0.00    +0.000 A 
BRANCH  18  20
ATOM     20  N   UNL     1       0.402  10.741  20.555  0.00  0.00    +0.000 N 
ATOM     21  O   UNL     1       0.632  10.851  21.770  0.00  0.00    +0.000 OA
ATOM     22  O   UNL     1      -0.355  11.486  19.913  0.00  0.00    +0.000 OA
ENDBRANCH  18  20
ENDBRANCH  12  14
ENDBRANCH   2  12
BRANCH   1  23
ATOM     23  C   UNL     1       2.061   3.506  19.822  0.00  0.00    +0.000 C 
ATOM     24  O   UNL     1       1.631   3.303  20.955  0.00  0.00    +0.000 OA
BRANCH  23  25
ATOM     25  C   UNL     1       1.398   3.003  18.563  0.00  0.00    +0.000 C 
ATOM     26  F   UNL     1       2.129   2.085  17.874  0.00  0.00    +0.000 F 
ATOM     27  F   UNL     1       0.179   2.448  18.796  0.00  0.00    +0.000 F 
ATOM     28  F   UNL     1       1.184   4.018  17.675  0.00  0.00    +0.000 F 
ENDBRANCH  23  25
ENDBRANCH   1  23
TORSDOF 7
ENDMDL
MODEL 3
REMARK VINA RESULT:      -8.2      3.342      6.378
REMARK  Name = 
REMARK  7 active torsions:
REMARK  status: ('A' for Active; 'I' for Inactive)
REMARK    1  A    between atoms: C_2  and  C_3
REMARK    2  A    between atoms: C_2  and  C_21
REMARK    3  A    between atoms: C_3  and  C_15
REMARK    4  A    between atoms: N_4  and  N_5
REMARK    5  A    between atoms: N_5  and  C_6
REMARK    6  A    between atoms: C_10  and  N_11
REMARK    7  A    between atoms: C_15  and  C_17
REMARK                            x       y       z     vdW  Elec       q    Type
REMARK                         _______ _______ _______ _____ _____    ______ ____
ROOT
ATOM      1  C   UNL     1       3.209   4.336  19.559  0.00  0.00    +0.000 C 
ATOM      2  N   UNL     1       4.485   4.425  19.822  0.00  0.00    +0.000 NA
ENDROOT
BRANCH   1   4
ATOM      3  O   UNL     1       1.849   4.756  21.397  0.00  0.00    +0.000 OA
ATOM      4  C   UNL     1       2.341   5.250  20.389  0.00  0.00    +0.000 C 
BRANCH   4   5
ATOM      5  C   UNL     1       2.050   6.650  19.980  0.00  0.00    +0.000 A 
ATOM      6  C   UNL     1       2.413   7.164  18.727  0.00  0.00    +0.000 A 
ATOM      7  C   UNL     1       2.085   8.482  18.390  0.00  0.00    +0.000 A 
ATOM      8  C   UNL     1       1.400   9.286  19.303  0.00  0.00    +0.000 A 
ATOM      9 BR   UNL     1       0.947  11.060  18.839  0.00  0.00    +0.000 Br
ATOM     10  C   UNL     1       1.046   8.786  20.554  0.00  0.00    +0.000 A 
ATOM     11  C   UNL     1       1.378   7.472  20.894  0.00  0.00    +0.000 A 
ENDBRANCH   4   5
ENDBRANCH   1   4
BRANCH   2  12
ATOM     12  N   UNL     1       5.386   3.777  19.043  0.00  0.00    +0.000 N 
ATOM     13  H   UNL     1       5.935   3.023  19.460  0.00  0.00    +0.000 HD
BRANCH  12  14
ATOM     14  C   UNL     1       6.155   4.603  18.181  0.00  0.00    +0.000 A 
ATOM     15  C   UNL     1       6.724   5.803  18.643  0.00  0.00    +0.000 A 
ATOM     16  C   UNL     1       7.414   6.668  17.789  0.00  0.00    +0.000 A 
ATOM     17  C   UNL     1       7.534   6.357  16.439  0.00  0.00    +0.000 A 
ATOM     18  C   UNL     1       6.948   5.179  15.957  0.00  0.00    +0.000 A 
ATOM     19  C   UNL     1       6.251   4.309  16.816  0.00  0.00    +0.000 A 
BRANCH  18  20
ATOM     20  N   UNL     1       7.061   4.854  14.530  0.00  0.00    +0.000 N 
ATOM     21  O   UNL     1       7.827   5.543  13.839  0.00  0.00    +0.000 OA
ATOM     22  O   UNL     1       6.390   3.903  14.101  0.00  0.00    +0.000 OA
ENDBRANCH  18  20
ENDBRANCH  12  14
ENDBRANCH   2  12
BRANCH   1  23
ATOM     23  C   UNL     1       2.607   3.499  18.447  0.00  0.00    +0.000 C 
ATOM     24  O   UNL     1       2.589   3.914  17.292  0.00  0.00    +0.000 OA
BRANCH  23  25
ATOM     25  C   UNL     1       2.057   2.160  18.873  0.00  0.00    +0.000 C 
ATOM     26  F   UNL     1       2.001   1.979  20.221  0.00  0.00    +0.000 F 
ATOM     27  F   UNL     1       0.808   1.925  18.388  0.00  0.00    +0.000 F 
ATOM     28  F   UNL     1       2.835   1.135  18.415  0.00  0.00    +0.000 F 
ENDBRANCH  23  25
ENDBRANCH   1  23
TORSDOF 7
ENDMDL
MODEL 4
REMARK VINA RESULT:      -8.2      3.300      6.254
REMARK  Name = 
REMARK  7 active torsions:
REMARK  status: ('A' for Active; 'I' for Inactive)
REMARK    1  A    between atoms: C_2  and  C_3
REMARK    2  A    between atoms: C_2  and  C_21
REMARK    3  A    between atoms: C_3  and  C_15
REMARK    4  A    between atoms: N_4  and  N_5
REMARK    5  A    between atoms: N_5  and  C_6
REMARK    6  A    between atoms: C_10  and  N_11
REMARK    7  A    between atoms: C_15  and  C_17
REMARK                            x       y       z     vdW  Elec       q    Type
REMARK                         _______ _______ _______ _____ _____    ______ ____
ROOT
ATOM      1  C   UNL     1       3.558   4.007  19.744  0.00  0.00    +0.000 C 
ATOM      2  N   UNL     1       4.745   4.540  19.851  0.00  0.00    +0.000 NA
ENDROOT
BRANCH   1   4
ATOM      3  O   UNL     1       1.752   4.268  21.184  0.00  0.00    +0.000 OA
ATOM      4  C   UNL     1       2.452   4.834  20.351  0.00  0.00    +0.000 C 
BRANCH   4   5
ATOM      5  C   UNL     1       2.186   6.234  19.925  0.00  0.00    +0.000 A 
ATOM      6  C   UNL     1       2.498   6.707  18.644  0.00  0.00    +0.000 A 
ATOM      7  C   UNL     1       2.197   8.028  18.293  0.00  0.00    +0.000 A 
ATOM      8  C   UNL     1       1.588   8.875  19.220  0.00  0.00    +0.000 A 
ATOM      9 BR   UNL     1       1.170  10.653  18.739  0.00  0.00    +0.000 Br
ATOM     10  C   UNL     1       1.284   8.415  20.500  0.00  0.00    +0.000 A 
ATOM     11  C   UNL     1       1.589   7.098  20.853  0.00  0.00    +0.000 A 
ENDBRANCH   4   5
ENDBRANCH   1   4
BRANCH   2  12
ATOM     12  N   UNL     1       5.802   3.979  19.212  0.00  0.00    +0.000 N 
ATOM     13  H   UNL     1       6.466   3.429  19.761  0.00  0.00    +0.000 HD
BRANCH  12  14
ATOM     14  C   UNL     1       6.438   4.801  18.245  0.00  0.00    +0.000 A 
ATOM     15  C   UNL     1       6.926   6.076  18.585  0.00  0.00    +0.000 A 
ATOM     16  C   UNL     1       7.481   6.931  17.630  0.00  0.00    +0.000 A 
ATOM     17  C   UNL     1       7.544   6.533  16.298  0.00  0.00    +0.000 A 
ATOM     18  C   UNL     1       7.036   5.278  15.938  0.00  0.00    +0.000 A 
ATOM     19  C   UNL     1       6.475   4.417  16.900  0.00  0.00    +0.000 A 
BRANCH  18  20
ATOM     20  N   UNL     1       7.088   4.861  14.533  0.00  0.00    +0.000 N 
ATOM     21  O   UNL     1       6.360   3.920  14.181  0.00  0.00    +0.000 OA
ATOM     22  O   UNL     1       7.854   5.479  13.776  0.00  0.00    +0.000 OA
ENDBRANCH  18  20
ENDBRANCH  12  14
ENDBRANCH   2  12
BRANCH   1  23
ATOM     23  C   UNL     1       3.241   2.736  18.981  0.00  0.00    +0.000 C 
ATOM     24  O   UNL     1       3.757   1.669  19.302  0.00  0.00    +0.000 OA
BRANCH  23  25
ATOM     25  C   UNL     1       2.269   2.894  17.837  0.00  0.00    +0.000 C 
ATOM     26  F   UNL     1       0.967   2.999  18.219  0.00  0.00    +0.000 F 
ATOM     27  F   UNL     1       2.544   3.974  17.058  0.00  0.00    +0.000 F 
ATOM     28  F   UNL     1       2.302   1.812  17.004  0.00  0.00    +0.000 F 
ENDBRANCH  23  25
ENDBRANCH   1  23
TORSDOF 7
ENDMDL
MODEL 5
REMARK VINA RESULT:      -8.2      1.014      1.360
REMARK  Name = 
REMARK  7 active torsions:
REMARK  status: ('A' for Active; 'I' for Inactive)
REMARK    1  A    between atoms: C_2  and  C_3
REMARK    2  A    between atoms: C_2  and  C_21
REMARK    3  A    between atoms: C_3  and  C_15
REMARK    4  A    between atoms: N_4  and  N_5
REMARK    5  A    between atoms: N_5  and  C_6
REMARK    6  A    between atoms: C_10  and  N_11
REMARK    7  A    between atoms: C_15  and  C_17
REMARK                            x       y       z     vdW  Elec       q    Type
REMARK                         _______ _______ _______ _____ _____    ______ ____
ROOT
ATOM      1  C   UNL     1       3.435   4.612  18.984  0.00  0.00    +0.000 C 
ATOM      2  N   UNL     1       3.495   5.662  19.758  0.00  0.00    +0.000 NA
ENDROOT
BRANCH   1   4
ATOM      3  O   UNL     1       5.275   3.304  19.540  0.00  0.00    +0.000 OA
ATOM      4  C   UNL     1       4.777   4.001  18.664  0.00  0.00    +0.000 C 
BRANCH   4   5
ATOM      5  C   UNL     1       5.484   4.275  17.384  0.00  0.00    +0.000 A 
ATOM      6  C   UNL     1       6.832   4.654  17.329  0.00  0.00    +0.000 A 
ATOM      7  C   UNL     1       7.449   4.870  16.091  0.00  0.00    +0.000 A 
ATOM      8  C   UNL     1       6.720   4.711  14.912  0.00  0.00    +0.000 A 
ATOM      9 BR   UNL     1       7.559   4.990  13.243  0.00  0.00    +0.000 Br
ATOM     10  C   UNL     1       5.376   4.346  14.958  0.00  0.00    +0.000 A 
ATOM     11  C   UNL     1       4.758   4.136  16.193  0.00  0.00    +0.000 A 
ENDBRANCH   4   5
ENDBRANCH   1   4
BRANCH   2  12
ATOM     12  N   UNL     1       2.356   6.210  20.249  0.00  0.00    +0.000 N 
ATOM     13  H   UNL     1       1.555   5.598  20.416  0.00  0.00    +0.000 HD
BRANCH  12  14
ATOM     14  C   UNL     1       1.984   7.457  19.682  0.00  0.00    +0.000 A 
ATOM     15  C   UNL     1       2.349   7.794  18.366  0.00  0.00    +0.000 A 
ATOM     16  C   UNL     1       2.063   9.048  17.819  0.00  0.00    +0.000 A 
ATOM     17  C   UNL     1       1.415  10.007  18.591  0.00  0.00    +0.000 A 
ATOM     18  C   UNL     1       1.071   9.698  19.914  0.00  0.00    +0.000 A 
ATOM     19  C   UNL     1       1.361   8.436  20.465  0.00  0.00    +0.000 A 
BRANCH  18  20
ATOM     20  N   UNL     1       0.400  10.712  20.735  0.00  0.00    +0.000 N 
ATOM     21  O   UNL     1      -0.439  11.441  20.183  0.00  0.00    +0.000 OA
ATOM     22  O   UNL     1       0.707  10.776  21.936  0.00  0.00    +0.000 OA
ENDBRANCH  18  20
ENDBRANCH  12  14
ENDBRANCH   2  12
BRANCH   1  23
ATOM     23  C   UNL     1       2.154   3.947  18.519  0.00  0.00    +0.000 C 
ATOM     24  O   UNL     1       1.437   4.489  17.681  0.00  0.00    +0.000 OA
BRANCH  23  25
ATOM     25  C   UNL     1       1.853   2.610  19.150  0.00  0.00    +0.000 C 
ATOM     26  F   UNL     1       2.157   2.534  20.475  0.00  0.00    +0.000 F 
ATOM     27  F   UNL     1       0.550   2.247  19.020  0.00  0.00    +0.000 F 
ATOM     28  F   UNL     1       2.580   1.611  18.568  0.00  0.00    +0.000 F 
ENDBRANCH  23  25
ENDBRANCH   1  23
TORSDOF 7
ENDMDL
MODEL 6
REMARK VINA RESULT:      -8.2      1.028      1.567
REMARK  Name = 
REMARK  7 active torsions:
REMARK  status: ('A' for Active; 'I' for Inactive)
REMARK    1  A    between atoms: C_2  and  C_3
REMARK    2  A    between atoms: C_2  and  C_21
REMARK    3  A    between atoms: C_3  and  C_15
REMARK    4  A    between atoms: N_4  and  N_5
REMARK    5  A    between atoms: N_5  and  C_6
REMARK    6  A    between atoms: C_10  and  N_11
REMARK    7  A    between atoms: C_15  and  C_17
REMARK                            x       y       z     vdW  Elec       q    Type
REMARK                         _______ _______ _______ _____ _____    ______ ____
ROOT
ATOM      1  C   UNL     1       3.458   4.616  18.937  0.00  0.00    +0.000 C 
ATOM      2  N   UNL     1       3.519   5.662  19.717  0.00  0.00    +0.000 NA
ENDROOT
BRANCH   1   4
ATOM      3  O   UNL     1       5.349   3.382  19.492  0.00  0.00    +0.000 OA
ATOM      4  C   UNL     1       4.801   4.018  18.598  0.00  0.00    +0.000 C 
BRANCH   4   5
ATOM      5  C   UNL     1       5.452   4.235  17.278  0.00  0.00    +0.000 A 
ATOM      6  C   UNL     1       4.773   4.074  16.063  0.00  0.00    +0.000 A 
ATOM      7  C   UNL     1       5.433   4.321  14.854  0.00  0.00    +0.000 A 
ATOM      8  C   UNL     1       6.769   4.724  14.859  0.00  0.00    +0.000 A 
ATOM      9 BR   UNL     1       7.653   5.070  13.225  0.00  0.00    +0.000 Br
ATOM     10  C   UNL     1       7.455   4.875  16.062  0.00  0.00    +0.000 A 
ATOM     11  C   UNL     1       6.799   4.624  17.269  0.00  0.00    +0.000 A 
ENDBRANCH   4   5
ENDBRANCH   1   4
BRANCH   2  12
ATOM     12  N   UNL     1       2.381   6.198  20.224  0.00  0.00    +0.000 N 
ATOM     13  H   UNL     1       1.586   5.579  20.393  0.00  0.00    +0.000 HD
BRANCH  12  14
ATOM     14  C   UNL     1       1.995   7.448  19.671  0.00  0.00    +0.000 A 
ATOM     15  C   UNL     1       2.355   7.802  18.357  0.00  0.00    +0.000 A 
ATOM     16  C   UNL     1       2.054   9.058  17.825  0.00  0.00    +0.000 A 
ATOM     17  C   UNL     1       1.399  10.003  18.608  0.00  0.00    +0.000 A 
ATOM     18  C   UNL     1       1.060   9.676  19.928  0.00  0.00    +0.000 A 
ATOM     19  C   UNL     1       1.364   8.411  20.465  0.00  0.00    +0.000 A 
BRANCH  18  20
ATOM     20  N   UNL     1       0.380  10.674  20.761  0.00  0.00    +0.000 N 
ATOM     21  O   UNL     1       0.692  10.737  21.960  0.00  0.00    +0.000 OA
ATOM     22  O   UNL     1      -0.462  11.404  20.214  0.00  0.00    +0.000 OA
ENDBRANCH  18  20
ENDBRANCH  12  14
ENDBRANCH   2  12
BRANCH   1  23
ATOM     23  C   UNL     1       2.177   3.945  18.482  0.00  0.00    +0.000 C 
ATOM     24  O   UNL     1       1.428   4.504  17.685  0.00  0.00    +0.000 OA
BRANCH  23  25
ATOM     25  C   UNL     1       1.919   2.579  19.070  0.00  0.00    +0.000 C 
ATOM     26  F   UNL     1       2.246   2.464  20.386  0.00  0.00    +0.000 F 
ATOM     27  F   UNL     1       0.623   2.189  18.946  0.00  0.00    +0.000 F 
ATOM     28  F   UNL     1       2.661   1.619  18.441  0.00  0.00    +0.000 F 
ENDBRANCH  23  25
ENDBRANCH   1  23
TORSDOF 7
ENDMDL
MODEL 7
REMARK VINA RESULT:      -8.1      3.311      6.169
REMARK  Name = 
REMARK  7 active torsions:
REMARK  status: ('A' for Active; 'I' for Inactive)
REMARK    1  A    between atoms: C_2  and  C_3
REMARK    2  A    between atoms: C_2  and  C_21
REMARK    3  A    between atoms: C_3  and  C_15
REMARK    4  A    between atoms: N_4  and  N_5
REMARK    5  A    between atoms: N_5  and  C_6
REMARK    6  A    between atoms: C_10  and  N_11
REMARK    7  A    between atoms: C_15  and  C_17
REMARK                            x       y       z     vdW  Elec       q    Type
REMARK                         _______ _______ _______ _____ _____    ______ ____
ROOT
ATOM      1  C   UNL     1       3.569   3.899  19.781  0.00  0.00    +0.000 C 
ATOM      2  N   UNL     1       4.760   4.434  19.829  0.00  0.00    +0.000 NA
ENDROOT
BRANCH   1   4
ATOM      3  O   UNL     1       1.870   4.140  21.349  0.00  0.00    +0.000 OA
ATOM      4  C   UNL     1       2.498   4.711  20.465  0.00  0.00    +0.000 C 
BRANCH   4   5
ATOM      5  C   UNL     1       2.178   6.104  20.052  0.00  0.00    +0.000 A 
ATOM      6  C   UNL     1       1.545   7.020  20.902  0.00  0.00    +0.000 A 
ATOM      7  C   UNL     1       1.297   8.326  20.465  0.00  0.00    +0.000 A 
ATOM      8  C   UNL     1       1.678   8.716  19.180  0.00  0.00    +0.000 A 
ATOM      9 BR   UNL     1       1.355  10.483  18.598  0.00  0.00    +0.000 Br
ATOM     10  C   UNL     1       2.298   7.808  18.324  0.00  0.00    +0.000 A 
ATOM     11  C   UNL     1       2.541   6.502  18.758  0.00  0.00    +0.000 A 
ENDBRANCH   4   5
ENDBRANCH   1   4
BRANCH   2  12
ATOM     12  N   UNL     1       5.780   3.887  19.122  0.00  0.00    +0.000 N 
ATOM     13  H   UNL     1       6.456   3.303  19.617  0.00  0.00    +0.000 HD
BRANCH  12  14
ATOM     14  C   UNL     1       6.390   4.743  18.168  0.00  0.00    +0.000 A 
ATOM     15  C   UNL     1       6.806   6.041  18.519  0.00  0.00    +0.000 A 
ATOM     16  C   UNL     1       7.333   6.926  17.575  0.00  0.00    +0.000 A 
ATOM     17  C   UNL     1       7.440   6.535  16.245  0.00  0.00    +0.000 A 
ATOM     18  C   UNL     1       7.003   5.257  15.873  0.00  0.00    +0.000 A 
ATOM     19  C   UNL     1       6.470   4.366  16.823  0.00  0.00    +0.000 A 
BRANCH  18  20
ATOM     20  N   UNL     1       7.102   4.846  14.468  0.00  0.00    +0.000 N 
ATOM     21  O   UNL     1       7.887   5.469  13.737  0.00  0.00    +0.000 OA
ATOM     22  O   UNL     1       6.398   3.894  14.095  0.00  0.00    +0.000 OA
ENDBRANCH  18  20
ENDBRANCH  12  14
ENDBRANCH   2  12
BRANCH   1  23
ATOM     23  C   UNL     1       3.213   2.638  19.017  0.00  0.00    +0.000 C 
ATOM     24  O   UNL     1       3.695   1.555  19.338  0.00  0.00    +0.000 OA
BRANCH  23  25
ATOM     25  C   UNL     1       2.247   2.828  17.873  0.00  0.00    +0.000 C 
ATOM     26  F   UNL     1       2.460   3.956  17.141  0.00  0.00    +0.000 F 
ATOM     27  F   UNL     1       2.249   1.783  17.003  0.00  0.00    +0.000 F 
ATOM     28  F   UNL     1       0.962   2.940  18.321  0.00  0.00    +0.000 F 
ENDBRANCH  23  25
ENDBRANCH   1  23
TORSDOF 7
ENDMDL
MODEL 8
REMARK VINA RESULT:      -8.1      5.035      8.092
REMARK  Name = 
REMARK  7 active torsions:
REMARK  status: ('A' for Active; 'I' for Inactive)
REMARK    1  A    between atoms: C_2  and  C_3
REMARK    2  A    between atoms: C_2  and  C_21
REMARK    3  A    between atoms: C_3  and  C_15
REMARK    4  A    between atoms: N_4  and  N_5
REMARK    5  A    between atoms: N_5  and  C_6
REMARK    6  A    between atoms: C_10  and  N_11
REMARK    7  A    between atoms: C_15  and  C_17
REMARK                            x       y       z     vdW  Elec       q    Type
REMARK                         _______ _______ _______ _____ _____    ______ ____
ROOT
ATOM      1  C   UNL     1       5.635   6.017  17.118  0.00  0.00    +0.000 C 
ATOM      2  N   UNL     1       5.603   5.001  16.298  0.00  0.00    +0.000 NA
ENDROOT
BRANCH   1   4
ATOM      3  O   UNL     1       3.823   7.458  17.323  0.00  0.00    +0.000 OA
ATOM      4  C   UNL     1       4.291   6.389  17.695  0.00  0.00    +0.000 C 
BRANCH   4   5
ATOM      5  C   UNL     1       3.601   5.538  18.701  0.00  0.00    +0.000 A 
ATOM      6  C   UNL     1       2.481   5.974  19.422  0.00  0.00    +0.000 A 
ATOM      7  C   UNL     1       1.858   5.116  20.335  0.00  0.00    +0.000 A 
ATOM      8  C   UNL     1       2.354   3.826  20.530  0.00  0.00    +0.000 A 
ATOM      9 BR   UNL     1       1.503   2.665  21.753  0.00  0.00    +0.000 Br
ATOM     10  C   UNL     1       3.474   3.388  19.826  0.00  0.00    +0.000 A 
ATOM     11  C   UNL     1       4.100   4.246  18.919  0.00  0.00    +0.000 A 
ENDBRANCH   4   5
ENDBRANCH   1   4
BRANCH   2  12
ATOM     12  N   UNL     1       6.760   4.467  15.833  0.00  0.00    +0.000 N 
ATOM     13  H   UNL     1       7.637   4.745  16.278  0.00  0.00    +0.000 HD
BRANCH  12  14
ATOM     14  C   UNL     1       6.867   4.376  14.421  0.00  0.00    +0.000 A 
ATOM     15  C   UNL     1       7.700   5.249  13.698  0.00  0.00    +0.000 A 
ATOM     16  C   UNL     1       7.756   5.229  12.302  0.00  0.00    +0.000 A 
ATOM     17  C   UNL     1       6.958   4.338  11.591  0.00  0.00    +0.000 A 
ATOM     18  C   UNL     1       6.101   3.481  12.295  0.00  0.00    +0.000 A 
ATOM     19  C   UNL     1       6.043   3.503  13.700  0.00  0.00    +0.000 A 
BRANCH  18  20
ATOM     20  N   UNL     1       5.248   2.550  11.548  0.00  0.00    +0.000 N 
ATOM     21  O   UNL     1       5.719   1.439  11.259  0.00  0.00    +0.000 OA
ATOM     22  O   UNL     1       4.102   2.926  11.255  0.00  0.00    +0.000 OA
ENDBRANCH  18  20
ENDBRANCH  12  14
ENDBRANCH   2  12
BRANCH   1  23
ATOM     23  C   UNL     1       6.895   6.722  17.580  0.00  0.00    +0.000 C 
ATOM     24  O   UNL     1       7.273   7.753  17.031  0.00  0.00    +0.000 OA
BRANCH  23  25
ATOM     25  C   UNL     1       7.614   6.068  18.735  0.00  0.00    +0.000 C 
ATOM     26  F   UNL     1       6.825   5.813  19.815  0.00  0.00    +0.000 F 
ATOM     27  F   UNL     1       8.206   4.894  18.390  0.00  0.00    +0.000 F 
ATOM     28  F   UNL     1       8.614   6.865  19.214  0.00  0.00    +0.000 F 
ENDBRANCH  23  25
ENDBRANCH   1  23
TORSDOF 7
ENDMDL
MODEL 9
REMARK VINA RESULT:      -8.0      3.714      6.970
REMARK  Name = 
REMARK  7 active torsions:
REMARK  status: ('A' for Active; 'I' for Inactive)
REMARK    1  A    between atoms: C_2  and  C_3
REMARK    2  A    between atoms: C_2  and  C_21
REMARK    3  A    between atoms: C_3  and  C_15
REMARK    4  A    between atoms: N_4  and  N_5
REMARK    5  A    between atoms: N_5  and  C_6
REMARK    6  A    between atoms: C_10  and  N_11
REMARK    7  A    between atoms: C_15  and  C_17
REMARK                            x       y       z     vdW  Elec       q    Type
REMARK                         _______ _______ _______ _____ _____    ______ ____
ROOT
ATOM      1  C   UNL     1       2.718   4.684  18.597  0.00  0.00    +0.000 C 
ATOM      2  N   UNL     1       3.885   4.610  18.016  0.00  0.00    +0.000 NA
ENDROOT
BRANCH   1   4
ATOM      3  O   UNL     1       2.939   5.304  20.826  0.00  0.00    +0.000 OA
ATOM      4  C   UNL     1       2.642   5.704  19.706  0.00  0.00    +0.000 C 
BRANCH   4   5
ATOM      5  C   UNL     1       2.177   7.097  19.468  0.00  0.00    +0.000 A 
ATOM      6  C   UNL     1       2.319   7.742  18.232  0.00  0.00    +0.000 A 
ATOM      7  C   UNL     1       1.835   9.044  18.062  0.00  0.00    +0.000 A 
ATOM      8  C   UNL     1       1.216   9.702  19.126  0.00  0.00    +0.000 A 
ATOM      9 BR   UNL     1       0.552  11.455  18.889  0.00  0.00    +0.000 Br
ATOM     10  C   UNL     1       1.081   9.072  20.361  0.00  0.00    +0.000 A 
ATOM     11  C   UNL     1       1.568   7.775  20.533  0.00  0.00    +0.000 A 
ENDBRANCH   4   5
ENDBRANCH   1   4
BRANCH   2  12
ATOM     12  N   UNL     1       4.044   3.849  16.905  0.00  0.00    +0.000 N 
ATOM     13  H   UNL     1       3.873   2.844  16.976  0.00  0.00    +0.000 HD
BRANCH  12  14
ATOM     14  C   UNL     1       5.179   4.157  16.110  0.00  0.00    +0.000 A 
ATOM     15  C   UNL     1       6.223   4.954  16.614  0.00  0.00    +0.000 A 
ATOM     16  C   UNL     1       7.308   5.335  15.820  0.00  0.00    +0.000 A 
ATOM     17  C   UNL     1       7.364   4.939  14.488  0.00  0.00    +0.000 A 
ATOM     18  C   UNL     1       6.317   4.170  13.962  0.00  0.00    +0.000 A 
ATOM     19  C   UNL     1       5.223   3.788  14.761  0.00  0.00    +0.000 A 
BRANCH  18  20
ATOM     20  N   UNL     1       6.365   3.762  12.554  0.00  0.00    +0.000 N 
ATOM     21  O   UNL     1       5.438   3.060  12.122  0.00  0.00    +0.000 OA
ATOM     22  O   UNL     1       7.328   4.152  11.874  0.00  0.00    +0.000 OA
ENDBRANCH  18  20
ENDBRANCH  12  14
ENDBRANCH   2  12
BRANCH   1  23
ATOM     23  C   UNL     1       1.479   3.927  18.159  0.00  0.00    +0.000 C 
ATOM     24  O   UNL     1       0.930   4.189  17.092  0.00  0.00    +0.000 OA
BRANCH  23  25
ATOM     25  C   UNL     1       1.003   2.859  19.114  0.00  0.00    +0.000 C 
ATOM     26  F   UNL     1       0.380   3.338  20.225  0.00  0.00    +0.000 F 
ATOM     27  F   UNL     1       0.153   1.973  18.532  0.00  0.00    +0.000 F 
ATOM     28  F   UNL     1       2.047   2.119  19.591  0.00  0.00    +0.000 F 
ENDBRANCH  23  25
ENDBRANCH   1  23
TORSDOF 7
ENDMDL
