MODEL 1
REMARK VINA RESULT:      -7.9      0.000      0.000
REMARK  Name = 
REMARK  5 active torsions:
REMARK  status: ('A' for Active; 'I' for Inactive)
REMARK    1  A    between atoms: C_1  and  C_2
REMARK    2  A    between atoms: C_2  and  C_4
REMARK    3  A    between atoms: C_9  and  C_10
REMARK    4  A    between atoms: C_11  and  C_12
REMARK    5  A    between atoms: C_15  and  N_16
REMARK                            x       y       z     vdW  Elec       q    Type
REMARK                         _______ _______ _______ _____ _____    ______ ____
ROOT
ATOM      1  C   UNL     1       4.567   3.943  17.204  0.00  0.00    +0.000 A 
ATOM      2  C   UNL     1       5.468   3.572  16.193  0.00  0.00    +0.000 A 
ATOM      3  C   UNL     1       6.558   4.383  15.845  0.00  0.00    +0.000 A 
ATOM      4  C   UNL     1       6.699   5.576  16.556  0.00  0.00    +0.000 A 
ATOM      5  N   UNL     1       7.617   6.596  16.496  0.00  0.00    +0.000 N 
ATOM      6  C   UNL     1       7.280   7.546  17.434  0.00  0.00    +0.000 A 
ATOM      7  N   UNL     1       6.196   7.180  18.090  0.00  0.00    +0.000 NA
ATOM      8  C   UNL     1       5.826   5.971  17.560  0.00  0.00    +0.000 A 
ATOM      9  C   UNL     1       4.741   5.152  17.896  0.00  0.00    +0.000 A 
ATOM     10  H   UNL     1       8.402   6.640  15.864  0.00  0.00    +0.000 HD
ENDROOT
BRANCH   1  12
ATOM     11  C   UNL     1       2.037   3.613  17.591  0.00  0.00    +0.000 C 
ATOM     12  C   UNL     1       3.427   3.034  17.525  0.00  0.00    +0.000 C 
ATOM     13  O   UNL     1       3.633   1.839  17.730  0.00  0.00    +0.000 OA
ENDBRANCH   1  12
BRANCH   6  14
ATOM     14  C   UNL     1       8.084   8.706  17.542  0.00  0.00    +0.000 C 
ATOM     15  C   UNL     1       8.532   9.109  18.742  0.00  0.00    +0.000 C 
BRANCH  15  16
ATOM     16  C   UNL     1       9.329  10.329  18.885  0.00  0.00    +0.000 A 
ATOM     17  C   UNL     1       9.431  10.947  20.137  0.00  0.00    +0.000 A 
ATOM     18  C   UNL     1      10.159  12.131  20.286  0.00  0.00    +0.000 A 
ATOM     19  C   UNL     1      10.790  12.698  19.170  0.00  0.00    +0.000 A 
ATOM     20  C   UNL     1      10.699  12.083  17.914  0.00  0.00    +0.000 A 
ATOM     21  C   UNL     1       9.967  10.898  17.776  0.00  0.00    +0.000 A 
BRANCH  19  22
ATOM     22  N   UNL     1      11.546  13.948  19.318  0.00  0.00    +0.000 N 
ATOM     23  O   UNL     1      11.545  14.494  20.431  0.00  0.00    +0.000 OA
ATOM     24  O   UNL     1      12.136  14.387  18.320  0.00  0.00    +0.000 OA
ENDBRANCH  19  22
ENDBRANCH  15  16
ENDBRANCH   6  14
TORSDOF 4
ENDMDL
MODEL 2
REMARK VINA RESULT:      -7.9      0.688      1.220
REMARK  Name = 
REMARK  5 active torsions:
REMARK  status: ('A' for Active; 'I' for Inactive)
REMARK    1  A    between atoms: C_1  and  C_2
REMARK    2  A    between atoms: C_2  and  C_4
REMARK    3  A    between atoms: C_9  and  C_10
REMARK    4  A    between atoms: C_11  and  C_12
REMARK    5  A    between atoms: C_15  and  N_16
REMARK                            x       y       z     vdW  Elec       q    Type
REMARK                         _______ _______ _______ _____ _____    ______ ____
ROOT
ATOM      1  C   UNL     1       4.446   4.120  17.100  0.00  0.00    +0.000 A 
ATOM      2  C   UNL     1       5.528   3.624  16.355  0.00  0.00    +0.000 A 
ATOM      3  C   UNL     1       6.681   4.392  16.134  0.00  0.00    +0.000 A 
ATOM      4  C   UNL     1       6.695   5.671  16.694  0.00  0.00    +0.000 A 
ATOM      5  N   UNL     1       7.624   6.682  16.688  0.00  0.00    +0.000 N 
ATOM      6  C   UNL     1       7.119   7.746  17.401  0.00  0.00    +0.000 A 
ATOM      7  N   UNL     1       5.917   7.461  17.863  0.00  0.00    +0.000 NA
ATOM      8  C   UNL     1       5.642   6.188  17.434  0.00  0.00    +0.000 A 
ATOM      9  C   UNL     1       4.495   5.412  17.646  0.00  0.00    +0.000 A 
ATOM     10  H   UNL     1       8.522   6.649  16.232  0.00  0.00    +0.000 HD
ENDROOT
BRANCH   1  12
ATOM     11  C   UNL     1       3.435   1.892  17.924  0.00  0.00    +0.000 C 
ATOM     12  C   UNL     1       3.248   3.251  17.299  0.00  0.00    +0.000 C 
ATOM     13  O   UNL     1       2.136   3.649  16.955  0.00  0.00    +0.000 OA
ENDBRANCH   1  12
BRANCH   6  14
ATOM     14  C   UNL     1       7.904   8.918  17.516  0.00  0.00    +0.000 C 
ATOM     15  C   UNL     1       8.455   9.250  18.695  0.00  0.00    +0.000 C 
BRANCH  15  16
ATOM     16  C   UNL     1       9.236  10.479  18.850  0.00  0.00    +0.000 A 
ATOM     17  C   UNL     1       9.322  11.385  17.786  0.00  0.00    +0.000 A 
ATOM     18  C   UNL     1      10.092  12.545  17.904  0.00  0.00    +0.000 A 
ATOM     19  C   UNL     1      10.778  12.800  19.100  0.00  0.00    +0.000 A 
ATOM     20  C   UNL     1      10.692  11.903  20.173  0.00  0.00    +0.000 A 
ATOM     21  C   UNL     1       9.920  10.744  20.044  0.00  0.00    +0.000 A 
BRANCH  19  22
ATOM     22  N   UNL     1      11.596  14.012  19.224  0.00  0.00    +0.000 N 
ATOM     23  O   UNL     1      11.500  14.669  20.272  0.00  0.00    +0.000 OA
ATOM     24  O   UNL     1      12.332  14.312  18.273  0.00  0.00    +0.000 OA
ENDBRANCH  19  22
ENDBRANCH  15  16
ENDBRANCH   6  14
TORSDOF 4
ENDMDL
MODEL 3
REMARK VINA RESULT:      -7.9      6.784      8.581
REMARK  Name = 
REMARK  5 active torsions:
REMARK  status: ('A' for Active; 'I' for Inactive)
REMARK    1  A    between atoms: C_1  and  C_2
REMARK    2  A    between atoms: C_2  and  C_4
REMARK    3  A    between atoms: C_9  and  C_10
REMARK    4  A    between atoms: C_11  and  C_12
REMARK    5  A    between atoms: C_15  and  N_16
REMARK                            x       y       z     vdW  Elec       q    Type
REMARK                         _______ _______ _______ _____ _____    ______ ____
ROOT
ATOM      1  C   UNL     1       5.416   5.030  16.577  0.00  0.00    +0.000 A 
ATOM      2  C   UNL     1       4.877   4.092  17.472  0.00  0.00    +0.000 A 
ATOM      3  C   UNL     1       3.873   4.441  18.387  0.00  0.00    +0.000 A 
ATOM      4  C   UNL     1       3.439   5.768  18.359  0.00  0.00    +0.000 A 
ATOM      5  N   UNL     1       2.499   6.457  19.085  0.00  0.00    +0.000 N 
ATOM      6  C   UNL     1       2.475   7.762  18.644  0.00  0.00    +0.000 A 
ATOM      7  N   UNL     1       3.349   7.935  17.672  0.00  0.00    +0.000 NA
ATOM      8  C   UNL     1       3.951   6.717  17.486  0.00  0.00    +0.000 A 
ATOM      9  C   UNL     1       4.955   6.355  16.579  0.00  0.00    +0.000 A 
ATOM     10  H   UNL     1       1.928   6.071  19.821  0.00  0.00    +0.000 HD
ENDROOT
BRANCH   1  12
ATOM     11  C   UNL     1       6.077   4.063  14.277  0.00  0.00    +0.000 C 
ATOM     12  C   UNL     1       6.483   4.593  15.628  0.00  0.00    +0.000 C 
ATOM     13  O   UNL     1       7.666   4.670  15.956  0.00  0.00    +0.000 OA
ENDBRANCH   1  12
BRANCH   6  14
ATOM     14  C   UNL     1       1.584   8.670  19.265  0.00  0.00    +0.000 C 
ATOM     15  C   UNL     1       1.378   8.616  20.591  0.00  0.00    +0.000 C 
BRANCH  15  16
ATOM     16  C   UNL     1       0.430   9.516  21.250  0.00  0.00    +0.000 A 
ATOM     17  C   UNL     1      -0.033  10.651  20.574  0.00  0.00    +0.000 A 
ATOM     18  C   UNL     1      -0.910  11.541  21.200  0.00  0.00    +0.000 A 
ATOM     19  C   UNL     1      -1.328  11.288  22.514  0.00  0.00    +0.000 A 
ATOM     20  C   UNL     1      -0.875  10.151  23.197  0.00  0.00    +0.000 A 
ATOM     21  C   UNL     1       0.004   9.268  22.561  0.00  0.00    +0.000 A 
BRANCH  19  22
ATOM     22  N   UNL     1      -2.240  12.225  23.181  0.00  0.00    +0.000 N 
ATOM     23  O   UNL     1      -3.247  11.757  23.732  0.00  0.00    +0.000 OA
ATOM     24  O   UNL     1      -1.954  13.431  23.147  0.00  0.00    +0.000 OA
ENDBRANCH  19  22
ENDBRANCH  15  16
ENDBRANCH   6  14
TORSDOF 4
ENDMDL
MODEL 4
REMARK VINA RESULT:      -7.8      6.744      9.653
REMARK  Name = 
REMARK  5 active torsions:
REMARK  status: ('A' for Active; 'I' for Inactive)
REMARK    1  A    between atoms: C_1  and  C_2
REMARK    2  A    between atoms: C_2  and  C_4
REMARK    3  A    between atoms: C_9  and  C_10
REMARK    4  A    between atoms: C_11  and  C_12
REMARK    5  A    between atoms: C_15  and  N_16
REMARK                            x       y       z     vdW  Elec       q    Type
REMARK                         _______ _______ _______ _____ _____    ______ ____
ROOT
ATOM      1  C   UNL     1      -1.162  11.163  22.443  0.00  0.00    +0.000 A 
ATOM      2  C   UNL     1      -0.792  10.086  23.264  0.00  0.00    +0.000 A 
ATOM      3  C   UNL     1       0.054   9.066  22.803  0.00  0.00    +0.000 A 
ATOM      4  C   UNL     1       0.508   9.182  21.488  0.00  0.00    +0.000 A 
ATOM      5  N   UNL     1       1.327   8.399  20.712  0.00  0.00    +0.000 N 
ATOM      6  C   UNL     1       1.444   8.982  19.470  0.00  0.00    +0.000 A 
ATOM      7  N   UNL     1       0.744  10.098  19.418  0.00  0.00    +0.000 NA
ATOM      8  C   UNL     1       0.161  10.234  20.652  0.00  0.00    +0.000 A 
ATOM      9  C   UNL     1      -0.686  11.243  21.125  0.00  0.00    +0.000 A 
ATOM     10  H   UNL     1       1.763   7.538  21.004  0.00  0.00    +0.000 HD
ENDROOT
BRANCH   1  12
ATOM     11  C   UNL     1      -1.525  13.610  23.180  0.00  0.00    +0.000 C 
ATOM     12  C   UNL     1      -2.066  12.215  22.995  0.00  0.00    +0.000 C 
ATOM     13  O   UNL     1      -3.228  11.936  23.288  0.00  0.00    +0.000 OA
ENDBRANCH   1  12
BRANCH   6  14
ATOM     14  C   UNL     1       2.235   8.336  18.489  0.00  0.00    +0.000 C 
ATOM     15  C   UNL     1       2.747   7.118  18.728  0.00  0.00    +0.000 C 
BRANCH  15  16
ATOM     16  C   UNL     1       3.602   6.447  17.747  0.00  0.00    +0.000 A 
ATOM     17  C   UNL     1       3.607   5.049  17.672  0.00  0.00    +0.000 A 
ATOM     18  C   UNL     1       4.444   4.391  16.767  0.00  0.00    +0.000 A 
ATOM     19  C   UNL     1       5.280   5.141  15.929  0.00  0.00    +0.000 A 
ATOM     20  C   UNL     1       5.277   6.541  15.991  0.00  0.00    +0.000 A 
ATOM     21  C   UNL     1       4.437   7.190  16.902  0.00  0.00    +0.000 A 
BRANCH  19  22
ATOM     22  N   UNL     1       6.169   4.454  14.984  0.00  0.00    +0.000 N 
ATOM     23  O   UNL     1       5.646   3.845  14.038  0.00  0.00    +0.000 OA
ATOM     24  O   UNL     1       7.390   4.517  15.190  0.00  0.00    +0.000 OA
ENDBRANCH  19  22
ENDBRANCH  15  16
ENDBRANCH   6  14
TORSDOF 4
ENDMDL
MODEL 5
REMARK VINA RESULT:      -7.8      6.385      8.206
REMARK  Name = 
REMARK  5 active torsions:
REMARK  status: ('A' for Active; 'I' for Inactive)
REMARK    1  A    between atoms: C_1  and  C_2
REMARK    2  A    between atoms: C_2  and  C_4
REMARK    3  A    between atoms: C_9  and  C_10
REMARK    4  A    between atoms: C_11  and  C_12
REMARK    5  A    between atoms: C_15  and  N_16
REMARK                            x       y       z     vdW  Elec       q    Type
REMARK                         _______ _______ _______ _____ _____    ______ ____
ROOT
ATOM      1  C   UNL     1       5.599   4.933  15.601  0.00  0.00    +0.000 A 
ATOM      2  C   UNL     1       5.086   3.802  16.256  0.00  0.00    +0.000 A 
ATOM      3  C   UNL     1       4.181   3.918  17.322  0.00  0.00    +0.000 A 
ATOM      4  C   UNL     1       3.819   5.214  17.694  0.00  0.00    +0.000 A 
ATOM      5  N   UNL     1       2.982   5.706  18.665  0.00  0.00    +0.000 N 
ATOM      6  C   UNL     1       2.993   7.081  18.598  0.00  0.00    +0.000 A 
ATOM      7  N   UNL     1       3.792   7.488  17.631  0.00  0.00    +0.000 NA
ATOM      8  C   UNL     1       4.309   6.350  17.067  0.00  0.00    +0.000 A 
ATOM      9  C   UNL     1       5.213   6.220  16.005  0.00  0.00    +0.000 A 
ATOM     10  H   UNL     1       2.454   5.150  19.320  0.00  0.00    +0.000 HD
ENDROOT
BRANCH   1  12
ATOM     11  C   UNL     1       6.190   3.789  13.364  0.00  0.00    +0.000 C 
ATOM     12  C   UNL     1       6.559   4.741  14.473  0.00  0.00    +0.000 C 
ATOM     13  O   UNL     1       7.625   5.354  14.462  0.00  0.00    +0.000 OA
ENDBRANCH   1  12
BRANCH   6  14
ATOM     14  C   UNL     1       2.208   7.811  19.523  0.00  0.00    +0.000 C 
ATOM     15  C   UNL     1       1.436   8.826  19.102  0.00  0.00    +0.000 C 
BRANCH  15  16
ATOM     16  C   UNL     1       0.648   9.623  20.044  0.00  0.00    +0.000 A 
ATOM     17  C   UNL     1      -0.043  10.752  19.588  0.00  0.00    +0.000 A 
ATOM     18  C   UNL     1      -0.771  11.545  20.480  0.00  0.00    +0.000 A 
ATOM     19  C   UNL     1      -0.809  11.200  21.838  0.00  0.00    +0.000 A 
ATOM     20  C   UNL     1      -0.127  10.067  22.302  0.00  0.00    +0.000 A 
ATOM     21  C   UNL     1       0.601   9.282  21.402  0.00  0.00    +0.000 A 
BRANCH  19  22
ATOM     22  N   UNL     1      -1.563  12.036  22.780  0.00  0.00    +0.000 N 
ATOM     23  O   UNL     1      -0.930  12.864  23.452  0.00  0.00    +0.000 OA
ATOM     24  O   UNL     1      -2.788  11.861  22.853  0.00  0.00    +0.000 OA
ENDBRANCH  19  22
ENDBRANCH  15  16
ENDBRANCH   6  14
TORSDOF 4
ENDMDL
MODEL 6
REMARK VINA RESULT:      -7.6      6.519      8.278
REMARK  Name = 
REMARK  5 active torsions:
REMARK  status: ('A' for Active; 'I' for Inactive)
REMARK    1  A    between atoms: C_1  and  C_2
REMARK    2  A    between atoms: C_2  and  C_4
REMARK    3  A    between atoms: C_9  and  C_10
REMARK    4  A    between atoms: C_11  and  C_12
REMARK    5  A    between atoms: C_15  and  N_16
REMARK                            x       y       z     vdW  Elec       q    Type
REMARK                         _______ _______ _______ _____ _____    ______ ____
ROOT
ATOM      1  C   UNL     1       5.606   5.014  15.734  0.00  0.00    +0.000 A 
ATOM      2  C   UNL     1       5.166   3.901  16.468  0.00  0.00    +0.000 A 
ATOM      3  C   UNL     1       4.226   4.026  17.502  0.00  0.00    +0.000 A 
ATOM      4  C   UNL     1       3.753   5.314  17.760  0.00  0.00    +0.000 A 
ATOM      5  N   UNL     1       2.854   5.813  18.670  0.00  0.00    +0.000 N 
ATOM      6  C   UNL     1       2.758   7.175  18.491  0.00  0.00    +0.000 A 
ATOM      7  N   UNL     1       3.548   7.567  17.511  0.00  0.00    +0.000 NA
ATOM      8  C   UNL     1       4.168   6.433  17.052  0.00  0.00    +0.000 A 
ATOM      9  C   UNL     1       5.109   6.293  16.024  0.00  0.00    +0.000 A 
ATOM     10  H   UNL     1       2.354   5.270  19.357  0.00  0.00    +0.000 HD
ENDROOT
BRANCH   1  12
ATOM     11  C   UNL     1       6.259   3.893  13.502  0.00  0.00    +0.000 C 
ATOM     12  C   UNL     1       6.609   4.811  14.646  0.00  0.00    +0.000 C 
ATOM     13  O   UNL     1       7.693   5.388  14.694  0.00  0.00    +0.000 OA
ENDBRANCH   1  12
BRANCH   6  14
ATOM     14  C   UNL     1       1.892   7.910  19.337  0.00  0.00    +0.000 C 
ATOM     15  C   UNL     1       1.465   9.129  18.973  0.00  0.00    +0.000 C 
BRANCH  15  16
ATOM     16  C   UNL     1       0.605   9.926  19.849  0.00  0.00    +0.000 A 
ATOM     17  C   UNL     1       0.604   9.684  21.227  0.00  0.00    +0.000 A 
ATOM     18  C   UNL     1      -0.237  10.411  22.075  0.00  0.00    +0.000 A 
ATOM     19  C   UNL     1      -1.082  11.390  21.534  0.00  0.00    +0.000 A 
ATOM     20  C   UNL     1      -1.083  11.646  20.156  0.00  0.00    +0.000 A 
ATOM     21  C   UNL     1      -0.238  10.911  19.317  0.00  0.00    +0.000 A 
BRANCH  19  22
ATOM     22  N   UNL     1      -1.975  12.149  22.418  0.00  0.00    +0.000 N 
ATOM     23  O   UNL     1      -2.263  11.648  23.515  0.00  0.00    +0.000 OA
ATOM     24  O   UNL     1      -2.395  13.243  22.014  0.00  0.00    +0.000 OA
ENDBRANCH  19  22
ENDBRANCH  15  16
ENDBRANCH   6  14
TORSDOF 4
ENDMDL
MODEL 7
REMARK VINA RESULT:      -7.6      6.842      9.720
REMARK  Name = 
REMARK  5 active torsions:
REMARK  status: ('A' for Active; 'I' for Inactive)
REMARK    1  A    between atoms: C_1  and  C_2
REMARK    2  A    between atoms: C_2  and  C_4
REMARK    3  A    between atoms: C_9  and  C_10
REMARK    4  A    between atoms: C_11  and  C_12
REMARK    5  A    between atoms: C_15  and  N_16
REMARK                            x       y       z     vdW  Elec       q    Type
REMARK                         _______ _______ _______ _____ _____    ______ ____
ROOT
ATOM      1  C   UNL     1      -1.291  11.421  22.203  0.00  0.00    +0.000 A 
ATOM      2  C   UNL     1      -0.937  10.389  23.085  0.00  0.00    +0.000 A 
ATOM      3  C   UNL     1      -0.089   9.342  22.690  0.00  0.00    +0.000 A 
ATOM      4  C   UNL     1       0.382   9.385  21.377  0.00  0.00    +0.000 A 
ATOM      5  N   UNL     1       1.207   8.558  20.655  0.00  0.00    +0.000 N 
ATOM      6  C   UNL     1       1.342   9.073  19.385  0.00  0.00    +0.000 A 
ATOM      7  N   UNL     1       0.647  10.188  19.264  0.00  0.00    +0.000 NA
ATOM      8  C   UNL     1       0.050  10.392  20.482  0.00  0.00    +0.000 A 
ATOM      9  C   UNL     1      -0.799  11.429  20.889  0.00  0.00    +0.000 A 
ATOM     10  H   UNL     1       1.636   7.712  20.998  0.00  0.00    +0.000 HD
ENDROOT
BRANCH   1  12
ATOM     11  C   UNL     1      -3.270  12.158  23.688  0.00  0.00    +0.000 C 
ATOM     12  C   UNL     1      -2.198  12.505  22.686  0.00  0.00    +0.000 C 
ATOM     13  O   UNL     1      -2.060  13.653  22.268  0.00  0.00    +0.000 OA
ENDBRANCH   1  12
BRANCH   6  14
ATOM     14  C   UNL     1       2.143   8.372  18.451  0.00  0.00    +0.000 C 
ATOM     15  C   UNL     1       2.761   7.235  18.808  0.00  0.00    +0.000 C 
BRANCH  15  16
ATOM     16  C   UNL     1       3.628   6.515  17.874  0.00  0.00    +0.000 A 
ATOM     17  C   UNL     1       4.564   7.223  17.110  0.00  0.00    +0.000 A 
ATOM     18  C   UNL     1       5.375   6.557  16.187  0.00  0.00    +0.000 A 
ATOM     19  C   UNL     1       5.248   5.170  16.032  0.00  0.00    +0.000 A 
ATOM     20  C   UNL     1       4.319   4.451  16.797  0.00  0.00    +0.000 A 
ATOM     21  C   UNL     1       3.511   5.129  17.716  0.00  0.00    +0.000 A 
BRANCH  19  22
ATOM     22  N   UNL     1       6.090   4.467  15.056  0.00  0.00    +0.000 N 
ATOM     23  O   UNL     1       7.320   4.559  15.183  0.00  0.00    +0.000 OA
ATOM     24  O   UNL     1       5.522   3.829  14.158  0.00  0.00    +0.000 OA
ENDBRANCH  19  22
ENDBRANCH  15  16
ENDBRANCH   6  14
TORSDOF 4
ENDMDL
MODEL 8
REMARK VINA RESULT:      -7.6      2.353      9.991
REMARK  Name = 
REMARK  5 active torsions:
REMARK  status: ('A' for Active; 'I' for Inactive)
REMARK    1  A    between atoms: C_1  and  C_2
REMARK    2  A    between atoms: C_2  and  C_4
REMARK    3  A    between atoms: C_9  and  C_10
REMARK    4  A    between atoms: C_11  and  C_12
REMARK    5  A    between atoms: C_15  and  N_16
REMARK                            x       y       z     vdW  Elec       q    Type
REMARK                         _______ _______ _______ _____ _____    ______ ____
ROOT
ATOM      1  C   UNL     1      11.128  14.949  17.838  0.00  0.00    +0.000 A 
ATOM      2  C   UNL     1      12.263  14.299  18.348  0.00  0.00    +0.000 A 
ATOM      3  C   UNL     1      12.231  12.945  18.717  0.00  0.00    +0.000 A 
ATOM      4  C   UNL     1      11.014  12.283  18.549  0.00  0.00    +0.000 A 
ATOM      5  N   UNL     1      10.613  10.992  18.794  0.00  0.00    +0.000 N 
ATOM      6  C   UNL     1       9.286  10.872  18.446  0.00  0.00    +0.000 A 
ATOM      7  N   UNL     1       8.825  12.019  17.989  0.00  0.00    +0.000 NA
ATOM      8  C   UNL     1       9.876  12.897  18.048  0.00  0.00    +0.000 A 
ATOM      9  C   UNL     1       9.921  14.250  17.685  0.00  0.00    +0.000 A 
ATOM     10  H   UNL     1      11.195  10.260  19.171  0.00  0.00    +0.000 HD
ENDROOT
BRANCH   1  12
ATOM     11  C   UNL     1       9.958  17.182  17.284  0.00  0.00    +0.000 C 
ATOM     12  C   UNL     1      11.229  16.391  17.464  0.00  0.00    +0.000 C 
ATOM     13  O   UNL     1      12.333  16.911  17.311  0.00  0.00    +0.000 OA
ENDBRANCH   1  12
BRANCH   6  14
ATOM     14  C   UNL     1       8.649   9.621  18.630  0.00  0.00    +0.000 C 
ATOM     15  C   UNL     1       8.167   8.946  17.574  0.00  0.00    +0.000 C 
BRANCH  15  16
ATOM     16  C   UNL     1       7.467   7.671  17.741  0.00  0.00    +0.000 A 
ATOM     17  C   UNL     1       6.239   7.465  17.100  0.00  0.00    +0.000 A 
ATOM     18  C   UNL     1       5.539   6.268  17.278  0.00  0.00    +0.000 A 
ATOM     19  C   UNL     1       6.076   5.270  18.102  0.00  0.00    +0.000 A 
ATOM     20  C   UNL     1       7.308   5.464  18.742  0.00  0.00    +0.000 A 
ATOM     21  C   UNL     1       7.999   6.667  18.559  0.00  0.00    +0.000 A 
BRANCH  19  22
ATOM     22  N   UNL     1       5.340   4.016  18.300  0.00  0.00    +0.000 N 
ATOM     23  O   UNL     1       5.406   3.478  19.415  0.00  0.00    +0.000 OA
ATOM     24  O   UNL     1       4.699   3.565  17.339  0.00  0.00    +0.000 OA
ENDBRANCH  19  22
ENDBRANCH  15  16
ENDBRANCH   6  14
TORSDOF 4
ENDMDL
MODEL 9
REMARK VINA RESULT:      -7.5      6.935      9.366
REMARK  Name = 
REMARK  5 active torsions:
REMARK  status: ('A' for Active; 'I' for Inactive)
REMARK    1  A    between atoms: C_1  and  C_2
REMARK    2  A    between atoms: C_2  and  C_4
REMARK    3  A    between atoms: C_9  and  C_10
REMARK    4  A    between atoms: C_11  and  C_12
REMARK    5  A    between atoms: C_15  and  N_16
REMARK                            x       y       z     vdW  Elec       q    Type
REMARK                         _______ _______ _______ _____ _____    ______ ____
ROOT
ATOM      1  C   UNL     1      -2.491  11.953  19.433  0.00  0.00    +0.000 A 
ATOM      2  C   UNL     1      -2.923  11.431  18.203  0.00  0.00    +0.000 A 
ATOM      3  C   UNL     1      -2.105  10.589  17.434  0.00  0.00    +0.000 A 
ATOM      4  C   UNL     1      -0.844  10.298  17.958  0.00  0.00    +0.000 A 
ATOM      5  N   UNL     1       0.201   9.533  17.502  0.00  0.00    +0.000 N 
ATOM      6  C   UNL     1       1.224   9.594  18.422  0.00  0.00    +0.000 A 
ATOM      7  N   UNL     1       0.880  10.357  19.442  0.00  0.00    +0.000 NA
ATOM      8  C   UNL     1      -0.389  10.798  19.169  0.00  0.00    +0.000 A 
ATOM      9  C   UNL     1      -1.215  11.640  19.925  0.00  0.00    +0.000 A 
ATOM     10  H   UNL     1       0.216   9.019  16.635  0.00  0.00    +0.000 HD
ENDROOT
BRANCH   1  12
ATOM     11  C   UNL     1      -2.829  14.034  20.923  0.00  0.00    +0.000 C 
ATOM     12  C   UNL     1      -3.411  12.844  20.201  0.00  0.00    +0.000 C 
ATOM     13  O   UNL     1      -4.616  12.601  20.237  0.00  0.00    +0.000 OA
ENDBRANCH   1  12
BRANCH   6  14
ATOM     14  C   UNL     1       2.421   8.888  18.153  0.00  0.00    +0.000 C 
ATOM     15  C   UNL     1       2.424   7.546  18.129  0.00  0.00    +0.000 C 
BRANCH  15  16
ATOM     16  C   UNL     1       3.657   6.792  17.895  0.00  0.00    +0.000 A 
ATOM     17  C   UNL     1       4.119   5.899  18.869  0.00  0.00    +0.000 A 
ATOM     18  C   UNL     1       5.313   5.198  18.678  0.00  0.00    +0.000 A 
ATOM     19  C   UNL     1       6.047   5.392  17.500  0.00  0.00    +0.000 A 
ATOM     20  C   UNL     1       5.589   6.279  16.516  0.00  0.00    +0.000 A 
ATOM     21  C   UNL     1       4.393   6.977  16.718  0.00  0.00    +0.000 A 
BRANCH  19  22
ATOM     22  N   UNL     1       7.307   4.666  17.300  0.00  0.00    +0.000 N 
ATOM     23  O   UNL     1       8.001   4.428  18.300  0.00  0.00    +0.000 OA
ATOM     24  O   UNL     1       7.607   4.339  16.143  0.00  0.00    +0.000 OA
ENDBRANCH  19  22
ENDBRANCH  15  16
ENDBRANCH   6  14
TORSDOF 4
ENDMDL
