MODEL 1
REMARK VINA RESULT:      -7.4      0.000      0.000
REMARK  Name = 
REMARK  16 active torsions:
REMARK  status: ('A' for Active; 'I' for Inactive)
REMARK    1  A    between atoms: C_1  and  O_2
REMARK    2  A    between atoms: O_2  and  C_3
REMARK    3  A    between atoms: C_5  and  C_6
REMARK    4  A    between atoms: C_6  and  O_8
REMARK    5  A    between atoms: O_8  and  C_9
REMARK    6  A    between atoms: C_9  and  C_10
REMARK    7  A    between atoms: C_11  and  C_12
REMARK    8  A    between atoms: C_14  and  C_15
REMARK    9  A    between atoms: C_15  and  C_16
REMARK   10  A    between atoms: C_15  and  C_17
REMARK   11  A    between atoms: C_15  and  C_18
REMARK   12  A    between atoms: C_20  and  C_21
REMARK   13  A    between atoms: C_23  and  O_24
REMARK   14  A    between atoms: O_24  and  C_25
REMARK   15  A    between atoms: C_26  and  O_27
REMARK   16  A    between atoms: O_27  and  C_28
REMARK                            x       y       z     vdW  Elec       q    Type
REMARK                         _______ _______ _______ _____ _____    ______ ____
ROOT
ATOM      1  C   UNL     1       0.646  10.580  18.507  0.00  0.00    +0.000 C 
ATOM      2  O   UNL     1       1.406  11.501  18.742  0.00  0.00    +0.000 OA
ENDROOT
BRANCH   1   5
ATOM      3  C   UNL     1      -2.908  11.781  19.017  0.00  0.00    +0.000 A 
ATOM      4  C   UNL     1      -1.557  11.496  19.256  0.00  0.00    +0.000 A 
ATOM      5  C   UNL     1      -0.822  10.728  18.358  0.00  0.00    +0.000 A 
ATOM      6  C   UNL     1      -1.472  10.127  17.285  0.00  0.00    +0.000 A 
ATOM      7  C   UNL     1      -2.848  10.327  17.072  0.00  0.00    +0.000 A 
ATOM      8  C   UNL     1      -3.586  11.169  17.939  0.00  0.00    +0.000 A 
BRANCH   3  10
ATOM      9  C   UNL     1      -2.962  12.845  21.134  0.00  0.00    +0.000 C 
ATOM     10  O   UNL     1      -3.573  12.639  19.857  0.00  0.00    +0.000 OA
ENDBRANCH   3  10
BRANCH   7  11
ATOM     11  O   UNL     1      -3.282   9.647  15.960  0.00  0.00    +0.000 OA
ATOM     12  C   UNL     1      -3.192  10.256  14.681  0.00  0.00    +0.000 C 
ENDBRANCH   7  11
BRANCH   8  13
ATOM     13  O   UNL     1      -4.918  11.302  17.657  0.00  0.00    +0.000 OA
ATOM     14  C   UNL     1      -5.901  10.657  18.450  0.00  0.00    +0.000 C 
ENDBRANCH   8  13
ENDBRANCH   1   5
BRANCH   1  15
ATOM     15  O   UNL     1       0.958   9.266  18.392  0.00  0.00    +0.000 OA
BRANCH  15  16
ATOM     16  C   UNL     1       2.313   8.887  18.674  0.00  0.00    +0.000 C 
BRANCH  16  17
ATOM     17  C   UNL     1       2.382   7.433  19.114  0.00  0.00    +0.000 A 
ATOM     18  C   UNL     1       1.735   6.993  20.292  0.00  0.00    +0.000 A 
ATOM     19  C   UNL     1       0.962   7.899  21.215  0.00  0.00    +0.000 C 
ATOM     20  C   UNL     1       1.772   5.625  20.651  0.00  0.00    +0.000 A 
ATOM     21  C   UNL     1       2.412   4.659  19.865  0.00  0.00    +0.000 A 
ATOM     22  C   UNL     1       3.067   5.117  18.709  0.00  0.00    +0.000 A 
ATOM     23  C   UNL     1       3.069   6.474  18.330  0.00  0.00    +0.000 A 
ATOM     24  C   UNL     1       3.768   6.846  17.048  0.00  0.00    +0.000 C 
BRANCH  21  25
ATOM     25  C   UNL     1       2.366   3.159  20.203  0.00  0.00    +0.000 C 
ATOM     26  C   UNL     1       1.487   2.325  19.241  0.00  0.00    +0.000 C 
ATOM     27  C   UNL     1       3.793   2.570  20.134  0.00  0.00    +0.000 C 
ATOM     28  C   UNL     1       1.808   2.935  21.628  0.00  0.00    +0.000 C 
ENDBRANCH  21  25
ENDBRANCH  16  17
ENDBRANCH  15  16
ENDBRANCH   1  15
TORSDOF 8
ENDMDL
MODEL 2
REMARK VINA RESULT:      -7.3      2.908      8.482
REMARK  Name = 
REMARK  16 active torsions:
REMARK  status: ('A' for Active; 'I' for Inactive)
REMARK    1  A    between atoms: C_1  and  O_2
REMARK    2  A    between atoms: O_2  and  C_3
REMARK    3  A    between atoms: C_5  and  C_6
REMARK    4  A    between atoms: C_6  and  O_8
REMARK    5  A    between atoms: O_8  and  C_9
REMARK    6  A    between atoms: C_9  and  C_10
REMARK    7  A    between atoms: C_11  and  C_12
REMARK    8  A    between atoms: C_14  and  C_15
REMARK    9  A    between atoms: C_15  and  C_16
REMARK   10  A    between atoms: C_15  and  C_17
REMARK   11  A    between atoms: C_15  and  C_18
REMARK   12  A    between atoms: C_20  and  C_21
REMARK   13  A    between atoms: C_23  and  O_24
REMARK   14  A    between atoms: O_24  and  C_25
REMARK   15  A    between atoms: C_26  and  O_27
REMARK   16  A    between atoms: O_27  and  C_28
REMARK                            x       y       z     vdW  Elec       q    Type
REMARK                         _______ _______ _______ _____ _____    ______ ____
ROOT
ATOM      1  C   UNL     1       1.363   9.194  18.801  0.00  0.00    +0.000 C 
ATOM      2  O   UNL     1       1.267   9.906  17.820  0.00  0.00    +0.000 OA
ENDROOT
BRANCH   1   5
ATOM      3  C   UNL     1       2.664   5.803  19.869  0.00  0.00    +0.000 A 
ATOM      4  C   UNL     1       2.029   7.053  19.906  0.00  0.00    +0.000 A 
ATOM      5  C   UNL     1       2.176   7.955  18.857  0.00  0.00    +0.000 A 
ATOM      6  C   UNL     1       3.069   7.667  17.829  0.00  0.00    +0.000 A 
ATOM      7  C   UNL     1       3.783   6.456  17.815  0.00  0.00    +0.000 A 
ATOM      8  C   UNL     1       3.582   5.499  18.840  0.00  0.00    +0.000 A 
BRANCH   3  10
ATOM      9  C   UNL     1       1.235   4.089  20.666  0.00  0.00    +0.000 C 
ATOM     10  O   UNL     1       2.405   4.888  20.860  0.00  0.00    +0.000 OA
ENDBRANCH   3  10
BRANCH   7  11
ATOM     11  O   UNL     1       4.602   6.375  16.714  0.00  0.00    +0.000 OA
ATOM     12  C   UNL     1       5.989   6.645  16.845  0.00  0.00    +0.000 C 
ENDBRANCH   7  11
BRANCH   8  13
ATOM     13  O   UNL     1       4.324   4.353  18.746  0.00  0.00    +0.000 OA
ATOM     14  C   UNL     1       3.843   3.228  18.029  0.00  0.00    +0.000 C 
ENDBRANCH   8  13
ENDBRANCH   1   5
BRANCH   1  15
ATOM     15  O   UNL     1       0.729   9.344  19.990  0.00  0.00    +0.000 OA
BRANCH  15  16
ATOM     16  C   UNL     1       1.025  10.527  20.747  0.00  0.00    +0.000 C 
BRANCH  16  17
ATOM     17  C   UNL     1      -0.245  11.115  21.342  0.00  0.00    +0.000 A 
ATOM     18  C   UNL     1      -0.730  10.688  22.600  0.00  0.00    +0.000 A 
ATOM     19  C   UNL     1      -0.072   9.621  23.436  0.00  0.00    +0.000 C 
ATOM     20  C   UNL     1      -1.886  11.288  23.154  0.00  0.00    +0.000 A 
ATOM     21  C   UNL     1      -2.575  12.324  22.512  0.00  0.00    +0.000 A 
ATOM     22  C   UNL     1      -2.091  12.721  21.253  0.00  0.00    +0.000 A 
ATOM     23  C   UNL     1      -0.956  12.134  20.662  0.00  0.00    +0.000 A 
ATOM     24  C   UNL     1      -0.502  12.667  19.327  0.00  0.00    +0.000 C 
BRANCH  21  25
ATOM     25  C   UNL     1      -3.770  13.043  23.160  0.00  0.00    +0.000 C 
ATOM     26  C   UNL     1      -5.059  13.014  22.303  0.00  0.00    +0.000 C 
ATOM     27  C   UNL     1      -4.111  12.367  24.507  0.00  0.00    +0.000 C 
ATOM     28  C   UNL     1      -3.440  14.531  23.422  0.00  0.00    +0.000 C 
ENDBRANCH  21  25
ENDBRANCH  16  17
ENDBRANCH  15  16
ENDBRANCH   1  15
TORSDOF 8
ENDMDL
MODEL 3
REMARK VINA RESULT:      -7.2      2.900      8.648
REMARK  Name = 
REMARK  16 active torsions:
REMARK  status: ('A' for Active; 'I' for Inactive)
REMARK    1  A    between atoms: C_1  and  O_2
REMARK    2  A    between atoms: O_2  and  C_3
REMARK    3  A    between atoms: C_5  and  C_6
REMARK    4  A    between atoms: C_6  and  O_8
REMARK    5  A    between atoms: O_8  and  C_9
REMARK    6  A    between atoms: C_9  and  C_10
REMARK    7  A    between atoms: C_11  and  C_12
REMARK    8  A    between atoms: C_14  and  C_15
REMARK    9  A    between atoms: C_15  and  C_16
REMARK   10  A    between atoms: C_15  and  C_17
REMARK   11  A    between atoms: C_15  and  C_18
REMARK   12  A    between atoms: C_20  and  C_21
REMARK   13  A    between atoms: C_23  and  O_24
REMARK   14  A    between atoms: O_24  and  C_25
REMARK   15  A    between atoms: C_26  and  O_27
REMARK   16  A    between atoms: O_27  and  C_28
REMARK                            x       y       z     vdW  Elec       q    Type
REMARK                         _______ _______ _______ _____ _____    ______ ____
ROOT
ATOM      1  C   UNL     1       1.683   8.966  18.482  0.00  0.00    +0.000 C 
ATOM      2  O   UNL     1       1.759   9.669  17.493  0.00  0.00    +0.000 OA
ENDROOT
BRANCH   1   5
ATOM      3  C   UNL     1       4.255   6.217  18.082  0.00  0.00    +0.000 A 
ATOM      4  C   UNL     1       3.466   7.345  17.817  0.00  0.00    +0.000 A 
ATOM      5  C   UNL     1       2.401   7.678  18.647  0.00  0.00    +0.000 A 
ATOM      6  C   UNL     1       2.035   6.808  19.670  0.00  0.00    +0.000 A 
ATOM      7  C   UNL     1       2.759   5.625  19.902  0.00  0.00    +0.000 A 
ATOM      8  C   UNL     1       3.890   5.317  19.108  0.00  0.00    +0.000 A 
BRANCH   3  10
ATOM      9  C   UNL     1       5.127   5.350  16.057  0.00  0.00    +0.000 C 
ATOM     10  O   UNL     1       5.370   5.981  17.316  0.00  0.00    +0.000 OA
ENDBRANCH   3  10
BRANCH   7  11
ATOM     11  O   UNL     1       2.231   4.919  20.956  0.00  0.00    +0.000 OA
ATOM     12  C   UNL     1       1.221   3.950  20.721  0.00  0.00    +0.000 C 
ENDBRANCH   7  11
BRANCH   8  13
ATOM     13  O   UNL     1       4.530   4.144  19.403  0.00  0.00    +0.000 OA
ATOM     14  C   UNL     1       4.134   2.923  18.800  0.00  0.00    +0.000 C 
ENDBRANCH   8  13
ENDBRANCH   1   5
BRANCH   1  15
ATOM     15  O   UNL     1       0.913   9.171  19.580  0.00  0.00    +0.000 OA
BRANCH  15  16
ATOM     16  C   UNL     1       1.265  10.271  20.431  0.00  0.00    +0.000 C 
BRANCH  16  17
ATOM     17  C   UNL     1       0.020  10.910  21.024  0.00  0.00    +0.000 A 
ATOM     18  C   UNL     1      -0.452  10.544  22.306  0.00  0.00    +0.000 A 
ATOM     19  C   UNL     1       0.197   9.495  23.172  0.00  0.00    +0.000 C 
ATOM     20  C   UNL     1      -1.584  11.191  22.855  0.00  0.00    +0.000 A 
ATOM     21  C   UNL     1      -2.261  12.218  22.186  0.00  0.00    +0.000 A 
ATOM     22  C   UNL     1      -1.791  12.554  20.904  0.00  0.00    +0.000 A 
ATOM     23  C   UNL     1      -0.680  11.918  20.317  0.00  0.00    +0.000 A 
ATOM     24  C   UNL     1      -0.237  12.389  18.955  0.00  0.00    +0.000 C 
BRANCH  21  25
ATOM     25  C   UNL     1      -3.429  12.988  22.825  0.00  0.00    +0.000 C 
ATOM     26  C   UNL     1      -3.151  14.498  23.023  0.00  0.00    +0.000 C 
ATOM     27  C   UNL     1      -4.677  12.875  21.922  0.00  0.00    +0.000 C 
ATOM     28  C   UNL     1      -3.771  12.409  24.217  0.00  0.00    +0.000 C 
ENDBRANCH  21  25
ENDBRANCH  16  17
ENDBRANCH  15  16
ENDBRANCH   1  15
TORSDOF 8
ENDMDL
MODEL 4
REMARK VINA RESULT:      -7.1      0.394      2.969
REMARK  Name = 
REMARK  16 active torsions:
REMARK  status: ('A' for Active; 'I' for Inactive)
REMARK    1  A    between atoms: C_1  and  O_2
REMARK    2  A    between atoms: O_2  and  C_3
REMARK    3  A    between atoms: C_5  and  C_6
REMARK    4  A    between atoms: C_6  and  O_8
REMARK    5  A    between atoms: O_8  and  C_9
REMARK    6  A    between atoms: C_9  and  C_10
REMARK    7  A    between atoms: C_11  and  C_12
REMARK    8  A    between atoms: C_14  and  C_15
REMARK    9  A    between atoms: C_15  and  C_16
REMARK   10  A    between atoms: C_15  and  C_17
REMARK   11  A    between atoms: C_15  and  C_18
REMARK   12  A    between atoms: C_20  and  C_21
REMARK   13  A    between atoms: C_23  and  O_24
REMARK   14  A    between atoms: O_24  and  C_25
REMARK   15  A    between atoms: C_26  and  O_27
REMARK   16  A    between atoms: O_27  and  C_28
REMARK                            x       y       z     vdW  Elec       q    Type
REMARK                         _______ _______ _______ _____ _____    ______ ____
ROOT
ATOM      1  C   UNL     1       0.550  10.486  19.245  0.00  0.00    +0.000 C 
ATOM      2  O   UNL     1       1.128  11.098  20.124  0.00  0.00    +0.000 OA
ENDROOT
BRANCH   1   5
ATOM      3  C   UNL     1      -2.671  10.378  17.260  0.00  0.00    +0.000 A 
ATOM      4  C   UNL     1      -1.326  10.211  17.616  0.00  0.00    +0.000 A 
ATOM      5  C   UNL     1      -0.815  10.809  18.764  0.00  0.00    +0.000 A 
ATOM      6  C   UNL     1      -1.614  11.689  19.487  0.00  0.00    +0.000 A 
ATOM      7  C   UNL     1      -2.942  11.940  19.100  0.00  0.00    +0.000 A 
ATOM      8  C   UNL     1      -3.492  11.276  17.976  0.00  0.00    +0.000 A 
BRANCH   3  10
ATOM      9  C   UNL     1      -3.095  10.348  14.929  0.00  0.00    +0.000 C 
ATOM     10  O   UNL     1      -3.175   9.680  16.191  0.00  0.00    +0.000 OA
ENDBRANCH   3  10
BRANCH   7  11
ATOM     11  O   UNL     1      -3.547  12.833  19.952  0.00  0.00    +0.000 OA
ATOM     12  C   UNL     1      -3.365  12.704  21.353  0.00  0.00    +0.000 C 
ENDBRANCH   7  11
BRANCH   8  13
ATOM     13  O   UNL     1      -4.790  11.586  17.672  0.00  0.00    +0.000 OA
ATOM     14  C   UNL     1      -5.869  10.952  18.338  0.00  0.00    +0.000 C 
ENDBRANCH   8  13
ENDBRANCH   1   5
BRANCH   1  15
ATOM     15  O   UNL     1       0.990   9.388  18.582  0.00  0.00    +0.000 OA
BRANCH  15  16
ATOM     16  C   UNL     1       2.322   8.937  18.872  0.00  0.00    +0.000 C 
BRANCH  16  17
ATOM     17  C   UNL     1       2.331   7.443  19.157  0.00  0.00    +0.000 A 
ATOM     18  C   UNL     1       3.017   6.541  18.312  0.00  0.00    +0.000 A 
ATOM     19  C   UNL     1       3.759   6.954  17.067  0.00  0.00    +0.000 C 
ATOM     20  C   UNL     1       3.053   5.162  18.629  0.00  0.00    +0.000 A 
ATOM     21  C   UNL     1       2.449   4.640  19.779  0.00  0.00    +0.000 A 
ATOM     22  C   UNL     1       1.754   5.549  20.596  0.00  0.00    +0.000 A 
ATOM     23  C   UNL     1       1.680   6.924  20.302  0.00  0.00    +0.000 A 
ATOM     24  C   UNL     1       0.944   7.813  21.272  0.00  0.00    +0.000 C 
BRANCH  21  25
ATOM     25  C   UNL     1       2.573   3.159  20.174  0.00  0.00    +0.000 C 
ATOM     26  C   UNL     1       1.707   2.205  19.317  0.00  0.00    +0.000 C 
ATOM     27  C   UNL     1       4.040   2.702  20.012  0.00  0.00    +0.000 C 
ATOM     28  C   UNL     1       2.149   2.947  21.647  0.00  0.00    +0.000 C 
ENDBRANCH  21  25
ENDBRANCH  16  17
ENDBRANCH  15  16
ENDBRANCH   1  15
TORSDOF 8
ENDMDL
MODEL 5
REMARK VINA RESULT:      -7.1      3.015      8.542
REMARK  Name = 
REMARK  16 active torsions:
REMARK  status: ('A' for Active; 'I' for Inactive)
REMARK    1  A    between atoms: C_1  and  O_2
REMARK    2  A    between atoms: O_2  and  C_3
REMARK    3  A    between atoms: C_5  and  C_6
REMARK    4  A    between atoms: C_6  and  O_8
REMARK    5  A    between atoms: O_8  and  C_9
REMARK    6  A    between atoms: C_9  and  C_10
REMARK    7  A    between atoms: C_11  and  C_12
REMARK    8  A    between atoms: C_14  and  C_15
REMARK    9  A    between atoms: C_15  and  C_16
REMARK   10  A    between atoms: C_15  and  C_17
REMARK   11  A    between atoms: C_15  and  C_18
REMARK   12  A    between atoms: C_20  and  C_21
REMARK   13  A    between atoms: C_23  and  O_24
REMARK   14  A    between atoms: O_24  and  C_25
REMARK   15  A    between atoms: C_26  and  O_27
REMARK   16  A    between atoms: O_27  and  C_28
REMARK                            x       y       z     vdW  Elec       q    Type
REMARK                         _______ _______ _______ _____ _____    ______ ____
ROOT
ATOM      1  C   UNL     1       1.472   9.302  18.835  0.00  0.00    +0.000 C 
ATOM      2  O   UNL     1       1.554  10.068  17.894  0.00  0.00    +0.000 OA
ENDROOT
BRANCH   1   5
ATOM      3  C   UNL     1       2.404   5.800  19.931  0.00  0.00    +0.000 A 
ATOM      4  C   UNL     1       1.914   7.113  19.959  0.00  0.00    +0.000 A 
ATOM      5  C   UNL     1       2.143   7.980  18.896  0.00  0.00    +0.000 A 
ATOM      6  C   UNL     1       2.982   7.582  17.859  0.00  0.00    +0.000 A 
ATOM      7  C   UNL     1       3.557   6.299  17.851  0.00  0.00    +0.000 A 
ATOM      8  C   UNL     1       3.267   5.383  18.892  0.00  0.00    +0.000 A 
BRANCH   3  10
ATOM      9  C   UNL     1       1.084   3.946  20.591  0.00  0.00    +0.000 C 
ATOM     10  O   UNL     1       2.061   4.932  20.937  0.00  0.00    +0.000 OA
ENDBRANCH   3  10
BRANCH   7  11
ATOM     11  O   UNL     1       4.344   6.115  16.740  0.00  0.00    +0.000 OA
ATOM     12  C   UNL     1       5.624   6.724  16.673  0.00  0.00    +0.000 C 
ENDBRANCH   7  11
BRANCH   8  13
ATOM     13  O   UNL     1       3.875   4.160  18.803  0.00  0.00    +0.000 OA
ATOM     14  C   UNL     1       5.210   3.974  19.241  0.00  0.00    +0.000 C 
ENDBRANCH   8  13
ENDBRANCH   1   5
BRANCH   1  15
ATOM     15  O   UNL     1       0.736   9.460  19.962  0.00  0.00    +0.000 OA
BRANCH  15  16
ATOM     16  C   UNL     1       1.149  10.487  20.877  0.00  0.00    +0.000 C 
BRANCH  16  17
ATOM     17  C   UNL     1      -0.059  11.190  21.475  0.00  0.00    +0.000 A 
ATOM     18  C   UNL     1      -0.646  12.307  20.837  0.00  0.00    +0.000 A 
ATOM     19  C   UNL     1      -0.131  12.910  19.556  0.00  0.00    +0.000 C 
ATOM     20  C   UNL     1      -1.801  12.911  21.388  0.00  0.00    +0.000 A 
ATOM     21  C   UNL     1      -2.419  12.430  22.549  0.00  0.00    +0.000 A 
ATOM     22  C   UNL     1      -1.809  11.332  23.181  0.00  0.00    +0.000 A 
ATOM     23  C   UNL     1      -0.648  10.717  22.673  0.00  0.00    +0.000 A 
ATOM     24  C   UNL     1      -0.105   9.520  23.410  0.00  0.00    +0.000 C 
BRANCH  21  25
ATOM     25  C   UNL     1      -3.729  13.024  23.091  0.00  0.00    +0.000 C 
ATOM     26  C   UNL     1      -4.204  12.389  24.420  0.00  0.00    +0.000 C 
ATOM     27  C   UNL     1      -3.541  14.534  23.356  0.00  0.00    +0.000 C 
ATOM     28  C   UNL     1      -4.878  12.841  22.071  0.00  0.00    +0.000 C 
ENDBRANCH  21  25
ENDBRANCH  16  17
ENDBRANCH  15  16
ENDBRANCH   1  15
TORSDOF 8
ENDMDL
MODEL 6
REMARK VINA RESULT:      -7.1      2.997      8.678
REMARK  Name = 
REMARK  16 active torsions:
REMARK  status: ('A' for Active; 'I' for Inactive)
REMARK    1  A    between atoms: C_1  and  O_2
REMARK    2  A    between atoms: O_2  and  C_3
REMARK    3  A    between atoms: C_5  and  C_6
REMARK    4  A    between atoms: C_6  and  O_8
REMARK    5  A    between atoms: O_8  and  C_9
REMARK    6  A    between atoms: C_9  and  C_10
REMARK    7  A    between atoms: C_11  and  C_12
REMARK    8  A    between atoms: C_14  and  C_15
REMARK    9  A    between atoms: C_15  and  C_16
REMARK   10  A    between atoms: C_15  and  C_17
REMARK   11  A    between atoms: C_15  and  C_18
REMARK   12  A    between atoms: C_20  and  C_21
REMARK   13  A    between atoms: C_23  and  O_24
REMARK   14  A    between atoms: O_24  and  C_25
REMARK   15  A    between atoms: C_26  and  O_27
REMARK   16  A    between atoms: O_27  and  C_28
REMARK                            x       y       z     vdW  Elec       q    Type
REMARK                         _______ _______ _______ _____ _____    ______ ____
ROOT
ATOM      1  C   UNL     1       1.649   9.093  18.539  0.00  0.00    +0.000 C 
ATOM      2  O   UNL     1       1.710   9.847  17.586  0.00  0.00    +0.000 OA
ENDROOT
BRANCH   1   5
ATOM      3  C   UNL     1       4.153   6.329  17.892  0.00  0.00    +0.000 A 
ATOM      4  C   UNL     1       3.359   7.470  17.709  0.00  0.00    +0.000 A 
ATOM      5  C   UNL     1       2.362   7.796  18.624  0.00  0.00    +0.000 A 
ATOM      6  C   UNL     1       2.063   6.908  19.652  0.00  0.00    +0.000 A 
ATOM      7  C   UNL     1       2.790   5.713  19.805  0.00  0.00    +0.000 A 
ATOM      8  C   UNL     1       3.856   5.411  18.923  0.00  0.00    +0.000 A 
BRANCH   3  10
ATOM      9  C   UNL     1       6.460   6.644  17.455  0.00  0.00    +0.000 C 
ATOM     10  O   UNL     1       5.205   6.099  17.041  0.00  0.00    +0.000 OA
ENDBRANCH   3  10
BRANCH   7  11
ATOM     11  O   UNL     1       2.333   4.990  20.881  0.00  0.00    +0.000 OA
ATOM     12  C   UNL     1       1.293   4.041  20.703  0.00  0.00    +0.000 C 
ENDBRANCH   7  11
BRANCH   8  13
ATOM     13  O   UNL     1       4.502   4.226  19.146  0.00  0.00    +0.000 OA
ATOM     14  C   UNL     1       4.078   3.031  18.511  0.00  0.00    +0.000 C 
ENDBRANCH   8  13
ENDBRANCH   1   5
BRANCH   1  15
ATOM     15  O   UNL     1       0.901   9.245  19.660  0.00  0.00    +0.000 OA
BRANCH  15  16
ATOM     16  C   UNL     1       1.352  10.209  20.624  0.00  0.00    +0.000 C 
BRANCH  16  17
ATOM     17  C   UNL     1       0.175  10.974  21.207  0.00  0.00    +0.000 A 
ATOM     18  C   UNL     1      -0.414  12.054  20.510  0.00  0.00    +0.000 A 
ATOM     19  C   UNL     1       0.069  12.555  19.173  0.00  0.00    +0.000 C 
ATOM     20  C   UNL     1      -1.541  12.716  21.051  0.00  0.00    +0.000 A 
ATOM     21  C   UNL     1      -2.129  12.330  22.262  0.00  0.00    +0.000 A 
ATOM     22  C   UNL     1      -1.517  11.268  22.952  0.00  0.00    +0.000 A 
ATOM     23  C   UNL     1      -0.383  10.598  22.453  0.00  0.00    +0.000 A 
ATOM     24  C   UNL     1       0.165   9.447  23.257  0.00  0.00    +0.000 C 
BRANCH  21  25
ATOM     25  C   UNL     1      -3.412  12.985  22.801  0.00  0.00    +0.000 C 
ATOM     26  C   UNL     1      -3.262  14.492  23.117  0.00  0.00    +0.000 C 
ATOM     27  C   UNL     1      -4.538  12.855  21.751  0.00  0.00    +0.000 C 
ATOM     28  C   UNL     1      -3.873  12.296  24.107  0.00  0.00    +0.000 C 
ENDBRANCH  21  25
ENDBRANCH  16  17
ENDBRANCH  15  16
ENDBRANCH   1  15
TORSDOF 8
ENDMDL
MODEL 7
REMARK VINA RESULT:      -7.0      0.420      1.877
REMARK  Name = 
REMARK  16 active torsions:
REMARK  status: ('A' for Active; 'I' for Inactive)
REMARK    1  A    between atoms: C_1  and  O_2
REMARK    2  A    between atoms: O_2  and  C_3
REMARK    3  A    between atoms: C_5  and  C_6
REMARK    4  A    between atoms: C_6  and  O_8
REMARK    5  A    between atoms: O_8  and  C_9
REMARK    6  A    between atoms: C_9  and  C_10
REMARK    7  A    between atoms: C_11  and  C_12
REMARK    8  A    between atoms: C_14  and  C_15
REMARK    9  A    between atoms: C_15  and  C_16
REMARK   10  A    between atoms: C_15  and  C_17
REMARK   11  A    between atoms: C_15  and  C_18
REMARK   12  A    between atoms: C_20  and  C_21
REMARK   13  A    between atoms: C_23  and  O_24
REMARK   14  A    between atoms: O_24  and  C_25
REMARK   15  A    between atoms: C_26  and  O_27
REMARK   16  A    between atoms: O_27  and  C_28
REMARK                            x       y       z     vdW  Elec       q    Type
REMARK                         _______ _______ _______ _____ _____    ______ ____
ROOT
ATOM      1  C   UNL     1       0.967  10.472  18.471  0.00  0.00    +0.000 C 
ATOM      2  O   UNL     1       1.831  11.329  18.470  0.00  0.00    +0.000 OA
ENDROOT
BRANCH   1   5
ATOM      3  C   UNL     1      -2.414  12.031  19.152  0.00  0.00    +0.000 A 
ATOM      4  C   UNL     1      -1.082  11.628  19.316  0.00  0.00    +0.000 A 
ATOM      5  C   UNL     1      -0.488  10.754  18.411  0.00  0.00    +0.000 A 
ATOM      6  C   UNL     1      -1.265  10.171  17.415  0.00  0.00    +0.000 A 
ATOM      7  C   UNL     1      -2.627  10.494  17.284  0.00  0.00    +0.000 A 
ATOM      8  C   UNL     1      -3.221  11.441  18.154  0.00  0.00    +0.000 A 
BRANCH   3  10
ATOM      9  C   UNL     1      -3.247  12.537  21.312  0.00  0.00    +0.000 C 
ATOM     10  O   UNL     1      -2.936  12.985  19.990  0.00  0.00    +0.000 OA
ENDBRANCH   3  10
BRANCH   7  11
ATOM     11  O   UNL     1      -3.201   9.811  16.238  0.00  0.00    +0.000 OA
ATOM     12  C   UNL     1      -3.192  10.377  14.936  0.00  0.00    +0.000 C 
ENDBRANCH   7  11
BRANCH   8  13
ATOM     13  O   UNL     1      -4.551  11.689  17.954  0.00  0.00    +0.000 OA
ATOM     14  C   UNL     1      -5.545  10.901  18.588  0.00  0.00    +0.000 C 
ENDBRANCH   8  13
ENDBRANCH   1   5
BRANCH   1  15
ATOM     15  O   UNL     1       1.140   9.131  18.578  0.00  0.00    +0.000 OA
BRANCH  15  16
ATOM     16  C   UNL     1       2.486   8.652  18.713  0.00  0.00    +0.000 C 
BRANCH  16  17
ATOM     17  C   UNL     1       2.495   7.169  19.048  0.00  0.00    +0.000 A 
ATOM     18  C   UNL     1       3.220   6.244  18.261  0.00  0.00    +0.000 A 
ATOM     19  C   UNL     1       4.007   6.622  17.032  0.00  0.00    +0.000 C 
ATOM     20  C   UNL     1       3.255   4.878  18.625  0.00  0.00    +0.000 A 
ATOM     21  C   UNL     1       2.610   4.388  19.767  0.00  0.00    +0.000 A 
ATOM     22  C   UNL     1       1.877   5.317  20.527  0.00  0.00    +0.000 A 
ATOM     23  C   UNL     1       1.804   6.682  20.184  0.00  0.00    +0.000 A 
ATOM     24  C   UNL     1       1.024   7.595  21.094  0.00  0.00    +0.000 C 
BRANCH  21  25
ATOM     25  C   UNL     1       2.730   2.923  20.217  0.00  0.00    +0.000 C 
ATOM     26  C   UNL     1       4.162   2.346  20.103  0.00  0.00    +0.000 C 
ATOM     27  C   UNL     1       2.312   2.801  21.699  0.00  0.00    +0.000 C 
ATOM     28  C   UNL     1       1.812   2.012  19.368  0.00  0.00    +0.000 C 
ENDBRANCH  21  25
ENDBRANCH  16  17
ENDBRANCH  15  16
ENDBRANCH   1  15
TORSDOF 8
ENDMDL
MODEL 8
REMARK VINA RESULT:      -6.9      2.932      8.699
REMARK  Name = 
REMARK  16 active torsions:
REMARK  status: ('A' for Active; 'I' for Inactive)
REMARK    1  A    between atoms: C_1  and  O_2
REMARK    2  A    between atoms: O_2  and  C_3
REMARK    3  A    between atoms: C_5  and  C_6
REMARK    4  A    between atoms: C_6  and  O_8
REMARK    5  A    between atoms: O_8  and  C_9
REMARK    6  A    between atoms: C_9  and  C_10
REMARK    7  A    between atoms: C_11  and  C_12
REMARK    8  A    between atoms: C_14  and  C_15
REMARK    9  A    between atoms: C_15  and  C_16
REMARK   10  A    between atoms: C_15  and  C_17
REMARK   11  A    between atoms: C_15  and  C_18
REMARK   12  A    between atoms: C_20  and  C_21
REMARK   13  A    between atoms: C_23  and  O_24
REMARK   14  A    between atoms: O_24  and  C_25
REMARK   15  A    between atoms: C_26  and  O_27
REMARK   16  A    between atoms: O_27  and  C_28
REMARK                            x       y       z     vdW  Elec       q    Type
REMARK                         _______ _______ _______ _____ _____    ______ ____
ROOT
ATOM      1  C   UNL     1       1.246   9.066  18.725  0.00  0.00    +0.000 C 
ATOM      2  O   UNL     1       0.905   9.728  17.763  0.00  0.00    +0.000 OA
ENDROOT
BRANCH   1   5
ATOM      3  C   UNL     1       4.207   6.919  17.750  0.00  0.00    +0.000 A 
ATOM      4  C   UNL     1       3.204   7.897  17.701  0.00  0.00    +0.000 A 
ATOM      5  C   UNL     1       2.197   7.930  18.661  0.00  0.00    +0.000 A 
ATOM      6  C   UNL     1       2.111   6.903  19.595  0.00  0.00    +0.000 A 
ATOM      7  C   UNL     1       3.057   5.862  19.610  0.00  0.00    +0.000 A 
ATOM      8  C   UNL     1       4.128   5.862  18.684  0.00  0.00    +0.000 A 
BRANCH   3  10
ATOM      9  C   UNL     1       5.119   6.165  15.697  0.00  0.00    +0.000 C 
ATOM     10  O   UNL     1       5.252   6.984  16.862  0.00  0.00    +0.000 OA
ENDBRANCH   3  10
BRANCH   7  11
ATOM     11  O   UNL     1       2.787   4.961  20.611  0.00  0.00    +0.000 OA
ATOM     12  C   UNL     1       1.506   4.354  20.688  0.00  0.00    +0.000 C 
ENDBRANCH   7  11
BRANCH   8  13
ATOM     13  O   UNL     1       4.997   4.809  18.770  0.00  0.00    +0.000 OA
ATOM     14  C   UNL     1       6.316   4.986  19.259  0.00  0.00    +0.000 C 
ENDBRANCH   8  13
ENDBRANCH   1   5
BRANCH   1  15
ATOM     15  O   UNL     1       0.805   9.185  20.001  0.00  0.00    +0.000 OA
BRANCH  15  16
ATOM     16  C   UNL     1       1.121  10.401  20.695  0.00  0.00    +0.000 C 
BRANCH  16  17
ATOM     17  C   UNL     1      -0.132  11.013  21.303  0.00  0.00    +0.000 A 
ATOM     18  C   UNL     1      -0.607  10.600  22.569  0.00  0.00    +0.000 A 
ATOM     19  C   UNL     1       0.044   9.526  23.402  0.00  0.00    +0.000 C 
ATOM     20  C   UNL     1      -1.745  11.222  23.135  0.00  0.00    +0.000 A 
ATOM     21  C   UNL     1      -2.425  12.266  22.497  0.00  0.00    +0.000 A 
ATOM     22  C   UNL     1      -1.951  12.649  21.230  0.00  0.00    +0.000 A 
ATOM     23  C   UNL     1      -0.834  12.040  20.627  0.00  0.00    +0.000 A 
ATOM     24  C   UNL     1      -0.388  12.559  19.284  0.00  0.00    +0.000 C 
BRANCH  21  25
ATOM     25  C   UNL     1      -3.600  13.008  23.157  0.00  0.00    +0.000 C 
ATOM     26  C   UNL     1      -4.085  12.366  24.479  0.00  0.00    +0.000 C 
ATOM     27  C   UNL     1      -3.176  14.456  23.489  0.00  0.00    +0.000 C 
ATOM     28  C   UNL     1      -4.821  13.055  22.208  0.00  0.00    +0.000 C 
ENDBRANCH  21  25
ENDBRANCH  16  17
ENDBRANCH  15  16
ENDBRANCH   1  15
TORSDOF 8
ENDMDL
MODEL 9
REMARK VINA RESULT:      -6.9      2.070      3.679
REMARK  Name = 
REMARK  16 active torsions:
REMARK  status: ('A' for Active; 'I' for Inactive)
REMARK    1  A    between atoms: C_1  and  O_2
REMARK    2  A    between atoms: O_2  and  C_3
REMARK    3  A    between atoms: C_5  and  C_6
REMARK    4  A    between atoms: C_6  and  O_8
REMARK    5  A    between atoms: O_8  and  C_9
REMARK    6  A    between atoms: C_9  and  C_10
REMARK    7  A    between atoms: C_11  and  C_12
REMARK    8  A    between atoms: C_14  and  C_15
REMARK    9  A    between atoms: C_15  and  C_16
REMARK   10  A    between atoms: C_15  and  C_17
REMARK   11  A    between atoms: C_15  and  C_18
REMARK   12  A    between atoms: C_20  and  C_21
REMARK   13  A    between atoms: C_23  and  O_24
REMARK   14  A    between atoms: O_24  and  C_25
REMARK   15  A    between atoms: C_26  and  O_27
REMARK   16  A    between atoms: O_27  and  C_28
REMARK                            x       y       z     vdW  Elec       q    Type
REMARK                         _______ _______ _______ _____ _____    ______ ____
ROOT
ATOM      1  C   UNL     1       0.890   9.625  21.918  0.00  0.00    +0.000 C 
ATOM      2  O   UNL     1       1.223   9.392  23.065  0.00  0.00    +0.000 OA
ENDROOT
BRANCH   1   5
ATOM      3  C   UNL     1      -1.856  12.221  22.139  0.00  0.00    +0.000 A 
ATOM      4  C   UNL     1      -0.920  11.245  22.507  0.00  0.00    +0.000 A 
ATOM      5  C   UNL     1      -0.230  10.521  21.540  0.00  0.00    +0.000 A 
ATOM      6  C   UNL     1      -0.572  10.673  20.200  0.00  0.00    +0.000 A 
ATOM      7  C   UNL     1      -1.570  11.585  19.812  0.00  0.00    +0.000 A 
ATOM      8  C   UNL     1      -2.224  12.381  20.784  0.00  0.00    +0.000 A 
BRANCH   3  10
ATOM      9  C   UNL     1      -3.528  12.404  23.807  0.00  0.00    +0.000 C 
ATOM     10  O   UNL     1      -2.432  13.002  23.110  0.00  0.00    +0.000 OA
ENDBRANCH   3  10
BRANCH   7  11
ATOM     11  O   UNL     1      -1.744  11.578  18.449  0.00  0.00    +0.000 OA
ATOM     12  C   UNL     1      -1.626  10.360  17.729  0.00  0.00    +0.000 C 
ENDBRANCH   7  11
BRANCH   8  13
ATOM     13  O   UNL     1      -3.183  13.236  20.314  0.00  0.00    +0.000 OA
ATOM     14  C   UNL     1      -4.539  12.833  20.219  0.00  0.00    +0.000 C 
ENDBRANCH   8  13
ENDBRANCH   1   5
BRANCH   1  15
ATOM     15  O   UNL     1       1.416   9.096  20.786  0.00  0.00    +0.000 OA
BRANCH  15  16
ATOM     16  C   UNL     1       1.133   7.715  20.514  0.00  0.00    +0.000 C 
BRANCH  16  17
ATOM     17  C   UNL     1       2.146   7.143  19.535  0.00  0.00    +0.000 A 
ATOM     18  C   UNL     1       2.548   7.869  18.390  0.00  0.00    +0.000 A 
ATOM     19  C   UNL     1       2.008   9.227  18.023  0.00  0.00    +0.000 C 
ATOM     20  C   UNL     1       3.530   7.336  17.522  0.00  0.00    +0.000 A 
ATOM     21  C   UNL     1       4.156   6.106  17.761  0.00  0.00    +0.000 A 
ATOM     22  C   UNL     1       3.729   5.389  18.893  0.00  0.00    +0.000 A 
ATOM     23  C   UNL     1       2.740   5.879  19.768  0.00  0.00    +0.000 A 
ATOM     24  C   UNL     1       2.390   5.044  20.973  0.00  0.00    +0.000 C 
BRANCH  21  25
ATOM     25  C   UNL     1       5.293   5.574  16.874  0.00  0.00    +0.000 C 
ATOM     26  C   UNL     1       5.273   6.128  15.428  0.00  0.00    +0.000 C 
ATOM     27  C   UNL     1       6.655   5.969  17.487  0.00  0.00    +0.000 C 
ATOM     28  C   UNL     1       5.228   4.033  16.764  0.00  0.00    +0.000 C 
ENDBRANCH  21  25
ENDBRANCH  16  17
ENDBRANCH  15  16
ENDBRANCH   1  15
TORSDOF 8
ENDMDL
