MODEL 1
REMARK VINA RESULT:      -8.2      0.000      0.000
REMARK  Name = 
REMARK  2 active torsions:
REMARK  status: ('A' for Active; 'I' for Inactive)
REMARK    1  A    between atoms: C_7  and  C_8
REMARK    2  A    between atoms: C_20  and  O_21
REMARK                            x       y       z     vdW  Elec       q    Type
REMARK                         _______ _______ _______ _____ _____    ______ ____
ROOT
ATOM      1  O   UNL     1       4.790   4.943  18.718  0.00  0.00    +0.000 OA
ATOM      2  C   UNL     1       4.260   5.873  18.149  0.00  0.00    +0.000 C 
ATOM      3  O   UNL     1       4.727   6.458  17.001  0.00  0.00    +0.000 OA
ATOM      4  C   UNL     1       3.919   7.581  16.614  0.00  0.00    +0.000 C 
ATOM      5  C   UNL     1       3.056   7.772  17.791  0.00  0.00    +0.000 A 
ATOM      6  C   UNL     1       3.104   6.662  18.600  0.00  0.00    +0.000 A 
ATOM      7  C   UNL     1       2.230   6.449  19.672  0.00  0.00    +0.000 A 
ATOM      8  C   UNL     1       1.469   7.606  20.096  0.00  0.00    +0.000 A 
ATOM      9  C   UNL     1       0.649   7.637  21.256  0.00  0.00    +0.000 A 
ATOM     10  C   UNL     1       0.109   8.826  21.700  0.00  0.00    +0.000 A 
ATOM     11  C   UNL     1       0.231   9.979  20.984  0.00  0.00    +0.000 A 
ATOM     12  C   UNL     1       0.887  10.001  19.772  0.00  0.00    +0.000 A 
ATOM     13  C   UNL     1       1.546   8.836  19.325  0.00  0.00    +0.000 A 
ATOM     14  C   UNL     1       2.285   8.853  18.127  0.00  0.00    +0.000 A 
ATOM     15  O   UNL     1      -0.330  11.048  21.606  0.00  0.00    +0.000 OA
ATOM     16  C   UNL     1      -0.711  10.448  22.863  0.00  0.00    +0.000 C 
ATOM     17  O   UNL     1      -0.548   9.014  22.876  0.00  0.00    +0.000 OA
ENDROOT
BRANCH   7  18
ATOM     18  C   UNL     1       2.023   5.058  20.195  0.00  0.00    +0.000 A 
ATOM     19  C   UNL     1       2.562   4.574  21.399  0.00  0.00    +0.000 A 
ATOM     20  C   UNL     1       2.180   3.331  21.929  0.00  0.00    +0.000 A 
ATOM     21  C   UNL     1       1.323   2.494  21.223  0.00  0.00    +0.000 A 
ATOM     22  C   UNL     1       0.852   2.896  19.983  0.00  0.00    +0.000 A 
ATOM     23  C   UNL     1       1.183   4.163  19.490  0.00  0.00    +0.000 A 
ENDBRANCH   7  18
BRANCH  14  24
ATOM     24  O   UNL     1       2.346   9.922  17.279  0.00  0.00    +0.000 OA
ATOM     25  H   UNL     1       1.468  10.081  16.899  0.00  0.00    +0.000 HD
ENDBRANCH  14  24
TORSDOF 2
ENDMDL
MODEL 2
REMARK VINA RESULT:      -8.2      2.518      5.275
REMARK  Name = 
REMARK  2 active torsions:
REMARK  status: ('A' for Active; 'I' for Inactive)
REMARK    1  A    between atoms: C_7  and  C_8
REMARK    2  A    between atoms: C_20  and  O_21
REMARK                            x       y       z     vdW  Elec       q    Type
REMARK                         _______ _______ _______ _____ _____    ______ ____
ROOT
ATOM      1  O   UNL     1       4.074   1.685  17.375  0.00  0.00    +0.000 OA
ATOM      2  C   UNL     1       3.867   2.208  18.449  0.00  0.00    +0.000 C 
ATOM      3  O   UNL     1       3.581   1.531  19.607  0.00  0.00    +0.000 OA
ATOM      4  C   UNL     1       3.315   2.433  20.693  0.00  0.00    +0.000 C 
ATOM      5  C   UNL     1       3.222   3.734  20.010  0.00  0.00    +0.000 A 
ATOM      6  C   UNL     1       3.743   3.642  18.743  0.00  0.00    +0.000 A 
ATOM      7  C   UNL     1       3.999   4.754  17.931  0.00  0.00    +0.000 A 
ATOM      8  C   UNL     1       3.390   5.995  18.362  0.00  0.00    +0.000 A 
ATOM      9  C   UNL     1       3.401   7.193  17.599  0.00  0.00    +0.000 A 
ATOM     10  C   UNL     1       2.639   8.277  17.985  0.00  0.00    +0.000 A 
ATOM     11  C   UNL     1       1.959   8.288  19.165  0.00  0.00    +0.000 A 
ATOM     12  C   UNL     1       2.018   7.219  20.034  0.00  0.00    +0.000 A 
ATOM     13  C   UNL     1       2.696   6.047  19.638  0.00  0.00    +0.000 A 
ATOM     14  C   UNL     1       2.708   4.915  20.475  0.00  0.00    +0.000 A 
ATOM     15  O   UNL     1       1.237   9.423  19.347  0.00  0.00    +0.000 OA
ATOM     16  C   UNL     1       1.447  10.073  18.075  0.00  0.00    +0.000 C 
ATOM     17  O   UNL     1       2.436   9.409  17.260  0.00  0.00    +0.000 OA
ENDROOT
BRANCH   7  18
ATOM     18  C   UNL     1       4.976   4.635  16.797  0.00  0.00    +0.000 A 
ATOM     19  C   UNL     1       4.613   4.450  15.452  0.00  0.00    +0.000 A 
ATOM     20  C   UNL     1       5.556   4.536  14.417  0.00  0.00    +0.000 A 
ATOM     21  C   UNL     1       6.906   4.714  14.702  0.00  0.00    +0.000 A 
ATOM     22  C   UNL     1       7.314   4.799  16.024  0.00  0.00    +0.000 A 
ATOM     23  C   UNL     1       6.360   4.778  17.049  0.00  0.00    +0.000 A 
ENDBRANCH   7  18
BRANCH  14  24
ATOM     24  O   UNL     1       2.172   4.885  21.731  0.00  0.00    +0.000 OA
ATOM     25  H   UNL     1       2.523   5.627  22.248  0.00  0.00    +0.000 HD
ENDBRANCH  14  24
TORSDOF 2
ENDMDL
MODEL 3
REMARK VINA RESULT:      -7.2      1.566      2.646
REMARK  Name = 
REMARK  2 active torsions:
REMARK  status: ('A' for Active; 'I' for Inactive)
REMARK    1  A    between atoms: C_7  and  C_8
REMARK    2  A    between atoms: C_20  and  O_21
REMARK                            x       y       z     vdW  Elec       q    Type
REMARK                         _______ _______ _______ _____ _____    ______ ____
ROOT
ATOM      1  O   UNL     1       5.217   3.243  19.356  0.00  0.00    +0.000 OA
ATOM      2  C   UNL     1       5.122   3.953  18.378  0.00  0.00    +0.000 C 
ATOM      3  O   UNL     1       5.973   3.923  17.302  0.00  0.00    +0.000 OA
ATOM      4  C   UNL     1       5.640   4.934  16.338  0.00  0.00    +0.000 C 
ATOM      5  C   UNL     1       4.650   5.750  17.060  0.00  0.00    +0.000 A 
ATOM      6  C   UNL     1       4.192   5.071  18.164  0.00  0.00    +0.000 A 
ATOM      7  C   UNL     1       3.091   5.485  18.923  0.00  0.00    +0.000 A 
ATOM      8  C   UNL     1       2.644   6.842  18.685  0.00  0.00    +0.000 A 
ATOM      9  C   UNL     1       1.649   7.498  19.458  0.00  0.00    +0.000 A 
ATOM     10  C   UNL     1       1.413   8.848  19.296  0.00  0.00    +0.000 A 
ATOM     11  C   UNL     1       2.023   9.567  18.314  0.00  0.00    +0.000 A 
ATOM     12  C   UNL     1       2.892   8.970  17.425  0.00  0.00    +0.000 A 
ATOM     13  C   UNL     1       3.247   7.618  17.614  0.00  0.00    +0.000 A 
ATOM     14  C   UNL     1       4.189   7.005  16.766  0.00  0.00    +0.000 A 
ATOM     15  O   UNL     1       1.694  10.884  18.343  0.00  0.00    +0.000 OA
ATOM     16  C   UNL     1       0.897  10.928  19.546  0.00  0.00    +0.000 C 
ATOM     17  O   UNL     1       0.614   9.618  20.082  0.00  0.00    +0.000 OA
ENDROOT
BRANCH   7  18
ATOM     18  C   UNL     1       2.370   4.492  19.787  0.00  0.00    +0.000 A 
ATOM     19  C   UNL     1       1.424   3.567  19.314  0.00  0.00    +0.000 A 
ATOM     20  C   UNL     1       0.925   2.541  20.131  0.00  0.00    +0.000 A 
ATOM     21  C   UNL     1       1.285   2.466  21.472  0.00  0.00    +0.000 A 
ATOM     22  C   UNL     1       2.138   3.423  22.000  0.00  0.00    +0.000 A 
ATOM     23  C   UNL     1       2.684   4.405  21.164  0.00  0.00    +0.000 A 
ENDBRANCH   7  18
BRANCH  14  24
ATOM     24  O   UNL     1       4.744   7.609  15.674  0.00  0.00    +0.000 OA
ATOM     25  H   UNL     1       5.159   8.443  15.945  0.00  0.00    +0.000 HD
ENDBRANCH  14  24
TORSDOF 2
ENDMDL
MODEL 4
REMARK VINA RESULT:      -7.1      2.280      4.765
REMARK  Name = 
REMARK  2 active torsions:
REMARK  status: ('A' for Active; 'I' for Inactive)
REMARK    1  A    between atoms: C_7  and  C_8
REMARK    2  A    between atoms: C_20  and  O_21
REMARK                            x       y       z     vdW  Elec       q    Type
REMARK                         _______ _______ _______ _____ _____    ______ ____
ROOT
ATOM      1  O   UNL     1       4.714   3.190  16.605  0.00  0.00    +0.000 OA
ATOM      2  C   UNL     1       4.011   2.934  17.560  0.00  0.00    +0.000 C 
ATOM      3  O   UNL     1       3.466   1.703  17.823  0.00  0.00    +0.000 OA
ATOM      4  C   UNL     1       2.625   1.737  18.987  0.00  0.00    +0.000 C 
ATOM      5  C   UNL     1       2.515   3.179  19.259  0.00  0.00    +0.000 A 
ATOM      6  C   UNL     1       3.479   3.867  18.563  0.00  0.00    +0.000 A 
ATOM      7  C   UNL     1       3.773   5.218  18.782  0.00  0.00    +0.000 A 
ATOM      8  C   UNL     1       2.795   5.952  19.557  0.00  0.00    +0.000 A 
ATOM      9  C   UNL     1       2.831   7.358  19.757  0.00  0.00    +0.000 A 
ATOM     10  C   UNL     1       1.765   8.010  20.342  0.00  0.00    +0.000 A 
ATOM     11  C   UNL     1       0.707   7.327  20.862  0.00  0.00    +0.000 A 
ATOM     12  C   UNL     1       0.667   5.949  20.841  0.00  0.00    +0.000 A 
ATOM     13  C   UNL     1       1.680   5.242  20.161  0.00  0.00    +0.000 A 
ATOM     14  C   UNL     1       1.622   3.839  20.061  0.00  0.00    +0.000 A 
ATOM     15  O   UNL     1      -0.258   8.146  21.356  0.00  0.00    +0.000 OA
ATOM     16  C   UNL     1       0.268   9.433  20.967  0.00  0.00    +0.000 C 
ATOM     17  O   UNL     1       1.608   9.358  20.437  0.00  0.00    +0.000 OA
ENDROOT
BRANCH   7  18
ATOM     18  C   UNL     1       5.104   5.766  18.356  0.00  0.00    +0.000 A 
ATOM     19  C   UNL     1       5.288   6.666  17.293  0.00  0.00    +0.000 A 
ATOM     20  C   UNL     1       6.525   7.289  17.061  0.00  0.00    +0.000 A 
ATOM     21  C   UNL     1       7.638   6.958  17.826  0.00  0.00    +0.000 A 
ATOM     22  C   UNL     1       7.517   5.997  18.819  0.00  0.00    +0.000 A 
ATOM     23  C   UNL     1       6.267   5.429  19.088  0.00  0.00    +0.000 A 
ENDBRANCH   7  18
BRANCH  14  24
ATOM     24  O   UNL     1       0.675   3.065  20.669  0.00  0.00    +0.000 OA
ATOM     25  H   UNL     1       0.967   2.140  20.668  0.00  0.00    +0.000 HD
ENDBRANCH  14  24
TORSDOF 2
ENDMDL
MODEL 5
REMARK VINA RESULT:      -7.0      2.542      7.025
REMARK  Name = 
REMARK  2 active torsions:
REMARK  status: ('A' for Active; 'I' for Inactive)
REMARK    1  A    between atoms: C_7  and  C_8
REMARK    2  A    between atoms: C_20  and  O_21
REMARK                            x       y       z     vdW  Elec       q    Type
REMARK                         _______ _______ _______ _____ _____    ______ ____
ROOT
ATOM      1  O   UNL     1       1.210   5.648  21.219  0.00  0.00    +0.000 OA
ATOM      2  C   UNL     1       1.240   4.729  20.428  0.00  0.00    +0.000 C 
ATOM      3  O   UNL     1       0.671   3.498  20.636  0.00  0.00    +0.000 OA
ATOM      4  C   UNL     1       0.940   2.603  19.546  0.00  0.00    +0.000 C 
ATOM      5  C   UNL     1       1.949   3.341  18.768  0.00  0.00    +0.000 A 
ATOM      6  C   UNL     1       1.976   4.658  19.159  0.00  0.00    +0.000 A 
ATOM      7  C   UNL     1       2.667   5.656  18.460  0.00  0.00    +0.000 A 
ATOM      8  C   UNL     1       3.621   5.184  17.479  0.00  0.00    +0.000 A 
ATOM      9  C   UNL     1       4.527   6.027  16.780  0.00  0.00    +0.000 A 
ATOM     10  C   UNL     1       5.532   5.486  16.006  0.00  0.00    +0.000 A 
ATOM     11  C   UNL     1       5.617   4.146  15.778  0.00  0.00    +0.000 A 
ATOM     12  C   UNL     1       4.686   3.272  16.300  0.00  0.00    +0.000 A 
ATOM     13  C   UNL     1       3.702   3.763  17.183  0.00  0.00    +0.000 A 
ATOM     14  C   UNL     1       2.787   2.881  17.788  0.00  0.00    +0.000 A 
ATOM     15  O   UNL     1       6.696   3.805  15.028  0.00  0.00    +0.000 OA
ATOM     16  C   UNL     1       7.352   5.087  14.917  0.00  0.00    +0.000 C 
ATOM     17  O   UNL     1       6.552   6.175  15.428  0.00  0.00    +0.000 OA
ENDROOT
BRANCH   7  18
ATOM     18  C   UNL     1       2.282   7.094  18.648  0.00  0.00    +0.000 A 
ATOM     19  C   UNL     1       2.031   7.993  17.598  0.00  0.00    +0.000 A 
ATOM     20  C   UNL     1       1.493   9.268  17.833  0.00  0.00    +0.000 A 
ATOM     21  C   UNL     1       1.278   9.718  19.131  0.00  0.00    +0.000 A 
ATOM     22  C   UNL     1       1.610   8.895  20.197  0.00  0.00    +0.000 A 
ATOM     23  C   UNL     1       2.085   7.601  19.955  0.00  0.00    +0.000 A 
ENDBRANCH   7  18
BRANCH  14  24
ATOM     24  O   UNL     1       2.711   1.546  17.510  0.00  0.00    +0.000 OA
ATOM     25  H   UNL     1       3.421   1.079  17.978  0.00  0.00    +0.000 HD
ENDBRANCH  14  24
TORSDOF 2
ENDMDL
MODEL 6
REMARK VINA RESULT:      -6.9      2.219      4.634
REMARK  Name = 
REMARK  2 active torsions:
REMARK  status: ('A' for Active; 'I' for Inactive)
REMARK    1  A    between atoms: C_7  and  C_8
REMARK    2  A    between atoms: C_20  and  O_21
REMARK                            x       y       z     vdW  Elec       q    Type
REMARK                         _______ _______ _______ _____ _____    ______ ____
ROOT
ATOM      1  O   UNL     1       4.579   3.259  16.655  0.00  0.00    +0.000 OA
ATOM      2  C   UNL     1       3.879   2.996  17.609  0.00  0.00    +0.000 C 
ATOM      3  O   UNL     1       3.335   1.763  17.865  0.00  0.00    +0.000 OA
ATOM      4  C   UNL     1       2.495   1.789  19.030  0.00  0.00    +0.000 C 
ATOM      5  C   UNL     1       2.384   3.230  19.311  0.00  0.00    +0.000 A 
ATOM      6  C   UNL     1       3.347   3.923  18.618  0.00  0.00    +0.000 A 
ATOM      7  C   UNL     1       3.640   5.273  18.845  0.00  0.00    +0.000 A 
ATOM      8  C   UNL     1       2.662   6.001  19.625  0.00  0.00    +0.000 A 
ATOM      9  C   UNL     1       2.697   7.406  19.833  0.00  0.00    +0.000 A 
ATOM     10  C   UNL     1       1.631   8.054  20.424  0.00  0.00    +0.000 A 
ATOM     11  C   UNL     1       0.575   7.366  20.941  0.00  0.00    +0.000 A 
ATOM     12  C   UNL     1       0.536   5.989  20.912  0.00  0.00    +0.000 A 
ATOM     13  C   UNL     1       1.548   5.286  20.227  0.00  0.00    +0.000 A 
ATOM     14  C   UNL     1       1.492   3.884  20.118  0.00  0.00    +0.000 A 
ATOM     15  O   UNL     1      -0.390   8.181  21.441  0.00  0.00    +0.000 OA
ATOM     16  C   UNL     1       0.134   9.471  21.059  0.00  0.00    +0.000 C 
ATOM     17  O   UNL     1       1.473   9.401  20.528  0.00  0.00    +0.000 OA
ENDROOT
BRANCH   7  18
ATOM     18  C   UNL     1       4.970   5.825  18.420  0.00  0.00    +0.000 A 
ATOM     19  C   UNL     1       6.188   5.546  19.062  0.00  0.00    +0.000 A 
ATOM     20  C   UNL     1       7.418   5.935  18.509  0.00  0.00    +0.000 A 
ATOM     21  C   UNL     1       7.461   6.698  17.347  0.00  0.00    +0.000 A 
ATOM     22  C   UNL     1       6.274   7.079  16.741  0.00  0.00    +0.000 A 
ATOM     23  C   UNL     1       5.053   6.633  17.261  0.00  0.00    +0.000 A 
ENDBRANCH   7  18
BRANCH  14  24
ATOM     24  O   UNL     1       0.546   3.105  20.723  0.00  0.00    +0.000 OA
ATOM     25  H   UNL     1      -0.295   3.195  20.249  0.00  0.00    +0.000 HD
ENDBRANCH  14  24
TORSDOF 2
ENDMDL
MODEL 7
REMARK VINA RESULT:      -6.6      2.560      7.011
REMARK  Name = 
REMARK  2 active torsions:
REMARK  status: ('A' for Active; 'I' for Inactive)
REMARK    1  A    between atoms: C_7  and  C_8
REMARK    2  A    between atoms: C_20  and  O_21
REMARK                            x       y       z     vdW  Elec       q    Type
REMARK                         _______ _______ _______ _____ _____    ______ ____
ROOT
ATOM      1  O   UNL     1       1.497   5.544  21.449  0.00  0.00    +0.000 OA
ATOM      2  C   UNL     1       1.550   4.582  20.713  0.00  0.00    +0.000 C 
ATOM      3  O   UNL     1       1.109   3.324  21.036  0.00  0.00    +0.000 OA
ATOM      4  C   UNL     1       1.375   2.385  19.981  0.00  0.00    +0.000 C 
ATOM      5  C   UNL     1       2.253   3.154  19.084  0.00  0.00    +0.000 A 
ATOM      6  C   UNL     1       2.193   4.491  19.394  0.00  0.00    +0.000 A 
ATOM      7  C   UNL     1       2.738   5.497  18.586  0.00  0.00    +0.000 A 
ATOM      8  C   UNL     1       3.655   5.044  17.561  0.00  0.00    +0.000 A 
ATOM      9  C   UNL     1       4.427   5.914  16.745  0.00  0.00    +0.000 A 
ATOM     10  C   UNL     1       5.416   5.411  15.925  0.00  0.00    +0.000 A 
ATOM     11  C   UNL     1       5.602   4.070  15.769  0.00  0.00    +0.000 A 
ATOM     12  C   UNL     1       4.794   3.157  16.413  0.00  0.00    +0.000 A 
ATOM     13  C   UNL     1       3.839   3.619  17.342  0.00  0.00    +0.000 A 
ATOM     14  C   UNL     1       3.053   2.704  18.068  0.00  0.00    +0.000 A 
ATOM     15  O   UNL     1       6.648   3.774  14.955  0.00  0.00    +0.000 OA
ATOM     16  C   UNL     1       7.177   5.097  14.719  0.00  0.00    +0.000 C 
ATOM     17  O   UNL     1       6.325   6.144  15.228  0.00  0.00    +0.000 OA
ENDROOT
BRANCH   7  18
ATOM     18  C   UNL     1       2.242   6.907  18.721  0.00  0.00    +0.000 A 
ATOM     19  C   UNL     1       2.029   7.560  19.946  0.00  0.00    +0.000 A 
ATOM     20  C   UNL     1       1.747   8.934  20.009  0.00  0.00    +0.000 A 
ATOM     21  C   UNL     1       1.576   9.675  18.845  0.00  0.00    +0.000 A 
ATOM     22  C   UNL     1       1.679   9.041  17.616  0.00  0.00    +0.000 A 
ATOM     23  C   UNL     1       2.025   7.686  17.560  0.00  0.00    +0.000 A 
ENDBRANCH   7  18
BRANCH  14  24
ATOM     24  O   UNL     1       3.076   1.352  17.875  0.00  0.00    +0.000 OA
ATOM     25  H   UNL     1       3.961   1.084  17.583  0.00  0.00    +0.000 HD
ENDBRANCH  14  24
TORSDOF 2
ENDMDL
MODEL 8
REMARK VINA RESULT:      -6.6      3.899      6.840
REMARK  Name = 
REMARK  2 active torsions:
REMARK  status: ('A' for Active; 'I' for Inactive)
REMARK    1  A    between atoms: C_7  and  C_8
REMARK    2  A    between atoms: C_20  and  O_21
REMARK                            x       y       z     vdW  Elec       q    Type
REMARK                         _______ _______ _______ _____ _____    ______ ____
ROOT
ATOM      1  O   UNL     1      -2.059   9.709  18.027  0.00  0.00    +0.000 OA
ATOM      2  C   UNL     1      -2.130  10.761  18.626  0.00  0.00    +0.000 C 
ATOM      3  O   UNL     1      -3.299  11.370  19.004  0.00  0.00    +0.000 OA
ATOM      4  C   UNL     1      -3.054  12.638  19.633  0.00  0.00    +0.000 C 
ATOM      5  C   UNL     1      -1.621  12.852  19.370  0.00  0.00    +0.000 A 
ATOM      6  C   UNL     1      -1.033  11.678  18.968  0.00  0.00    +0.000 A 
ATOM      7  C   UNL     1       0.352  11.506  18.858  0.00  0.00    +0.000 A 
ATOM      8  C   UNL     1       1.135  12.724  18.880  0.00  0.00    +0.000 A 
ATOM      9  C   UNL     1       2.533  12.775  18.629  0.00  0.00    +0.000 A 
ATOM     10  C   UNL     1       3.173  13.988  18.478  0.00  0.00    +0.000 A 
ATOM     11  C   UNL     1       2.527  15.169  18.690  0.00  0.00    +0.000 A 
ATOM     12  C   UNL     1       1.206  15.200  19.083  0.00  0.00    +0.000 A 
ATOM     13  C   UNL     1       0.480  13.993  19.148  0.00  0.00    +0.000 A 
ATOM     14  C   UNL     1      -0.890  14.005  19.474  0.00  0.00    +0.000 A 
ATOM     15  O   UNL     1       3.314  16.250  18.451  0.00  0.00    +0.000 OA
ATOM     16  C   UNL     1       4.499  15.603  17.940  0.00  0.00    +0.000 C 
ATOM     17  O   UNL     1       4.460  14.167  18.074  0.00  0.00    +0.000 OA
ENDROOT
BRANCH   7  18
ATOM     18  C   UNL     1       0.933  10.122  18.883  0.00  0.00    +0.000 A 
ATOM     19  C   UNL     1       1.504   9.481  17.771  0.00  0.00    +0.000 A 
ATOM     20  C   UNL     1       2.199   8.268  17.897  0.00  0.00    +0.000 A 
ATOM     21  C   UNL     1       2.260   7.611  19.122  0.00  0.00    +0.000 A 
ATOM     22  C   UNL     1       1.619   8.165  20.220  0.00  0.00    +0.000 A 
ATOM     23  C   UNL     1       0.985   9.407  20.103  0.00  0.00    +0.000 A 
ENDBRANCH   7  18
BRANCH  14  24
ATOM     24  O   UNL     1      -1.582  15.125  19.836  0.00  0.00    +0.000 OA
ATOM     25  H   UNL     1      -0.968  15.873  19.907  0.00  0.00    +0.000 HD
ENDBRANCH  14  24
TORSDOF 2
ENDMDL
MODEL 9
REMARK VINA RESULT:      -6.5      3.251      6.149
REMARK  Name = 
REMARK  2 active torsions:
REMARK  status: ('A' for Active; 'I' for Inactive)
REMARK    1  A    between atoms: C_7  and  C_8
REMARK    2  A    between atoms: C_20  and  O_21
REMARK                            x       y       z     vdW  Elec       q    Type
REMARK                         _______ _______ _______ _____ _____    ______ ____
ROOT
ATOM      1  O   UNL     1       0.707   8.953  22.485  0.00  0.00    +0.000 OA
ATOM      2  C   UNL     1       0.184  10.018  22.235  0.00  0.00    +0.000 C 
ATOM      3  O   UNL     1      -0.149  10.966  23.169  0.00  0.00    +0.000 OA
ATOM      4  C   UNL     1      -0.820  12.085  22.569  0.00  0.00    +0.000 C 
ATOM      5  C   UNL     1      -1.087  11.602  21.204  0.00  0.00    +0.000 A 
ATOM      6  C   UNL     1      -0.329  10.488  20.940  0.00  0.00    +0.000 A 
ATOM      7  C   UNL     1      -0.194   9.931  19.662  0.00  0.00    +0.000 A 
ATOM      8  C   UNL     1      -1.148  10.394  18.676  0.00  0.00    +0.000 A 
ATOM      9  C   UNL     1      -1.277   9.841  17.374  0.00  0.00    +0.000 A 
ATOM     10  C   UNL     1      -2.332  10.202  16.561  0.00  0.00    +0.000 A 
ATOM     11  C   UNL     1      -3.205  11.185  16.917  0.00  0.00    +0.000 A 
ATOM     12  C   UNL     1      -3.061  11.874  18.103  0.00  0.00    +0.000 A 
ATOM     13  C   UNL     1      -2.063  11.471  19.015  0.00  0.00    +0.000 A 
ATOM     14  C   UNL     1      -1.943  12.110  20.264  0.00  0.00    +0.000 A 
ATOM     15  O   UNL     1      -4.196  11.365  16.006  0.00  0.00    +0.000 OA
ATOM     16  C   UNL     1      -3.909  10.286  15.091  0.00  0.00    +0.000 C 
ATOM     17  O   UNL     1      -2.655   9.628  15.371  0.00  0.00    +0.000 OA
ENDROOT
BRANCH   7  18
ATOM     18  C   UNL     1       0.979   9.045  19.359  0.00  0.00    +0.000 A 
ATOM     19  C   UNL     1       1.341   7.920  20.118  0.00  0.00    +0.000 A 
ATOM     20  C   UNL     1       2.329   7.023  19.681  0.00  0.00    +0.000 A 
ATOM     21  C   UNL     1       3.050   7.276  18.519  0.00  0.00    +0.000 A 
ATOM     22  C   UNL     1       2.789   8.431  17.798  0.00  0.00    +0.000 A 
ATOM     23  C   UNL     1       1.759   9.287  18.204  0.00  0.00    +0.000 A 
ENDBRANCH   7  18
BRANCH  14  24
ATOM     24  O   UNL     1      -2.684  13.191  20.647  0.00  0.00    +0.000 OA
ATOM     25  H   UNL     1      -3.489  12.887  21.094  0.00  0.00    +0.000 HD
ENDBRANCH  14  24
TORSDOF 2
ENDMDL
