MODEL 1
REMARK VINA RESULT:      -8.4      0.000      0.000
REMARK  Name = 
REMARK  6 active torsions:
REMARK  status: ('A' for Active; 'I' for Inactive)
REMARK    1  A    between atoms: C_1  and  C_2
REMARK    2  A    between atoms: C_2  and  C_3
REMARK    3  A    between atoms: C_6  and  O_7
REMARK    4  A    between atoms: O_7  and  C_8
REMARK    5  A    between atoms: C_8  and  C_9
REMARK    6  A    between atoms: N_11  and  C_12
REMARK                            x       y       z     vdW  Elec       q    Type
REMARK                         _______ _______ _______ _____ _____    ______ ____
ROOT
ATOM      1  C   UNL     1       5.432   6.030  17.694  0.00  0.00    +0.000 C 
ATOM      2  O   UNL     1       5.953   5.362  18.586  0.00  0.00    +0.000 OA
ATOM      3  N   UNL     1       4.082   6.323  17.585  0.00  0.00    +0.000 N 
ATOM      4  H   UNL     1       3.766   6.547  16.648  0.00  0.00    +0.000 HD
ENDROOT
BRANCH   3   5
ATOM      5  C   UNL     1       3.128   5.964  18.562  0.00  0.00    +0.000 A 
ATOM      6  C   UNL     1       2.757   6.914  19.522  0.00  0.00    +0.000 A 
ATOM      7  C   UNL     1       1.837   6.599  20.509  0.00  0.00    +0.000 A 
ATOM      8  C   UNL     1       1.305   5.313  20.550  0.00  0.00    +0.000 A 
ATOM      9  C   UNL     1       1.654   4.345  19.590  0.00  0.00    +0.000 A 
ATOM     10  C   UNL     1       2.545   4.677  18.561  0.00  0.00    +0.000 A 
ATOM     11  C   UNL     1       2.926   3.672  17.512  0.00  0.00    +0.000 C 
ATOM     12  C   UNL     1       2.398   2.248  17.626  0.00  0.00    +0.000 C 
ATOM     13  C   UNL     1       1.476   1.891  18.778  0.00  0.00    +0.000 C 
ATOM     14  C   UNL     1       1.064   2.980  19.757  0.00  0.00    +0.000 C 
ENDBRANCH   3   5
BRANCH   1  15
ATOM     15  C   UNL     1       6.284   6.647  16.590  0.00  0.00    +0.000 C 
BRANCH  15  16
ATOM     16  O   UNL     1       7.249   5.712  16.119  0.00  0.00    +0.000 OA
BRANCH  16  20
ATOM     17  C   UNL     1       5.968   3.539  12.798  0.00  0.00    +0.000 A 
ATOM     18  C   UNL     1       5.319   3.465  14.037  0.00  0.00    +0.000 A 
ATOM     19  C   UNL     1       5.785   4.210  15.119  0.00  0.00    +0.000 A 
ATOM     20  C   UNL     1       6.905   5.027  14.988  0.00  0.00    +0.000 A 
ATOM     21  C   UNL     1       7.548   5.121  13.754  0.00  0.00    +0.000 A 
ATOM     22  C   UNL     1       7.076   4.382  12.662  0.00  0.00    +0.000 A 
BRANCH  17  24
ATOM     23  C   UNL     1       4.076   3.206  11.181  0.00  0.00    +0.000 C 
ATOM     24  C   UNL     1       5.455   2.742  11.626  0.00  0.00    +0.000 C 
ENDBRANCH  17  24
ENDBRANCH  16  20
ENDBRANCH  15  16
ENDBRANCH   1  15
TORSDOF 5
ENDMDL
MODEL 2
REMARK VINA RESULT:      -8.4      0.190      1.020
REMARK  Name = 
REMARK  6 active torsions:
REMARK  status: ('A' for Active; 'I' for Inactive)
REMARK    1  A    between atoms: C_1  and  C_2
REMARK    2  A    between atoms: C_2  and  C_3
REMARK    3  A    between atoms: C_6  and  O_7
REMARK    4  A    between atoms: O_7  and  C_8
REMARK    5  A    between atoms: C_8  and  C_9
REMARK    6  A    between atoms: N_11  and  C_12
REMARK                            x       y       z     vdW  Elec       q    Type
REMARK                         _______ _______ _______ _____ _____    ______ ____
ROOT
ATOM      1  C   UNL     1       5.534   6.140  17.896  0.00  0.00    +0.000 C 
ATOM      2  O   UNL     1       6.042   5.548  18.847  0.00  0.00    +0.000 OA
ATOM      3  N   UNL     1       4.176   6.335  17.697  0.00  0.00    +0.000 N 
ATOM      4  H   UNL     1       3.903   6.497  16.734  0.00  0.00    +0.000 HD
ENDROOT
BRANCH   3   5
ATOM      5  C   UNL     1       3.191   5.957  18.635  0.00  0.00    +0.000 A 
ATOM      6  C   UNL     1       2.790   6.886  19.602  0.00  0.00    +0.000 A 
ATOM      7  C   UNL     1       1.838   6.551  20.552  0.00  0.00    +0.000 A 
ATOM      8  C   UNL     1       1.304   5.266  20.548  0.00  0.00    +0.000 A 
ATOM      9  C   UNL     1       1.684   4.318  19.579  0.00  0.00    +0.000 A 
ATOM     10  C   UNL     1       2.608   4.671  18.586  0.00  0.00    +0.000 A 
ATOM     11  C   UNL     1       3.022   3.689  17.529  0.00  0.00    +0.000 C 
ATOM     12  C   UNL     1       2.489   2.264  17.594  0.00  0.00    +0.000 C 
ATOM     13  C   UNL     1       1.530   1.883  18.707  0.00  0.00    +0.000 C 
ATOM     14  C   UNL     1       1.088   2.951  19.697  0.00  0.00    +0.000 C 
ENDBRANCH   3   5
BRANCH   1  15
ATOM     15  C   UNL     1       6.408   6.763  16.814  0.00  0.00    +0.000 C 
BRANCH  15  16
ATOM     16  O   UNL     1       7.308   5.798  16.277  0.00  0.00    +0.000 OA
BRANCH  16  20
ATOM     17  C   UNL     1       6.053   3.629  12.944  0.00  0.00    +0.000 A 
ATOM     18  C   UNL     1       7.092   4.567  12.879  0.00  0.00    +0.000 A 
ATOM     19  C   UNL     1       7.476   5.268  14.021  0.00  0.00    +0.000 A 
ATOM     20  C   UNL     1       6.827   5.058  15.235  0.00  0.00    +0.000 A 
ATOM     21  C   UNL     1       5.803   4.114  15.313  0.00  0.00    +0.000 A 
ATOM     22  C   UNL     1       5.422   3.399  14.171  0.00  0.00    +0.000 A 
BRANCH  17  24
ATOM     23  C   UNL     1       4.218   3.167  11.294  0.00  0.00    +0.000 C 
ATOM     24  C   UNL     1       5.649   2.862  11.711  0.00  0.00    +0.000 C 
ENDBRANCH  17  24
ENDBRANCH  16  20
ENDBRANCH  15  16
ENDBRANCH   1  15
TORSDOF 5
ENDMDL
MODEL 3
REMARK VINA RESULT:      -8.1      4.981      7.733
REMARK  Name = 
REMARK  6 active torsions:
REMARK  status: ('A' for Active; 'I' for Inactive)
REMARK    1  A    between atoms: C_1  and  C_2
REMARK    2  A    between atoms: C_2  and  C_3
REMARK    3  A    between atoms: C_6  and  O_7
REMARK    4  A    between atoms: O_7  and  C_8
REMARK    5  A    between atoms: C_8  and  C_9
REMARK    6  A    between atoms: N_11  and  C_12
REMARK                            x       y       z     vdW  Elec       q    Type
REMARK                         _______ _______ _______ _____ _____    ______ ____
ROOT
ATOM      1  C   UNL     1       7.776   7.715  17.872  0.00  0.00    +0.000 C 
ATOM      2  O   UNL     1       8.212   6.891  18.675  0.00  0.00    +0.000 OA
ATOM      3  N   UNL     1       6.894   7.449  16.837  0.00  0.00    +0.000 N 
ATOM      4  H   UNL     1       6.920   8.112  16.070  0.00  0.00    +0.000 HD
ENDROOT
BRANCH   3   5
ATOM      5  C   UNL     1       6.295   6.187  16.632  0.00  0.00    +0.000 A 
ATOM      6  C   UNL     1       6.993   5.221  15.898  0.00  0.00    +0.000 A 
ATOM      7  C   UNL     1       6.436   3.974  15.660  0.00  0.00    +0.000 A 
ATOM      8  C   UNL     1       5.157   3.705  16.139  0.00  0.00    +0.000 A 
ATOM      9  C   UNL     1       4.440   4.657  16.888  0.00  0.00    +0.000 A 
ATOM     10  C   UNL     1       5.023   5.898  17.174  0.00  0.00    +0.000 A 
ATOM     11  C   UNL     1       4.291   6.929  17.984  0.00  0.00    +0.000 C 
ATOM     12  C   UNL     1       2.861   6.645  18.425  0.00  0.00    +0.000 C 
ATOM     13  C   UNL     1       2.225   5.315  18.060  0.00  0.00    +0.000 C 
ATOM     14  C   UNL     1       3.053   4.284  17.309  0.00  0.00    +0.000 C 
ENDBRANCH   3   5
BRANCH   1  15
ATOM     15  C   UNL     1       8.174   9.183  17.976  0.00  0.00    +0.000 C 
BRANCH  15  16
ATOM     16  O   UNL     1       8.920   9.419  19.166  0.00  0.00    +0.000 OA
BRANCH  16  20
ATOM     17  C   UNL     1      10.950  13.059  19.044  0.00  0.00    +0.000 A 
ATOM     18  C   UNL     1      10.613  12.351  17.883  0.00  0.00    +0.000 A 
ATOM     19  C   UNL     1       9.933  11.137  17.975  0.00  0.00    +0.000 A 
ATOM     20  C   UNL     1       9.593  10.605  19.217  0.00  0.00    +0.000 A 
ATOM     21  C   UNL     1       9.911  11.312  20.377  0.00  0.00    +0.000 A 
ATOM     22  C   UNL     1      10.583  12.537  20.288  0.00  0.00    +0.000 A 
BRANCH  17  24
ATOM     23  C   UNL     1      11.433  15.057  17.602  0.00  0.00    +0.000 C 
ATOM     24  C   UNL     1      11.673  14.377  18.941  0.00  0.00    +0.000 C 
ENDBRANCH  17  24
ENDBRANCH  16  20
ENDBRANCH  15  16
ENDBRANCH   1  15
TORSDOF 5
ENDMDL
MODEL 4
REMARK VINA RESULT:      -8.1      1.332      1.613
REMARK  Name = 
REMARK  6 active torsions:
REMARK  status: ('A' for Active; 'I' for Inactive)
REMARK    1  A    between atoms: C_1  and  C_2
REMARK    2  A    between atoms: C_2  and  C_3
REMARK    3  A    between atoms: C_6  and  O_7
REMARK    4  A    between atoms: O_7  and  C_8
REMARK    5  A    between atoms: C_8  and  C_9
REMARK    6  A    between atoms: N_11  and  C_12
REMARK                            x       y       z     vdW  Elec       q    Type
REMARK                         _______ _______ _______ _____ _____    ______ ____
ROOT
ATOM      1  C   UNL     1       6.461   5.306  17.734  0.00  0.00    +0.000 C 
ATOM      2  O   UNL     1       6.884   5.928  18.708  0.00  0.00    +0.000 OA
ATOM      3  N   UNL     1       5.126   5.077  17.438  0.00  0.00    +0.000 N 
ATOM      4  H   UNL     1       4.951   4.272  16.847  0.00  0.00    +0.000 HD
ENDROOT
BRANCH   3   5
ATOM      5  C   UNL     1       4.060   5.628  18.181  0.00  0.00    +0.000 A 
ATOM      6  C   UNL     1       3.654   6.939  17.907  0.00  0.00    +0.000 A 
ATOM      7  C   UNL     1       2.622   7.525  18.624  0.00  0.00    +0.000 A 
ATOM      8  C   UNL     1       2.012   6.798  19.642  0.00  0.00    +0.000 A 
ATOM      9  C   UNL     1       2.395   5.475  19.929  0.00  0.00    +0.000 A 
ATOM     10  C   UNL     1       3.403   4.864  19.171  0.00  0.00    +0.000 A 
ATOM     11  C   UNL     1       3.824   3.448  19.441  0.00  0.00    +0.000 C 
ATOM     12  C   UNL     1       3.201   2.702  20.614  0.00  0.00    +0.000 C 
ATOM     13  C   UNL     1       2.149   3.398  21.459  0.00  0.00    +0.000 C 
ATOM     14  C   UNL     1       1.709   4.804  21.077  0.00  0.00    +0.000 C 
ENDBRANCH   3   5
BRANCH   1  15
ATOM     15  C   UNL     1       7.425   4.729  16.705  0.00  0.00    +0.000 C 
BRANCH  15  16
ATOM     16  O   UNL     1       7.394   5.492  15.503  0.00  0.00    +0.000 OA
BRANCH  16  20
ATOM     17  C   UNL     1       5.723   3.466  12.264  0.00  0.00    +0.000 A 
ATOM     18  C   UNL     1       5.064   3.582  13.494  0.00  0.00    +0.000 A 
ATOM     19  C   UNL     1       5.664   4.269  14.549  0.00  0.00    +0.000 A 
ATOM     20  C   UNL     1       6.926   4.837  14.400  0.00  0.00    +0.000 A 
ATOM     21  C   UNL     1       7.583   4.741  13.172  0.00  0.00    +0.000 A 
ATOM     22  C   UNL     1       6.979   4.061  12.108  0.00  0.00    +0.000 A 
BRANCH  17  24
ATOM     23  C   UNL     1       3.633   3.188  10.901  0.00  0.00    +0.000 C 
ATOM     24  C   UNL     1       5.067   2.734  11.122  0.00  0.00    +0.000 C 
ENDBRANCH  17  24
ENDBRANCH  16  20
ENDBRANCH  15  16
ENDBRANCH   1  15
TORSDOF 5
ENDMDL
MODEL 5
REMARK VINA RESULT:      -7.8      0.885      1.053
REMARK  Name = 
REMARK  6 active torsions:
REMARK  status: ('A' for Active; 'I' for Inactive)
REMARK    1  A    between atoms: C_1  and  C_2
REMARK    2  A    between atoms: C_2  and  C_3
REMARK    3  A    between atoms: C_6  and  O_7
REMARK    4  A    between atoms: O_7  and  C_8
REMARK    5  A    between atoms: C_8  and  C_9
REMARK    6  A    between atoms: N_11  and  C_12
REMARK                            x       y       z     vdW  Elec       q    Type
REMARK                         _______ _______ _______ _____ _____    ______ ____
ROOT
ATOM      1  C   UNL     1       6.191   4.987  17.822  0.00  0.00    +0.000 C 
ATOM      2  O   UNL     1       6.456   4.543  18.938  0.00  0.00    +0.000 OA
ATOM      3  N   UNL     1       4.946   5.430  17.402  0.00  0.00    +0.000 N 
ATOM      4  H   UNL     1       4.801   5.413  16.399  0.00  0.00    +0.000 HD
ENDROOT
BRANCH   3   5
ATOM      5  C   UNL     1       3.825   5.520  18.256  0.00  0.00    +0.000 A 
ATOM      6  C   UNL     1       3.599   6.716  18.947  0.00  0.00    +0.000 A 
ATOM      7  C   UNL     1       2.519   6.842  19.808  0.00  0.00    +0.000 A 
ATOM      8  C   UNL     1       1.677   5.751  19.998  0.00  0.00    +0.000 A 
ATOM      9  C   UNL     1       1.879   4.541  19.307  0.00  0.00    +0.000 A 
ATOM     10  C   UNL     1       2.939   4.429  18.397  0.00  0.00    +0.000 A 
ATOM     11  C   UNL     1       3.171   3.158  17.632  0.00  0.00    +0.000 C 
ATOM     12  C   UNL     1       2.289   1.950  17.919  0.00  0.00    +0.000 C 
ATOM     13  C   UNL     1       1.178   2.073  18.947  0.00  0.00    +0.000 C 
ATOM     14  C   UNL     1       0.946   3.415  19.624  0.00  0.00    +0.000 C 
ENDBRANCH   3   5
BRANCH   1  15
ATOM     15  C   UNL     1       7.278   5.119  16.762  0.00  0.00    +0.000 C 
BRANCH  15  16
ATOM     16  O   UNL     1       6.775   5.782  15.606  0.00  0.00    +0.000 OA
BRANCH  16  20
ATOM     17  C   UNL     1       6.011   3.325  12.324  0.00  0.00    +0.000 A 
ATOM     18  C   UNL     1       5.146   3.396  13.423  0.00  0.00    +0.000 A 
ATOM     19  C   UNL     1       5.444   4.232  14.498  0.00  0.00    +0.000 A 
ATOM     20  C   UNL     1       6.608   4.997  14.501  0.00  0.00    +0.000 A 
ATOM     21  C   UNL     1       7.468   4.945  13.403  0.00  0.00    +0.000 A 
ATOM     22  C   UNL     1       7.165   4.115  12.317  0.00  0.00    +0.000 A 
BRANCH  17  24
ATOM     23  C   UNL     1       6.581   1.206  11.104  0.00  0.00    +0.000 C 
ATOM     24  C   UNL     1       5.680   2.430  11.158  0.00  0.00    +0.000 C 
ENDBRANCH  17  24
ENDBRANCH  16  20
ENDBRANCH  15  16
ENDBRANCH   1  15
TORSDOF 5
ENDMDL
MODEL 6
REMARK VINA RESULT:      -7.8      1.371      1.811
REMARK  Name = 
REMARK  6 active torsions:
REMARK  status: ('A' for Active; 'I' for Inactive)
REMARK    1  A    between atoms: C_1  and  C_2
REMARK    2  A    between atoms: C_2  and  C_3
REMARK    3  A    between atoms: C_6  and  O_7
REMARK    4  A    between atoms: O_7  and  C_8
REMARK    5  A    between atoms: C_8  and  C_9
REMARK    6  A    between atoms: N_11  and  C_12
REMARK                            x       y       z     vdW  Elec       q    Type
REMARK                         _______ _______ _______ _____ _____    ______ ____
ROOT
ATOM      1  C   UNL     1       6.492   5.153  18.426  0.00  0.00    +0.000 C 
ATOM      2  O   UNL     1       6.821   5.391  19.587  0.00  0.00    +0.000 OA
ATOM      3  N   UNL     1       5.192   5.109  17.946  0.00  0.00    +0.000 N 
ATOM      4  H   UNL     1       5.064   4.558  17.105  0.00  0.00    +0.000 HD
ENDROOT
BRANCH   3   5
ATOM      5  C   UNL     1       4.064   5.439  18.728  0.00  0.00    +0.000 A 
ATOM      6  C   UNL     1       3.524   6.726  18.622  0.00  0.00    +0.000 A 
ATOM      7  C   UNL     1       2.426   7.098  19.383  0.00  0.00    +0.000 A 
ATOM      8  C   UNL     1       1.884   6.179  20.277  0.00  0.00    +0.000 A 
ATOM      9  C   UNL     1       2.403   4.876  20.393  0.00  0.00    +0.000 A 
ATOM     10  C   UNL     1       3.479   4.482  19.587  0.00  0.00    +0.000 A 
ATOM     11  C   UNL     1       4.046   3.094  19.676  0.00  0.00    +0.000 C 
ATOM     12  C   UNL     1       3.492   2.134  20.720  0.00  0.00    +0.000 C 
ATOM     13  C   UNL     1       2.361   2.595  21.622  0.00  0.00    +0.000 C 
ATOM     14  C   UNL     1       1.778   3.986  21.421  0.00  0.00    +0.000 C 
ENDBRANCH   3   5
BRANCH   1  15
ATOM     15  C   UNL     1       7.549   4.899  17.358  0.00  0.00    +0.000 C 
BRANCH  15  16
ATOM     16  O   UNL     1       7.288   5.681  16.197  0.00  0.00    +0.000 OA
BRANCH  16  20
ATOM     17  C   UNL     1       5.992   3.654  12.790  0.00  0.00    +0.000 A 
ATOM     18  C   UNL     1       7.164   4.421  12.804  0.00  0.00    +0.000 A 
ATOM     19  C   UNL     1       7.557   5.082  13.968  0.00  0.00    +0.000 A 
ATOM     20  C   UNL     1       6.786   4.999  15.125  0.00  0.00    +0.000 A 
ATOM     21  C   UNL     1       5.626   4.224  15.125  0.00  0.00    +0.000 A 
ATOM     22  C   UNL     1       5.235   3.551  13.962  0.00  0.00    +0.000 A 
BRANCH  17  24
ATOM     23  C   UNL     1       4.106   3.146  11.213  0.00  0.00    +0.000 C 
ATOM     24  C   UNL     1       5.577   2.931  11.535  0.00  0.00    +0.000 C 
ENDBRANCH  17  24
ENDBRANCH  16  20
ENDBRANCH  15  16
ENDBRANCH   1  15
TORSDOF 5
ENDMDL
MODEL 7
REMARK VINA RESULT:      -7.8      4.953      7.533
REMARK  Name = 
REMARK  6 active torsions:
REMARK  status: ('A' for Active; 'I' for Inactive)
REMARK    1  A    between atoms: C_1  and  C_2
REMARK    2  A    between atoms: C_2  and  C_3
REMARK    3  A    between atoms: C_6  and  O_7
REMARK    4  A    between atoms: O_7  and  C_8
REMARK    5  A    between atoms: C_8  and  C_9
REMARK    6  A    between atoms: N_11  and  C_12
REMARK                            x       y       z     vdW  Elec       q    Type
REMARK                         _______ _______ _______ _____ _____    ______ ____
ROOT
ATOM      1  C   UNL     1       7.608   7.964  17.711  0.00  0.00    +0.000 C 
ATOM      2  O   UNL     1       8.201   7.206  18.477  0.00  0.00    +0.000 OA
ATOM      3  N   UNL     1       6.666   7.587  16.767  0.00  0.00    +0.000 N 
ATOM      4  H   UNL     1       6.550   8.232  15.994  0.00  0.00    +0.000 HD
ENDROOT
BRANCH   3   5
ATOM      5  C   UNL     1       6.185   6.266  16.635  0.00  0.00    +0.000 A 
ATOM      6  C   UNL     1       6.991   5.317  15.996  0.00  0.00    +0.000 A 
ATOM      7  C   UNL     1       6.552   4.012  15.830  0.00  0.00    +0.000 A 
ATOM      8  C   UNL     1       5.284   3.665  16.285  0.00  0.00    +0.000 A 
ATOM      9  C   UNL     1       4.460   4.599  16.940  0.00  0.00    +0.000 A 
ATOM     10  C   UNL     1       4.922   5.904  17.155  0.00  0.00    +0.000 A 
ATOM     11  C   UNL     1       4.074   6.920  17.865  0.00  0.00    +0.000 C 
ATOM     12  C   UNL     1       2.658   6.541  18.278  0.00  0.00    +0.000 C 
ATOM     13  C   UNL     1       2.153   5.139  17.991  0.00  0.00    +0.000 C 
ATOM     14  C   UNL     1       3.095   4.135  17.343  0.00  0.00    +0.000 C 
ENDBRANCH   3   5
BRANCH   1  15
ATOM     15  C   UNL     1       7.858   9.467  17.760  0.00  0.00    +0.000 C 
BRANCH  15  16
ATOM     16  O   UNL     1       9.009   9.759  18.547  0.00  0.00    +0.000 OA
BRANCH  16  20
ATOM     17  C   UNL     1      10.721  13.449  17.625  0.00  0.00    +0.000 A 
ATOM     18  C   UNL     1       9.334  13.250  17.639  0.00  0.00    +0.000 A 
ATOM     19  C   UNL     1       8.809  11.997  17.953  0.00  0.00    +0.000 A 
ATOM     20  C   UNL     1       9.651  10.926  18.244  0.00  0.00    +0.000 A 
ATOM     21  C   UNL     1      11.032  11.120  18.248  0.00  0.00    +0.000 A 
ATOM     22  C   UNL     1      11.563  12.379  17.944  0.00  0.00    +0.000 A 
BRANCH  17  24
ATOM     23  C   UNL     1      10.250  15.909  17.458  0.00  0.00    +0.000 C 
ATOM     24  C   UNL     1      11.286  14.807  17.298  0.00  0.00    +0.000 C 
ENDBRANCH  17  24
ENDBRANCH  16  20
ENDBRANCH  15  16
ENDBRANCH   1  15
TORSDOF 5
ENDMDL
MODEL 8
REMARK VINA RESULT:      -7.6      4.959      7.582
REMARK  Name = 
REMARK  6 active torsions:
REMARK  status: ('A' for Active; 'I' for Inactive)
REMARK    1  A    between atoms: C_1  and  C_2
REMARK    2  A    between atoms: C_2  and  C_3
REMARK    3  A    between atoms: C_6  and  O_7
REMARK    4  A    between atoms: O_7  and  C_8
REMARK    5  A    between atoms: C_8  and  C_9
REMARK    6  A    between atoms: N_11  and  C_12
REMARK                            x       y       z     vdW  Elec       q    Type
REMARK                         _______ _______ _______ _____ _____    ______ ____
ROOT
ATOM      1  C   UNL     1       7.546   7.931  17.677  0.00  0.00    +0.000 C 
ATOM      2  O   UNL     1       8.175   7.173  18.415  0.00  0.00    +0.000 OA
ATOM      3  N   UNL     1       6.593   7.547  16.747  0.00  0.00    +0.000 N 
ATOM      4  H   UNL     1       6.444   8.205  15.990  0.00  0.00    +0.000 HD
ENDROOT
BRANCH   3   5
ATOM      5  C   UNL     1       6.145   6.217  16.598  0.00  0.00    +0.000 A 
ATOM      6  C   UNL     1       6.971   5.297  15.941  0.00  0.00    +0.000 A 
ATOM      7  C   UNL     1       6.564   3.984  15.759  0.00  0.00    +0.000 A 
ATOM      8  C   UNL     1       5.306   3.600  16.215  0.00  0.00    +0.000 A 
ATOM      9  C   UNL     1       4.462   4.503  16.886  0.00  0.00    +0.000 A 
ATOM     10  C   UNL     1       4.893   5.816  17.117  0.00  0.00    +0.000 A 
ATOM     11  C   UNL     1       4.023   6.801  17.845  0.00  0.00    +0.000 C 
ATOM     12  C   UNL     1       2.619   6.382  18.259  0.00  0.00    +0.000 C 
ATOM     13  C   UNL     1       2.147   4.972  17.953  0.00  0.00    +0.000 C 
ATOM     14  C   UNL     1       3.111   4.000  17.287  0.00  0.00    +0.000 C 
ENDBRANCH   3   5
BRANCH   1  15
ATOM     15  C   UNL     1       7.757   9.438  17.752  0.00  0.00    +0.000 C 
BRANCH  15  16
ATOM     16  O   UNL     1       8.952   9.743  18.464  0.00  0.00    +0.000 OA
BRANCH  16  20
ATOM     17  C   UNL     1      10.899  13.334  17.623  0.00  0.00    +0.000 A 
ATOM     18  C   UNL     1      11.596  12.159  17.929  0.00  0.00    +0.000 A 
ATOM     19  C   UNL     1      10.901  10.982  18.204  0.00  0.00    +0.000 A 
ATOM     20  C   UNL     1       9.509  10.960  18.191  0.00  0.00    +0.000 A 
ATOM     21  C   UNL     1       8.806  12.122  17.871  0.00  0.00    +0.000 A 
ATOM     22  C   UNL     1       9.501  13.303  17.584  0.00  0.00    +0.000 A 
BRANCH  17  24
ATOM     23  C   UNL     1      11.079  15.801  18.052  0.00  0.00    +0.000 C 
ATOM     24  C   UNL     1      11.653  14.602  17.314  0.00  0.00    +0.000 C 
ENDBRANCH  17  24
ENDBRANCH  16  20
ENDBRANCH  15  16
ENDBRANCH   1  15
TORSDOF 5
ENDMDL
MODEL 9
REMARK VINA RESULT:      -7.6      2.737      5.301
REMARK  Name = 
REMARK  6 active torsions:
REMARK  status: ('A' for Active; 'I' for Inactive)
REMARK    1  A    between atoms: C_1  and  C_2
REMARK    2  A    between atoms: C_2  and  C_3
REMARK    3  A    between atoms: C_6  and  O_7
REMARK    4  A    between atoms: O_7  and  C_8
REMARK    5  A    between atoms: C_8  and  C_9
REMARK    6  A    between atoms: N_11  and  C_12
REMARK                            x       y       z     vdW  Elec       q    Type
REMARK                         _______ _______ _______ _____ _____    ______ ____
ROOT
ATOM      1  C   UNL     1       2.228   5.284  19.945  0.00  0.00    +0.000 C 
ATOM      2  O   UNL     1       1.270   4.960  19.244  0.00  0.00    +0.000 OA
ATOM      3  N   UNL     1       2.714   6.573  20.104  0.00  0.00    +0.000 N 
ATOM      4  H   UNL     1       3.684   6.632  20.393  0.00  0.00    +0.000 HD
ENDROOT
BRANCH   3   5
ATOM      5  C   UNL     1       2.094   7.711  19.545  0.00  0.00    +0.000 A 
ATOM      6  C   UNL     1       2.259   7.966  18.179  0.00  0.00    +0.000 A 
ATOM      7  C   UNL     1       1.681   9.082  17.593  0.00  0.00    +0.000 A 
ATOM      8  C   UNL     1       0.954   9.962  18.390  0.00  0.00    +0.000 A 
ATOM      9  C   UNL     1       0.766   9.721  19.763  0.00  0.00    +0.000 A 
ATOM     10  C   UNL     1       1.306   8.567  20.347  0.00  0.00    +0.000 A 
ATOM     11  C   UNL     1       1.109   8.273  21.806  0.00  0.00    +0.000 C 
ATOM     12  C   UNL     1       0.383   9.292  22.675  0.00  0.00    +0.000 C 
ATOM     13  C   UNL     1      -0.149  10.562  22.037  0.00  0.00    +0.000 C 
ATOM     14  C   UNL     1       0.012  10.757  20.537  0.00  0.00    +0.000 C 
ENDBRANCH   3   5
BRANCH   1  15
ATOM     15  C   UNL     1       2.980   4.240  20.761  0.00  0.00    +0.000 C 
BRANCH  15  16
ATOM     16  O   UNL     1       3.516   3.229  19.913  0.00  0.00    +0.000 OA
BRANCH  16  20
ATOM     17  C   UNL     1       5.932   4.481  16.753  0.00  0.00    +0.000 A 
ATOM     18  C   UNL     1       4.760   3.741  16.552  0.00  0.00    +0.000 A 
ATOM     19  C   UNL     1       3.984   3.344  17.641  0.00  0.00    +0.000 A 
ATOM     20  C   UNL     1       4.368   3.666  18.940  0.00  0.00    +0.000 A 
ATOM     21  C   UNL     1       5.526   4.416  19.149  0.00  0.00    +0.000 A 
ATOM     22  C   UNL     1       6.300   4.825  18.058  0.00  0.00    +0.000 A 
BRANCH  17  24
ATOM     23  C   UNL     1       6.415   4.142  14.313  0.00  0.00    +0.000 C 
ATOM     24  C   UNL     1       6.762   4.919  15.574  0.00  0.00    +0.000 C 
ENDBRANCH  17  24
ENDBRANCH  16  20
ENDBRANCH  15  16
ENDBRANCH   1  15
TORSDOF 5
ENDMDL
