MODEL 1
REMARK VINA RESULT:      -8.0      0.000      0.000
REMARK  Name = 
REMARK  9 active torsions:
REMARK  status: ('A' for Active; 'I' for Inactive)
REMARK    1  A    between atoms: C_1  and  C_2
REMARK    2  A    between atoms: C_2  and  O_3
REMARK    3  A    between atoms: O_3  and  C_4
REMARK    4  A    between atoms: C_4  and  C_6
REMARK    5  A    between atoms: N_10  and  C_11
REMARK    6  A    between atoms: C_14  and  N_15
REMARK    7  A    between atoms: C_17  and  C_18
REMARK    8  A    between atoms: C_18  and  N_19
REMARK    9  A    between atoms: C_20  and  C_22
REMARK                            x       y       z     vdW  Elec       q    Type
REMARK                         _______ _______ _______ _____ _____    ______ ____
ROOT
ATOM      1  N   UNL     1       0.950   9.728  19.586  0.00  0.00    +0.000 N 
ATOM      2  C   UNL     1       0.236  10.503  18.618  0.00  0.00    +0.000 C 
ATOM      3  C   UNL     1      -0.673  11.363  19.465  0.00  0.00    +0.000 C 
ATOM      4  O   UNL     1       0.001  11.430  20.730  0.00  0.00    +0.000 OA
ATOM      5  C   UNL     1       0.827  10.335  20.831  0.00  0.00    +0.000 C 
ATOM      6  O   UNL     1       1.360  10.037  21.885  0.00  0.00    +0.000 OA
ENDROOT
BRANCH   1  10
ATOM      7  C   UNL     1       3.420   6.391  18.473  0.00  0.00    +0.000 A 
ATOM      8  C   UNL     1       2.676   6.395  19.659  0.00  0.00    +0.000 A 
ATOM      9  C   UNL     1       1.863   7.481  20.036  0.00  0.00    +0.000 A 
ATOM     10  C   UNL     1       1.769   8.622  19.239  0.00  0.00    +0.000 A 
ATOM     11  C   UNL     1       2.518   8.634  18.058  0.00  0.00    +0.000 A 
ATOM     12  C   UNL     1       3.322   7.542  17.687  0.00  0.00    +0.000 A 
BRANCH   7  17
ATOM     13  C   UNL     1       3.195   3.060  17.627  0.00  0.00    +0.000 C 
ATOM     14  C   UNL     1       4.134   2.473  18.690  0.00  0.00    +0.000 C 
ATOM     15  C   UNL     1       4.759   3.493  19.645  0.00  0.00    +0.000 C 
ATOM     16  C   UNL     1       5.235   4.750  18.928  0.00  0.00    +0.000 C 
ATOM     17  N   UNL     1       4.163   5.287  18.093  0.00  0.00    +0.000 N 
ATOM     18  C   UNL     1       3.688   4.384  17.037  0.00  0.00    +0.000 C 
BRANCH  13  19
ATOM     19  C   UNL     1       1.722   3.193  17.945  0.00  0.00    +0.000 C 
ATOM     20  O   UNL     1       1.014   4.002  17.348  0.00  0.00    +0.000 OA
BRANCH  19  21
ATOM     21  O   UNL     1       1.277   2.393  18.949  0.00  0.00    +0.000 OA
BRANCH  21  23
ATOM     22  C   UNL     1       1.570   3.160  21.254  0.00  0.00    +0.000 C 
ATOM     23  C   UNL     1       0.656   3.101  20.041  0.00  0.00    +0.000 C 
ENDBRANCH  21  23
ENDBRANCH  19  21
ENDBRANCH  13  19
ENDBRANCH   7  17
ENDBRANCH   1  10
BRANCH   3  24
ATOM     24  C   UNL     1      -0.851  12.755  18.862  0.00  0.00    +0.000 C 
BRANCH  24  25
ATOM     25  N   UNL     1       0.389  13.498  18.758  0.00  0.00    +0.000 N 
ATOM     26  C   UNL     1       0.448  14.873  18.893  0.00  0.00    +0.000 C 
ATOM     27  O   UNL     1      -0.567  15.523  19.134  0.00  0.00    +0.000 OA
ATOM     28  H   UNL     1       1.258  12.989  18.638  0.00  0.00    +0.000 HD
BRANCH  26  29
ATOM     29  C   UNL     1       1.753  15.470  18.722  0.00  0.00    +0.000 A 
ATOM     30  C   UNL     1       2.039  16.758  18.319  0.00  0.00    +0.000 A 
ATOM     31  N   UNL     1       3.384  17.077  18.220  0.00  0.00    +0.000 NA
ATOM     32  C   UNL     1       4.107  16.033  18.535  0.00  0.00    +0.000 A 
ATOM     33  N   UNL     1       5.449  16.038  18.520  0.00  0.00    +0.000 N 
ATOM     34  S   UNL     1       3.227  14.633  18.990  0.00  0.00    +0.000 S 
ATOM     35  H   UNL     1       5.886  16.952  18.504  0.00  0.00    +0.000 HD
ATOM     36  H   UNL     1       5.941  15.346  19.072  0.00  0.00    +0.000 HD
ENDBRANCH  26  29
ENDBRANCH  24  25
ENDBRANCH   3  24
TORSDOF 8
ENDMDL
MODEL 2
REMARK VINA RESULT:      -8.0      3.385      4.875
REMARK  Name = 
REMARK  9 active torsions:
REMARK  status: ('A' for Active; 'I' for Inactive)
REMARK    1  A    between atoms: C_1  and  C_2
REMARK    2  A    between atoms: C_2  and  O_3
REMARK    3  A    between atoms: O_3  and  C_4
REMARK    4  A    between atoms: C_4  and  C_6
REMARK    5  A    between atoms: N_10  and  C_11
REMARK    6  A    between atoms: C_14  and  N_15
REMARK    7  A    between atoms: C_17  and  C_18
REMARK    8  A    between atoms: C_18  and  N_19
REMARK    9  A    between atoms: C_20  and  C_22
REMARK                            x       y       z     vdW  Elec       q    Type
REMARK                         _______ _______ _______ _____ _____    ______ ____
ROOT
ATOM      1  N   UNL     1       0.769  10.103  19.439  0.00  0.00    +0.000 N 
ATOM      2  C   UNL     1       1.211  11.193  20.255  0.00  0.00    +0.000 C 
ATOM      3  C   UNL     1       0.116  12.221  20.083  0.00  0.00    +0.000 C 
ATOM      4  O   UNL     1      -1.032  11.439  19.721  0.00  0.00    +0.000 OA
ATOM      5  C   UNL     1      -0.588  10.256  19.177  0.00  0.00    +0.000 C 
ATOM      6  O   UNL     1      -1.347   9.498  18.600  0.00  0.00    +0.000 OA
ENDROOT
BRANCH   1  10
ATOM      7  C   UNL     1       3.249   6.743  18.424  0.00  0.00    +0.000 A 
ATOM      8  C   UNL     1       2.554   6.808  19.638  0.00  0.00    +0.000 A 
ATOM      9  C   UNL     1       1.739   7.902  19.983  0.00  0.00    +0.000 A 
ATOM     10  C   UNL     1       1.592   8.991  19.124  0.00  0.00    +0.000 A 
ATOM     11  C   UNL     1       2.292   8.943  17.914  0.00  0.00    +0.000 A 
ATOM     12  C   UNL     1       3.098   7.842  17.575  0.00  0.00    +0.000 A 
BRANCH   7  17
ATOM     13  C   UNL     1       3.029   3.395  17.646  0.00  0.00    +0.000 C 
ATOM     14  C   UNL     1       3.948   2.829  18.735  0.00  0.00    +0.000 C 
ATOM     15  C   UNL     1       4.561   3.867  19.679  0.00  0.00    +0.000 C 
ATOM     16  C   UNL     1       5.052   5.108  18.943  0.00  0.00    +0.000 C 
ATOM     17  N   UNL     1       3.995   5.629  18.079  0.00  0.00    +0.000 N 
ATOM     18  C   UNL     1       3.534   4.706  17.036  0.00  0.00    +0.000 C 
BRANCH  13  19
ATOM     19  C   UNL     1       1.551   3.539  17.937  0.00  0.00    +0.000 C 
ATOM     20  O   UNL     1       0.840   4.283  17.264  0.00  0.00    +0.000 OA
BRANCH  19  21
ATOM     21  O   UNL     1       1.104   2.826  19.004  0.00  0.00    +0.000 OA
BRANCH  21  23
ATOM     22  C   UNL     1       1.348   2.884  21.437  0.00  0.00    +0.000 C 
ATOM     23  C   UNL     1       0.877   3.613  20.190  0.00  0.00    +0.000 C 
ENDBRANCH  21  23
ENDBRANCH  19  21
ENDBRANCH  13  19
ENDBRANCH   7  17
ENDBRANCH   1  10
BRANCH   3  24
ATOM     24  C   UNL     1      -0.132  12.998  21.374  0.00  0.00    +0.000 C 
BRANCH  24  25
ATOM     25  N   UNL     1      -1.536  13.103  21.720  0.00  0.00    +0.000 N 
ATOM     26  C   UNL     1      -2.127  12.310  22.687  0.00  0.00    +0.000 C 
ATOM     27  O   UNL     1      -1.463  11.488  23.315  0.00  0.00    +0.000 OA
ATOM     28  H   UNL     1      -2.097  13.824  21.280  0.00  0.00    +0.000 HD
BRANCH  26  29
ATOM     29  C   UNL     1      -3.545  12.507  22.887  0.00  0.00    +0.000 A 
ATOM     30  C   UNL     1      -4.522  12.609  21.918  0.00  0.00    +0.000 A 
ATOM     31  N   UNL     1      -5.812  12.813  22.379  0.00  0.00    +0.000 NA
ATOM     32  C   UNL     1      -5.807  12.877  23.685  0.00  0.00    +0.000 A 
ATOM     33  N   UNL     1      -6.915  13.079  24.415  0.00  0.00    +0.000 N 
ATOM     34  S   UNL     1      -4.276  12.670  24.431  0.00  0.00    +0.000 S 
ATOM     35  H   UNL     1      -7.794  12.926  23.933  0.00  0.00    +0.000 HD
ATOM     36  H   UNL     1      -6.913  12.794  25.387  0.00  0.00    +0.000 HD
ENDBRANCH  26  29
ENDBRANCH  24  25
ENDBRANCH   3  24
TORSDOF 8
ENDMDL
MODEL 3
REMARK VINA RESULT:      -7.9      3.430      5.255
REMARK  Name = 
REMARK  9 active torsions:
REMARK  status: ('A' for Active; 'I' for Inactive)
REMARK    1  A    between atoms: C_1  and  C_2
REMARK    2  A    between atoms: C_2  and  O_3
REMARK    3  A    between atoms: O_3  and  C_4
REMARK    4  A    between atoms: C_4  and  C_6
REMARK    5  A    between atoms: N_10  and  C_11
REMARK    6  A    between atoms: C_14  and  N_15
REMARK    7  A    between atoms: C_17  and  C_18
REMARK    8  A    between atoms: C_18  and  N_19
REMARK    9  A    between atoms: C_20  and  C_22
REMARK                            x       y       z     vdW  Elec       q    Type
REMARK                         _______ _______ _______ _____ _____    ______ ____
ROOT
ATOM      1  N   UNL     1       0.628  10.591  18.824  0.00  0.00    +0.000 N 
ATOM      2  C   UNL     1       1.142  11.789  19.416  0.00  0.00    +0.000 C 
ATOM      3  C   UNL     1       0.286  12.874  18.803  0.00  0.00    +0.000 C 
ATOM      4  O   UNL     1      -0.922  12.190  18.441  0.00  0.00    +0.000 OA
ATOM      5  C   UNL     1      -0.628  10.855  18.291  0.00  0.00    +0.000 C 
ATOM      6  O   UNL     1      -1.425  10.082  17.788  0.00  0.00    +0.000 OA
ENDROOT
BRANCH   1  10
ATOM      7  C   UNL     1       2.560   6.764  19.130  0.00  0.00    +0.000 A 
ATOM      8  C   UNL     1       2.003   7.402  20.246  0.00  0.00    +0.000 A 
ATOM      9  C   UNL     1       1.368   8.655  20.159  0.00  0.00    +0.000 A 
ATOM     10  C   UNL     1       1.272   9.333  18.944  0.00  0.00    +0.000 A 
ATOM     11  C   UNL     1       1.836   8.711  17.825  0.00  0.00    +0.000 A 
ATOM     12  C   UNL     1       2.462   7.456  17.920  0.00  0.00    +0.000 A 
BRANCH   7  17
ATOM     13  C   UNL     1       5.070   4.751  17.901  0.00  0.00    +0.000 C 
ATOM     14  C   UNL     1       4.218   3.584  17.385  0.00  0.00    +0.000 C 
ATOM     15  C   UNL     1       2.708   3.737  17.587  0.00  0.00    +0.000 C 
ATOM     16  C   UNL     1       2.356   4.290  18.962  0.00  0.00    +0.000 C 
ATOM     17  N   UNL     1       3.124   5.504  19.226  0.00  0.00    +0.000 N 
ATOM     18  C   UNL     1       4.581   5.327  19.232  0.00  0.00    +0.000 C 
BRANCH  13  19
ATOM     19  C   UNL     1       5.381   5.900  16.965  0.00  0.00    +0.000 C 
ATOM     20  O   UNL     1       5.720   6.999  17.400  0.00  0.00    +0.000 OA
BRANCH  19  21
ATOM     21  O   UNL     1       5.215   5.625  15.645  0.00  0.00    +0.000 OA
BRANCH  21  23
ATOM     22  C   UNL     1       6.018   3.996  14.007  0.00  0.00    +0.000 C 
ATOM     23  C   UNL     1       6.385   5.086  15.000  0.00  0.00    +0.000 C 
ENDBRANCH  21  23
ENDBRANCH  19  21
ENDBRANCH  13  19
ENDBRANCH   7  17
ENDBRANCH   1  10
BRANCH   3  24
ATOM     24  C   UNL     1       0.005  13.997  19.800  0.00  0.00    +0.000 C 
BRANCH  24  25
ATOM     25  N   UNL     1      -1.186  13.774  20.596  0.00  0.00    +0.000 N 
ATOM     26  C   UNL     1      -1.144  13.218  21.861  0.00  0.00    +0.000 C 
ATOM     27  O   UNL     1      -0.070  12.909  22.374  0.00  0.00    +0.000 OA
ATOM     28  H   UNL     1      -2.081  14.089  20.238  0.00  0.00    +0.000 HD
BRANCH  26  29
ATOM     29  C   UNL     1      -2.421  13.023  22.509  0.00  0.00    +0.000 A 
ATOM     30  C   UNL     1      -2.746  12.065  23.447  0.00  0.00    +0.000 A 
ATOM     31  N   UNL     1      -4.055  12.085  23.903  0.00  0.00    +0.000 NA
ATOM     32  C   UNL     1      -4.714  13.043  23.304  0.00  0.00    +0.000 A 
ATOM     33  N   UNL     1      -6.011  13.298  23.535  0.00  0.00    +0.000 N 
ATOM     34  S   UNL     1      -3.806  13.983  22.192  0.00  0.00    +0.000 S 
ATOM     35  H   UNL     1      -6.397  12.887  24.378  0.00  0.00    +0.000 HD
ATOM     36  H   UNL     1      -6.370  14.218  23.313  0.00  0.00    +0.000 HD
ENDBRANCH  26  29
ENDBRANCH  24  25
ENDBRANCH   3  24
TORSDOF 8
ENDMDL
MODEL 4
REMARK VINA RESULT:      -7.9      1.357      1.588
REMARK  Name = 
REMARK  9 active torsions:
REMARK  status: ('A' for Active; 'I' for Inactive)
REMARK    1  A    between atoms: C_1  and  C_2
REMARK    2  A    between atoms: C_2  and  O_3
REMARK    3  A    between atoms: O_3  and  C_4
REMARK    4  A    between atoms: C_4  and  C_6
REMARK    5  A    between atoms: N_10  and  C_11
REMARK    6  A    between atoms: C_14  and  N_15
REMARK    7  A    between atoms: C_17  and  C_18
REMARK    8  A    between atoms: C_18  and  N_19
REMARK    9  A    between atoms: C_20  and  C_22
REMARK                            x       y       z     vdW  Elec       q    Type
REMARK                         _______ _______ _______ _____ _____    ______ ____
ROOT
ATOM      1  N   UNL     1       1.043   9.549  20.320  0.00  0.00    +0.000 N 
ATOM      2  C   UNL     1       0.441  10.598  19.554  0.00  0.00    +0.000 C 
ATOM      3  C   UNL     1      -0.348  11.372  20.585  0.00  0.00    +0.000 C 
ATOM      4  O   UNL     1       0.326  11.083  21.818  0.00  0.00    +0.000 OA
ATOM      5  C   UNL     1       0.999   9.892  21.667  0.00  0.00    +0.000 C 
ATOM      6  O   UNL     1       1.484   9.313  22.622  0.00  0.00    +0.000 OA
ENDROOT
BRANCH   1  10
ATOM      7  C   UNL     1       3.076   6.183  18.587  0.00  0.00    +0.000 A 
ATOM      8  C   UNL     1       2.925   7.391  17.895  0.00  0.00    +0.000 A 
ATOM      9  C   UNL     1       2.262   8.501  18.451  0.00  0.00    +0.000 A 
ATOM     10  C   UNL     1       1.707   8.444  19.729  0.00  0.00    +0.000 A 
ATOM     11  C   UNL     1       1.841   7.238  20.425  0.00  0.00    +0.000 A 
ATOM     12  C   UNL     1       2.511   6.137  19.864  0.00  0.00    +0.000 A 
BRANCH   7  17
ATOM     13  C   UNL     1       2.879   2.844  17.767  0.00  0.00    +0.000 C 
ATOM     14  C   UNL     1       4.054   2.317  18.601  0.00  0.00    +0.000 C 
ATOM     15  C   UNL     1       4.804   3.373  19.415  0.00  0.00    +0.000 C 
ATOM     16  C   UNL     1       5.041   4.657  18.629  0.00  0.00    +0.000 C 
ATOM     17  N   UNL     1       3.787   5.126  18.045  0.00  0.00    +0.000 N 
ATOM     18  C   UNL     1       3.155   4.195  17.102  0.00  0.00    +0.000 C 
BRANCH  13  19
ATOM     19  C   UNL     1       1.500   2.886  18.390  0.00  0.00    +0.000 C 
ATOM     20  O   UNL     1       0.600   3.561  17.894  0.00  0.00    +0.000 OA
BRANCH  19  21
ATOM     21  O   UNL     1       1.365   2.167  19.535  0.00  0.00    +0.000 OA
BRANCH  21  23
ATOM     22  C   UNL     1       2.035   2.938  21.757  0.00  0.00    +0.000 C 
ATOM     23  C   UNL     1       0.964   2.945  20.679  0.00  0.00    +0.000 C 
ENDBRANCH  21  23
ENDBRANCH  19  21
ENDBRANCH  13  19
ENDBRANCH   7  17
ENDBRANCH   1  10
BRANCH   3  24
ATOM     24  C   UNL     1      -0.337  12.871  20.289  0.00  0.00    +0.000 C 
BRANCH  24  25
ATOM     25  N   UNL     1       0.907  13.331  19.703  0.00  0.00    +0.000 N 
ATOM     26  C   UNL     1       1.925  13.888  20.456  0.00  0.00    +0.000 C 
ATOM     27  O   UNL     1       1.817  13.993  21.676  0.00  0.00    +0.000 OA
ATOM     28  H   UNL     1       1.064  13.189  18.712  0.00  0.00    +0.000 HD
BRANCH  26  29
ATOM     29  C   UNL     1       3.085  14.335  19.719  0.00  0.00    +0.000 A 
ATOM     30  C   UNL     1       3.333  14.176  18.371  0.00  0.00    +0.000 A 
ATOM     31  N   UNL     1       4.537  14.688  17.913  0.00  0.00    +0.000 NA
ATOM     32  C   UNL     1       5.196  15.219  18.910  0.00  0.00    +0.000 A 
ATOM     33  N   UNL     1       6.405  15.785  18.773  0.00  0.00    +0.000 N 
ATOM     34  S   UNL     1       4.408  15.160  20.434  0.00  0.00    +0.000 S 
ATOM     35  H   UNL     1       6.677  16.017  17.825  0.00  0.00    +0.000 HD
ATOM     36  H   UNL     1       6.709  16.452  19.473  0.00  0.00    +0.000 HD
ENDBRANCH  26  29
ENDBRANCH  24  25
ENDBRANCH   3  24
TORSDOF 8
ENDMDL
MODEL 5
REMARK VINA RESULT:      -7.9      3.696      5.318
REMARK  Name = 
REMARK  9 active torsions:
REMARK  status: ('A' for Active; 'I' for Inactive)
REMARK    1  A    between atoms: C_1  and  C_2
REMARK    2  A    between atoms: C_2  and  O_3
REMARK    3  A    between atoms: O_3  and  C_4
REMARK    4  A    between atoms: C_4  and  C_6
REMARK    5  A    between atoms: N_10  and  C_11
REMARK    6  A    between atoms: C_14  and  N_15
REMARK    7  A    between atoms: C_17  and  C_18
REMARK    8  A    between atoms: C_18  and  N_19
REMARK    9  A    between atoms: C_20  and  C_22
REMARK                            x       y       z     vdW  Elec       q    Type
REMARK                         _______ _______ _______ _____ _____    ______ ____
ROOT
ATOM      1  N   UNL     1       0.674  10.503  19.047  0.00  0.00    +0.000 N 
ATOM      2  C   UNL     1       1.276  11.679  19.599  0.00  0.00    +0.000 C 
ATOM      3  C   UNL     1       0.334  12.782  19.174  0.00  0.00    +0.000 C 
ATOM      4  O   UNL     1      -0.917  12.107  18.980  0.00  0.00    +0.000 OA
ATOM      5  C   UNL     1      -0.650  10.780  18.731  0.00  0.00    +0.000 C 
ATOM      6  O   UNL     1      -1.517  10.024  18.329  0.00  0.00    +0.000 OA
ENDROOT
BRANCH   1  10
ATOM      7  C   UNL     1       2.673   6.698  19.001  0.00  0.00    +0.000 A 
ATOM      8  C   UNL     1       2.585   7.501  17.856  0.00  0.00    +0.000 A 
ATOM      9  C   UNL     1       1.934   8.748  17.858  0.00  0.00    +0.000 A 
ATOM     10  C   UNL     1       1.329   9.245  19.012  0.00  0.00    +0.000 A 
ATOM     11  C   UNL     1       1.399   8.446  20.159  0.00  0.00    +0.000 A 
ATOM     12  C   UNL     1       2.058   7.205  20.149  0.00  0.00    +0.000 A 
BRANCH   7  17
ATOM     13  C   UNL     1       5.400   5.096  17.638  0.00  0.00    +0.000 C 
ATOM     14  C   UNL     1       4.686   3.896  17.003  0.00  0.00    +0.000 C 
ATOM     15  C   UNL     1       3.168   3.862  17.191  0.00  0.00    +0.000 C 
ATOM     16  C   UNL     1       2.745   4.243  18.605  0.00  0.00    +0.000 C 
ATOM     17  N   UNL     1       3.372   5.504  18.993  0.00  0.00    +0.000 N 
ATOM     18  C   UNL     1       4.840   5.489  19.008  0.00  0.00    +0.000 C 
BRANCH  13  19
ATOM     19  C   UNL     1       5.588   6.354  16.817  0.00  0.00    +0.000 C 
ATOM     20  O   UNL     1       5.300   6.381  15.622  0.00  0.00    +0.000 OA
BRANCH  19  21
ATOM     21  O   UNL     1       6.128   7.403  17.491  0.00  0.00    +0.000 OA
BRANCH  21  23
ATOM     22  C   UNL     1       8.102   8.797  17.870  0.00  0.00    +0.000 C 
ATOM     23  C   UNL     1       7.570   7.423  17.498  0.00  0.00    +0.000 C 
ENDBRANCH  21  23
ENDBRANCH  19  21
ENDBRANCH  13  19
ENDBRANCH   7  17
ENDBRANCH   1  10
BRANCH   3  24
ATOM     24  C   UNL     1       0.215  13.863  20.248  0.00  0.00    +0.000 C 
BRANCH  24  25
ATOM     25  N   UNL     1      -0.772  13.556  21.264  0.00  0.00    +0.000 N 
ATOM     26  C   UNL     1      -1.505  14.534  21.911  0.00  0.00    +0.000 C 
ATOM     27  O   UNL     1      -1.357  15.720  21.624  0.00  0.00    +0.000 OA
ATOM     28  H   UNL     1      -0.978  12.585  21.471  0.00  0.00    +0.000 HD
BRANCH  26  29
ATOM     29  C   UNL     1      -2.421  14.070  22.928  0.00  0.00    +0.000 A 
ATOM     30  C   UNL     1      -2.708  14.673  24.135  0.00  0.00    +0.000 A 
ATOM     31  N   UNL     1      -3.618  14.009  24.942  0.00  0.00    +0.000 NA
ATOM     32  C   UNL     1      -4.005  12.907  24.353  0.00  0.00    +0.000 A 
ATOM     33  N   UNL     1      -4.879  12.049  24.900  0.00  0.00    +0.000 N 
ATOM     34  S   UNL     1      -3.329  12.620  22.802  0.00  0.00    +0.000 S 
ATOM     35  H   UNL     1      -5.425  12.410  25.675  0.00  0.00    +0.000 HD
ATOM     36  H   UNL     1      -5.383  11.416  24.291  0.00  0.00    +0.000 HD
ENDBRANCH  26  29
ENDBRANCH  24  25
ENDBRANCH   3  24
TORSDOF 8
ENDMDL
MODEL 6
REMARK VINA RESULT:      -7.9      3.602      5.222
REMARK  Name = 
REMARK  9 active torsions:
REMARK  status: ('A' for Active; 'I' for Inactive)
REMARK    1  A    between atoms: C_1  and  C_2
REMARK    2  A    between atoms: C_2  and  O_3
REMARK    3  A    between atoms: O_3  and  C_4
REMARK    4  A    between atoms: C_4  and  C_6
REMARK    5  A    between atoms: N_10  and  C_11
REMARK    6  A    between atoms: C_14  and  N_15
REMARK    7  A    between atoms: C_17  and  C_18
REMARK    8  A    between atoms: C_18  and  N_19
REMARK    9  A    between atoms: C_20  and  C_22
REMARK                            x       y       z     vdW  Elec       q    Type
REMARK                         _______ _______ _______ _____ _____    ______ ____
ROOT
ATOM      1  N   UNL     1       0.646  10.625  19.040  0.00  0.00    +0.000 N 
ATOM      2  C   UNL     1       1.185  11.794  19.666  0.00  0.00    +0.000 C 
ATOM      3  C   UNL     1       0.322  12.908  19.121  0.00  0.00    +0.000 C 
ATOM      4  O   UNL     1      -0.902  12.249  18.765  0.00  0.00    +0.000 OA
ATOM      5  C   UNL     1      -0.623  10.918  18.553  0.00  0.00    +0.000 C 
ATOM      6  O   UNL     1      -1.439  10.173  18.041  0.00  0.00    +0.000 OA
ENDROOT
BRANCH   1  10
ATOM      7  C   UNL     1       2.556   6.776  19.134  0.00  0.00    +0.000 A 
ATOM      8  C   UNL     1       2.003   7.354  20.284  0.00  0.00    +0.000 A 
ATOM      9  C   UNL     1       1.375   8.614  20.266  0.00  0.00    +0.000 A 
ATOM     10  C   UNL     1       1.282   9.358  19.091  0.00  0.00    +0.000 A 
ATOM     11  C   UNL     1       1.843   8.795  17.939  0.00  0.00    +0.000 A 
ATOM     12  C   UNL     1       2.462   7.534  17.964  0.00  0.00    +0.000 A 
BRANCH   7  17
ATOM     13  C   UNL     1       5.069   4.826  17.813  0.00  0.00    +0.000 C 
ATOM     14  C   UNL     1       4.217   3.696  17.221  0.00  0.00    +0.000 C 
ATOM     15  C   UNL     1       2.707   3.845  17.415  0.00  0.00    +0.000 C 
ATOM     16  C   UNL     1       2.342   4.317  18.817  0.00  0.00    +0.000 C 
ATOM     17  N   UNL     1       3.113   5.509  19.162  0.00  0.00    +0.000 N 
ATOM     18  C   UNL     1       4.569   5.324  19.172  0.00  0.00    +0.000 C 
BRANCH  13  19
ATOM     19  C   UNL     1       5.396   6.026  16.951  0.00  0.00    +0.000 C 
ATOM     20  O   UNL     1       5.135   6.034  15.750  0.00  0.00    +0.000 OA
BRANCH  19  21
ATOM     21  O   UNL     1       6.023   7.044  17.598  0.00  0.00    +0.000 OA
BRANCH  21  23
ATOM     22  C   UNL     1       7.972   8.500  17.848  0.00  0.00    +0.000 C 
ATOM     23  C   UNL     1       7.359   7.311  17.127  0.00  0.00    +0.000 C 
ENDBRANCH  21  23
ENDBRANCH  19  21
ENDBRANCH  13  19
ENDBRANCH   7  17
ENDBRANCH   1  10
BRANCH   3  24
ATOM     24  C   UNL     1       0.078  13.992  20.170  0.00  0.00    +0.000 C 
BRANCH  24  25
ATOM     25  N   UNL     1      -0.994  13.668  21.092  0.00  0.00    +0.000 N 
ATOM     26  C   UNL     1      -1.985  14.571  21.430  0.00  0.00    +0.000 C 
ATOM     27  O   UNL     1      -2.004  15.695  20.933  0.00  0.00    +0.000 OA
ATOM     28  H   UNL     1      -1.056  12.725  21.460  0.00  0.00    +0.000 HD
BRANCH  26  29
ATOM     29  C   UNL     1      -2.959  14.110  22.393  0.00  0.00    +0.000 A 
ATOM     30  C   UNL     1      -4.058  14.796  22.868  0.00  0.00    +0.000 A 
ATOM     31  N   UNL     1      -4.830  14.129  23.805  0.00  0.00    +0.000 NA
ATOM     32  C   UNL     1      -4.310  12.953  24.045  0.00  0.00    +0.000 A 
ATOM     33  N   UNL     1      -4.835  12.082  24.920  0.00  0.00    +0.000 N 
ATOM     34  S   UNL     1      -2.896  12.571  23.149  0.00  0.00    +0.000 S 
ATOM     35  H   UNL     1      -5.792  12.263  25.201  0.00  0.00    +0.000 HD
ATOM     36  H   UNL     1      -4.604  11.101  24.824  0.00  0.00    +0.000 HD
ENDBRANCH  26  29
ENDBRANCH  24  25
ENDBRANCH   3  24
TORSDOF 8
ENDMDL
MODEL 7
REMARK VINA RESULT:      -7.8      2.720      3.889
REMARK  Name = 
REMARK  9 active torsions:
REMARK  status: ('A' for Active; 'I' for Inactive)
REMARK    1  A    between atoms: C_1  and  C_2
REMARK    2  A    between atoms: C_2  and  O_3
REMARK    3  A    between atoms: O_3  and  C_4
REMARK    4  A    between atoms: C_4  and  C_6
REMARK    5  A    between atoms: N_10  and  C_11
REMARK    6  A    between atoms: C_14  and  N_15
REMARK    7  A    between atoms: C_17  and  C_18
REMARK    8  A    between atoms: C_18  and  N_19
REMARK    9  A    between atoms: C_20  and  C_22
REMARK                            x       y       z     vdW  Elec       q    Type
REMARK                         _______ _______ _______ _____ _____    ______ ____
ROOT
ATOM      1  N   UNL     1       1.113   8.979  19.323  0.00  0.00    +0.000 N 
ATOM      2  C   UNL     1       0.636   9.884  18.322  0.00  0.00    +0.000 C 
ATOM      3  C   UNL     1      -0.517  10.581  19.007  0.00  0.00    +0.000 C 
ATOM      4  O   UNL     1      -0.208  10.460  20.403  0.00  0.00    +0.000 OA
ATOM      5  C   UNL     1       0.628   9.379  20.563  0.00  0.00    +0.000 C 
ATOM      6  O   UNL     1       0.879   8.929  21.667  0.00  0.00    +0.000 OA
ENDROOT
BRANCH   1  10
ATOM      7  C   UNL     1       3.995   5.881  18.567  0.00  0.00    +0.000 A 
ATOM      8  C   UNL     1       3.795   6.939  17.670  0.00  0.00    +0.000 A 
ATOM      9  C   UNL     1       2.855   7.959  17.906  0.00  0.00    +0.000 A 
ATOM     10  C   UNL     1       2.061   7.959  19.053  0.00  0.00    +0.000 A 
ATOM     11  C   UNL     1       2.243   6.900  19.949  0.00  0.00    +0.000 A 
ATOM     12  C   UNL     1       3.190   5.889  19.708  0.00  0.00    +0.000 A 
BRANCH   7  17
ATOM     13  C   UNL     1       7.290   5.437  17.668  0.00  0.00    +0.000 C 
ATOM     14  C   UNL     1       7.090   4.538  16.442  0.00  0.00    +0.000 C 
ATOM     15  C   UNL     1       5.635   4.206  16.103  0.00  0.00    +0.000 C 
ATOM     16  C   UNL     1       4.808   3.875  17.339  0.00  0.00    +0.000 C 
ATOM     17  N   UNL     1       4.969   4.922  18.345  0.00  0.00    +0.000 N 
ATOM     18  C   UNL     1       6.341   5.116  18.826  0.00  0.00    +0.000 C 
BRANCH  13  19
ATOM     19  C   UNL     1       7.324   6.938  17.477  0.00  0.00    +0.000 C 
ATOM     20  O   UNL     1       6.678   7.479  16.581  0.00  0.00    +0.000 OA
BRANCH  19  21
ATOM     21  O   UNL     1       8.141   7.607  18.331  0.00  0.00    +0.000 OA
BRANCH  21  23
ATOM     22  C   UNL     1       9.093   9.722  19.107  0.00  0.00    +0.000 C 
ATOM     23  C   UNL     1       8.298   9.007  18.028  0.00  0.00    +0.000 C 
ENDBRANCH  21  23
ENDBRANCH  19  21
ENDBRANCH  13  19
ENDBRANCH   7  17
ENDBRANCH   1  10
BRANCH   3  24
ATOM     24  C   UNL     1      -0.614  12.047  18.589  0.00  0.00    +0.000 C 
BRANCH  24  25
ATOM     25  N   UNL     1       0.678  12.692  18.456  0.00  0.00    +0.000 N 
ATOM     26  C   UNL     1       1.228  13.473  19.456  0.00  0.00    +0.000 C 
ATOM     27  O   UNL     1       0.639  13.631  20.523  0.00  0.00    +0.000 OA
ATOM     28  H   UNL     1       1.228  12.521  17.622  0.00  0.00    +0.000 HD
BRANCH  26  29
ATOM     29  C   UNL     1       2.504  14.080  19.154  0.00  0.00    +0.000 A 
ATOM     30  C   UNL     1       3.029  14.352  17.908  0.00  0.00    +0.000 A 
ATOM     31  N   UNL     1       4.288  14.929  17.894  0.00  0.00    +0.000 NA
ATOM     32  C   UNL     1       4.716  15.080  19.121  0.00  0.00    +0.000 A 
ATOM     33  N   UNL     1       5.913  15.605  19.422  0.00  0.00    +0.000 N 
ATOM     34  S   UNL     1       3.633  14.570  20.350  0.00  0.00    +0.000 S 
ATOM     35  H   UNL     1       6.370  16.117  18.676  0.00  0.00    +0.000 HD
ATOM     36  H   UNL     1       6.051  15.996  20.346  0.00  0.00    +0.000 HD
ENDBRANCH  26  29
ENDBRANCH  24  25
ENDBRANCH   3  24
TORSDOF 8
ENDMDL
MODEL 8
REMARK VINA RESULT:      -7.8      3.592      5.491
REMARK  Name = 
REMARK  9 active torsions:
REMARK  status: ('A' for Active; 'I' for Inactive)
REMARK    1  A    between atoms: C_1  and  C_2
REMARK    2  A    between atoms: C_2  and  O_3
REMARK    3  A    between atoms: O_3  and  C_4
REMARK    4  A    between atoms: C_4  and  C_6
REMARK    5  A    between atoms: N_10  and  C_11
REMARK    6  A    between atoms: C_14  and  N_15
REMARK    7  A    between atoms: C_17  and  C_18
REMARK    8  A    between atoms: C_18  and  N_19
REMARK    9  A    between atoms: C_20  and  C_22
REMARK                            x       y       z     vdW  Elec       q    Type
REMARK                         _______ _______ _______ _____ _____    ______ ____
ROOT
ATOM      1  N   UNL     1       0.868  10.301  19.572  0.00  0.00    +0.000 N 
ATOM      2  C   UNL     1       1.371  11.282  20.486  0.00  0.00    +0.000 C 
ATOM      3  C   UNL     1       0.700  12.557  20.030  0.00  0.00    +0.000 C 
ATOM      4  O   UNL     1      -0.485  12.100  19.362  0.00  0.00    +0.000 OA
ATOM      5  C   UNL     1      -0.269  10.805  18.950  0.00  0.00    +0.000 C 
ATOM      6  O   UNL     1      -1.032  10.248  18.182  0.00  0.00    +0.000 OA
ENDROOT
BRANCH   1  10
ATOM      7  C   UNL     1       2.475   6.320  19.367  0.00  0.00    +0.000 A 
ATOM      8  C   UNL     1       2.438   7.160  18.247  0.00  0.00    +0.000 A 
ATOM      9  C   UNL     1       1.915   8.466  18.300  0.00  0.00    +0.000 A 
ATOM     10  C   UNL     1       1.393   8.986  19.484  0.00  0.00    +0.000 A 
ATOM     11  C   UNL     1       1.413   8.151  20.607  0.00  0.00    +0.000 A 
ATOM     12  C   UNL     1       1.944   6.851  20.545  0.00  0.00    +0.000 A 
BRANCH   7  17
ATOM     13  C   UNL     1       4.991   4.497  17.881  0.00  0.00    +0.000 C 
ATOM     14  C   UNL     1       4.145   3.391  17.237  0.00  0.00    +0.000 C 
ATOM     15  C   UNL     1       2.636   3.503  17.469  0.00  0.00    +0.000 C 
ATOM     16  C   UNL     1       2.292   3.883  18.904  0.00  0.00    +0.000 C 
ATOM     17  N   UNL     1       3.052   5.064  19.306  0.00  0.00    +0.000 N 
ATOM     18  C   UNL     1       4.511   4.903  19.277  0.00  0.00    +0.000 C 
BRANCH  13  19
ATOM     19  C   UNL     1       5.281   5.752  17.088  0.00  0.00    +0.000 C 
ATOM     20  O   UNL     1       5.686   6.773  17.641  0.00  0.00    +0.000 OA
BRANCH  19  21
ATOM     21  O   UNL     1       5.020   5.664  15.757  0.00  0.00    +0.000 OA
BRANCH  21  23
ATOM     22  C   UNL     1       5.962   4.126  14.104  0.00  0.00    +0.000 C 
ATOM     23  C   UNL     1       6.175   5.374  14.945  0.00  0.00    +0.000 C 
ENDBRANCH  21  23
ENDBRANCH  19  21
ENDBRANCH  13  19
ENDBRANCH   7  17
ENDBRANCH   1  10
BRANCH   3  24
ATOM     24  C   UNL     1       0.352  13.461  21.211  0.00  0.00    +0.000 C 
BRANCH  24  25
ATOM     25  N   UNL     1      -1.054  13.431  21.562  0.00  0.00    +0.000 N 
ATOM     26  C   UNL     1      -1.548  12.661  22.599  0.00  0.00    +0.000 C 
ATOM     27  O   UNL     1      -0.792  11.979  23.287  0.00  0.00    +0.000 OA
ATOM     28  H   UNL     1      -1.696  14.041  21.068  0.00  0.00    +0.000 HD
BRANCH  26  29
ATOM     29  C   UNL     1      -2.979  12.708  22.796  0.00  0.00    +0.000 A 
ATOM     30  C   UNL     1      -3.960  12.658  21.828  0.00  0.00    +0.000 A 
ATOM     31  N   UNL     1      -5.266  12.737  22.285  0.00  0.00    +0.000 NA
ATOM     32  C   UNL     1      -5.269  12.859  23.587  0.00  0.00    +0.000 A 
ATOM     33  N   UNL     1      -6.393  12.969  24.313  0.00  0.00    +0.000 N 
ATOM     34  S   UNL     1      -3.724  12.857  24.335  0.00  0.00    +0.000 S 
ATOM     35  H   UNL     1      -7.248  12.698  23.842  0.00  0.00    +0.000 HD
ATOM     36  H   UNL     1      -6.359  12.729  25.296  0.00  0.00    +0.000 HD
ENDBRANCH  26  29
ENDBRANCH  24  25
ENDBRANCH   3  24
TORSDOF 8
ENDMDL
MODEL 9
REMARK VINA RESULT:      -7.8      1.340      1.349
REMARK  Name = 
REMARK  9 active torsions:
REMARK  status: ('A' for Active; 'I' for Inactive)
REMARK    1  A    between atoms: C_1  and  C_2
REMARK    2  A    between atoms: C_2  and  O_3
REMARK    3  A    between atoms: O_3  and  C_4
REMARK    4  A    between atoms: C_4  and  C_6
REMARK    5  A    between atoms: N_10  and  C_11
REMARK    6  A    between atoms: C_14  and  N_15
REMARK    7  A    between atoms: C_17  and  C_18
REMARK    8  A    between atoms: C_18  and  N_19
REMARK    9  A    between atoms: C_20  and  C_22
REMARK                            x       y       z     vdW  Elec       q    Type
REMARK                         _______ _______ _______ _____ _____    ______ ____
ROOT
ATOM      1  N   UNL     1       0.741   9.624  19.787  0.00  0.00    +0.000 N 
ATOM      2  C   UNL     1       0.708  10.886  19.112  0.00  0.00    +0.000 C 
ATOM      3  C   UNL     1      -0.512  11.560  19.696  0.00  0.00    +0.000 C 
ATOM      4  O   UNL     1      -0.671  10.929  20.974  0.00  0.00    +0.000 OA
ATOM      5  C   UNL     1      -0.058   9.699  20.922  0.00  0.00    +0.000 C 
ATOM      6  O   UNL     1      -0.218   8.872  21.802  0.00  0.00    +0.000 OA
ENDROOT
BRANCH   1  10
ATOM      7  C   UNL     1       3.332   6.422  18.557  0.00  0.00    +0.000 A 
ATOM      8  C   UNL     1       2.666   6.402  19.790  0.00  0.00    +0.000 A 
ATOM      9  C   UNL     1       1.815   7.444  20.204  0.00  0.00    +0.000 A 
ATOM     10  C   UNL     1       1.601   8.564  19.401  0.00  0.00    +0.000 A 
ATOM     11  C   UNL     1       2.271   8.600  18.173  0.00  0.00    +0.000 A 
ATOM     12  C   UNL     1       3.113   7.552  17.765  0.00  0.00    +0.000 A 
BRANCH   7  17
ATOM     13  C   UNL     1       3.225   3.118  17.593  0.00  0.00    +0.000 C 
ATOM     14  C   UNL     1       4.176   2.526  18.641  0.00  0.00    +0.000 C 
ATOM     15  C   UNL     1       4.761   3.531  19.636  0.00  0.00    +0.000 C 
ATOM     16  C   UNL     1       5.198   4.829  18.967  0.00  0.00    +0.000 C 
ATOM     17  N   UNL     1       4.114   5.358  18.144  0.00  0.00    +0.000 N 
ATOM     18  C   UNL     1       3.675   4.478  17.054  0.00  0.00    +0.000 C 
BRANCH  13  19
ATOM     19  C   UNL     1       1.746   3.190  17.905  0.00  0.00    +0.000 C 
ATOM     20  O   UNL     1       1.004   3.952  17.289  0.00  0.00    +0.000 OA
BRANCH  19  21
ATOM     21  O   UNL     1       1.335   2.392  18.926  0.00  0.00    +0.000 OA
BRANCH  21  23
ATOM     22  C   UNL     1       1.546   3.030  21.278  0.00  0.00    +0.000 C 
ATOM     23  C   UNL     1       0.705   3.098  20.013  0.00  0.00    +0.000 C 
ENDBRANCH  21  23
ENDBRANCH  19  21
ENDBRANCH  13  19
ENDBRANCH   7  17
ENDBRANCH   1  10
BRANCH   3  24
ATOM     24  C   UNL     1      -0.303  13.066  19.846  0.00  0.00    +0.000 C 
BRANCH  24  25
ATOM     25  N   UNL     1       0.999  13.512  19.390  0.00  0.00    +0.000 N 
ATOM     26  C   UNL     1       2.038  13.792  20.260  0.00  0.00    +0.000 C 
ATOM     27  O   UNL     1       1.897  13.646  21.472  0.00  0.00    +0.000 OA
ATOM     28  H   UNL     1       1.177  13.568  18.394  0.00  0.00    +0.000 HD
BRANCH  26  29
ATOM     29  C   UNL     1       3.261  14.266  19.652  0.00  0.00    +0.000 A 
ATOM     30  C   UNL     1       3.612  14.207  18.319  0.00  0.00    +0.000 A 
ATOM     31  N   UNL     1       4.857  14.723  17.998  0.00  0.00    +0.000 NA
ATOM     32  C   UNL     1       5.445  15.158  19.082  0.00  0.00    +0.000 A 
ATOM     33  N   UNL     1       6.671  15.704  19.084  0.00  0.00    +0.000 N 
ATOM     34  S   UNL     1       4.538  15.001  20.530  0.00  0.00    +0.000 S 
ATOM     35  H   UNL     1       7.022  16.001  18.181  0.00  0.00    +0.000 HD
ATOM     36  H   UNL     1       6.931  16.306  19.856  0.00  0.00    +0.000 HD
ENDBRANCH  26  29
ENDBRANCH  24  25
ENDBRANCH   3  24
TORSDOF 8
ENDMDL
