MODEL 1
REMARK VINA RESULT:      -7.6      0.000      0.000
REMARK  Name = 
REMARK  9 active torsions:
REMARK  status: ('A' for Active; 'I' for Inactive)
REMARK    1  A    between atoms: C_1  and  N_2
REMARK    2  A    between atoms: N_2  and  C_3
REMARK    3  A    between atoms: C_3  and  C_4
REMARK    4  A    between atoms: C_4  and  C_6
REMARK    5  A    between atoms: C_9  and  O_10
REMARK    6  A    between atoms: C_13  and  C_15
REMARK    7  A    between atoms: C_15  and  C_16
REMARK    8  A    between atoms: C_16  and  C_17
REMARK    9  A    between atoms: C_17  and  N_18
REMARK                            x       y       z     vdW  Elec       q    Type
REMARK                         _______ _______ _______ _____ _____    ______ ____
ROOT
ATOM      1  C   UNL     1       5.897   4.557  18.758  0.00  0.00    +0.000 C 
ATOM      2  N   UNL     1       6.077   5.838  18.087  0.00  0.00    +0.000 N 
ATOM      3  C   UNL     1       7.305   6.455  18.275  0.00  0.00    +0.000 C 
ATOM      4  O   UNL     1       8.137   5.995  19.066  0.00  0.00    +0.000 OA
ENDROOT
BRANCH   2   5
ATOM      5  C   UNL     1       5.051   6.242  17.125  0.00  0.00    +0.000 C 
BRANCH   5   6
ATOM      6  C   UNL     1       3.743   6.778  17.719  0.00  0.00    +0.000 C 
ATOM      7  O   UNL     1       3.383   7.949  17.610  0.00  0.00    +0.000 OA
BRANCH   6   8
ATOM      8  C   UNL     1       2.879   5.809  18.471  0.00  0.00    +0.000 A 
ATOM      9  C   UNL     1       2.566   5.983  19.829  0.00  0.00    +0.000 A 
ATOM     10  C   UNL     1       1.717   5.082  20.482  0.00  0.00    +0.000 A 
ATOM     11  C   UNL     1       1.186   4.009  19.778  0.00  0.00    +0.000 A 
ATOM     12  C   UNL     1       1.506   3.807  18.441  0.00  0.00    +0.000 A 
ATOM     13  C   UNL     1       2.354   4.704  17.787  0.00  0.00    +0.000 A 
BRANCH  11  14
ATOM     14  O   UNL     1       0.334   3.125  20.369  0.00  0.00    +0.000 OA
ATOM     15  H   UNL     1       0.626   2.220  20.168  0.00  0.00    +0.000 HD
ENDBRANCH  11  14
ENDBRANCH   6   8
ENDBRANCH   5   6
ENDBRANCH   2   5
BRANCH   3  16
ATOM     16  C   UNL     1       7.614   7.736  17.515  0.00  0.00    +0.000 C 
BRANCH  16  17
ATOM     17  C   UNL     1       8.315   8.765  18.408  0.00  0.00    +0.000 C 
BRANCH  17  18
ATOM     18  C   UNL     1       8.480  10.134  17.721  0.00  0.00    +0.000 C 
BRANCH  18  19
ATOM     19  N   UNL     1       9.232  11.134  18.510  0.00  0.00    +0.000 NA
ATOM     20  C   UNL     1       9.512  10.648  19.873  0.00  0.00    +0.000 C 
ATOM     21  C   UNL     1      10.293  11.678  20.689  0.00  0.00    +0.000 C 
ATOM     22  C   UNL     1      11.592  12.062  19.995  0.00  0.00    +0.000 C 
ATOM     23  C   UNL     1      11.308  12.511  18.568  0.00  0.00    +0.000 C 
ATOM     24  C   UNL     1      10.489  11.465  17.810  0.00  0.00    +0.000 C 
ENDBRANCH  18  19
ENDBRANCH  17  18
ENDBRANCH  16  17
ENDBRANCH   3  16
TORSDOF 8
ENDMDL
MODEL 2
REMARK VINA RESULT:      -7.2      3.994      7.365
REMARK  Name = 
REMARK  9 active torsions:
REMARK  status: ('A' for Active; 'I' for Inactive)
REMARK    1  A    between atoms: C_1  and  N_2
REMARK    2  A    between atoms: N_2  and  C_3
REMARK    3  A    between atoms: C_3  and  C_4
REMARK    4  A    between atoms: C_4  and  C_6
REMARK    5  A    between atoms: C_9  and  O_10
REMARK    6  A    between atoms: C_13  and  C_15
REMARK    7  A    between atoms: C_15  and  C_16
REMARK    8  A    between atoms: C_16  and  C_17
REMARK    9  A    between atoms: C_17  and  N_18
REMARK                            x       y       z     vdW  Elec       q    Type
REMARK                         _______ _______ _______ _____ _____    ______ ____
ROOT
ATOM      1  C   UNL     1       6.361   6.968  17.202  0.00  0.00    +0.000 C 
ATOM      2  N   UNL     1       5.174   6.163  16.944  0.00  0.00    +0.000 N 
ATOM      3  C   UNL     1       5.398   4.825  16.652  0.00  0.00    +0.000 C 
ATOM      4  O   UNL     1       6.545   4.389  16.500  0.00  0.00    +0.000 OA
ENDROOT
BRANCH   2   5
ATOM      5  C   UNL     1       3.874   6.774  17.223  0.00  0.00    +0.000 C 
BRANCH   5   6
ATOM      6  C   UNL     1       3.413   6.740  18.686  0.00  0.00    +0.000 C 
ATOM      7  O   UNL     1       3.863   5.954  19.517  0.00  0.00    +0.000 OA
BRANCH   6   8
ATOM      8  C   UNL     1       2.355   7.721  19.098  0.00  0.00    +0.000 A 
ATOM      9  C   UNL     1       1.793   7.720  20.385  0.00  0.00    +0.000 A 
ATOM     10  C   UNL     1       0.843   8.683  20.745  0.00  0.00    +0.000 A 
ATOM     11  C   UNL     1       0.454   9.640  19.817  0.00  0.00    +0.000 A 
ATOM     12  C   UNL     1       0.980   9.641  18.531  0.00  0.00    +0.000 A 
ATOM     13  C   UNL     1       1.928   8.681  18.170  0.00  0.00    +0.000 A 
BRANCH  11  14
ATOM     14  O   UNL     1      -0.448  10.611  20.137  0.00  0.00    +0.000 OA
ATOM     15  H   UNL     1      -1.048  10.274  20.823  0.00  0.00    +0.000 HD
ENDBRANCH  11  14
ENDBRANCH   6   8
ENDBRANCH   5   6
ENDBRANCH   2   5
BRANCH   3  16
ATOM     16  C   UNL     1       4.207   3.894  16.486  0.00  0.00    +0.000 C 
BRANCH  16  17
ATOM     17  C   UNL     1       4.244   2.748  17.502  0.00  0.00    +0.000 C 
BRANCH  17  18
ATOM     18  C   UNL     1       2.867   2.086  17.700  0.00  0.00    +0.000 C 
BRANCH  18  19
ATOM     19  N   UNL     1       2.227   2.370  19.003  0.00  0.00    +0.000 NA
ATOM     20  C   UNL     1       3.219   2.429  20.090  0.00  0.00    +0.000 C 
ATOM     21  C   UNL     1       2.561   2.728  21.438  0.00  0.00    +0.000 C 
ATOM     22  C   UNL     1       1.764   4.023  21.388  0.00  0.00    +0.000 C 
ATOM     23  C   UNL     1       0.777   3.984  20.229  0.00  0.00    +0.000 C 
ATOM     24  C   UNL     1       1.479   3.639  18.914  0.00  0.00    +0.000 C 
ENDBRANCH  18  19
ENDBRANCH  17  18
ENDBRANCH  16  17
ENDBRANCH   3  16
TORSDOF 8
ENDMDL
MODEL 3
REMARK VINA RESULT:      -7.2      4.773      7.216
REMARK  Name = 
REMARK  9 active torsions:
REMARK  status: ('A' for Active; 'I' for Inactive)
REMARK    1  A    between atoms: C_1  and  N_2
REMARK    2  A    between atoms: N_2  and  C_3
REMARK    3  A    between atoms: C_3  and  C_4
REMARK    4  A    between atoms: C_4  and  C_6
REMARK    5  A    between atoms: C_9  and  O_10
REMARK    6  A    between atoms: C_13  and  C_15
REMARK    7  A    between atoms: C_15  and  C_16
REMARK    8  A    between atoms: C_16  and  C_17
REMARK    9  A    between atoms: C_17  and  N_18
REMARK                            x       y       z     vdW  Elec       q    Type
REMARK                         _______ _______ _______ _____ _____    ______ ____
ROOT
ATOM      1  C   UNL     1       4.514   1.822  20.569  0.00  0.00    +0.000 C 
ATOM      2  N   UNL     1       3.557   2.748  19.976  0.00  0.00    +0.000 N 
ATOM      3  C   UNL     1       2.539   3.187  20.812  0.00  0.00    +0.000 C 
ATOM      4  O   UNL     1       2.395   2.714  21.945  0.00  0.00    +0.000 OA
ENDROOT
BRANCH   2   5
ATOM      5  C   UNL     1       3.873   3.287  18.654  0.00  0.00    +0.000 C 
BRANCH   5   6
ATOM      6  C   UNL     1       5.161   4.114  18.552  0.00  0.00    +0.000 C 
ATOM      7  O   UNL     1       5.739   4.585  19.530  0.00  0.00    +0.000 OA
BRANCH   6   8
ATOM      8  C   UNL     1       5.721   4.353  17.181  0.00  0.00    +0.000 A 
ATOM      9  C   UNL     1       4.977   4.108  16.015  0.00  0.00    +0.000 A 
ATOM     10  C   UNL     1       5.519   4.390  14.756  0.00  0.00    +0.000 A 
ATOM     11  C   UNL     1       6.803   4.912  14.665  0.00  0.00    +0.000 A 
ATOM     12  C   UNL     1       7.563   5.137  15.806  0.00  0.00    +0.000 A 
ATOM     13  C   UNL     1       7.024   4.855  17.064  0.00  0.00    +0.000 A 
BRANCH  11  14
ATOM     14  O   UNL     1       7.357   5.226  13.460  0.00  0.00    +0.000 OA
ATOM     15  H   UNL     1       7.781   6.098  13.522  0.00  0.00    +0.000 HD
ENDBRANCH  11  14
ENDBRANCH   6   8
ENDBRANCH   5   6
ENDBRANCH   2   5
BRANCH   3  16
ATOM     16  C   UNL     1       1.569   4.243  20.305  0.00  0.00    +0.000 C 
BRANCH  16  17
ATOM     17  C   UNL     1       2.037   5.656  20.669  0.00  0.00    +0.000 C 
BRANCH  17  18
ATOM     18  C   UNL     1       2.601   6.425  19.459  0.00  0.00    +0.000 C 
BRANCH  18  19
ATOM     19  N   UNL     1       2.323   7.879  19.468  0.00  0.00    +0.000 NA
ATOM     20  C   UNL     1       1.946   8.364  18.129  0.00  0.00    +0.000 C 
ATOM     21  C   UNL     1       1.654   9.865  18.136  0.00  0.00    +0.000 C 
ATOM     22  C   UNL     1       0.566  10.211  19.142  0.00  0.00    +0.000 C 
ATOM     23  C   UNL     1       0.929   9.659  20.514  0.00  0.00    +0.000 C 
ATOM     24  C   UNL     1       1.254   8.166  20.444  0.00  0.00    +0.000 C 
ENDBRANCH  18  19
ENDBRANCH  17  18
ENDBRANCH  16  17
ENDBRANCH   3  16
TORSDOF 8
ENDMDL
MODEL 4
REMARK VINA RESULT:      -7.2      1.233      1.569
REMARK  Name = 
REMARK  9 active torsions:
REMARK  status: ('A' for Active; 'I' for Inactive)
REMARK    1  A    between atoms: C_1  and  N_2
REMARK    2  A    between atoms: N_2  and  C_3
REMARK    3  A    between atoms: C_3  and  C_4
REMARK    4  A    between atoms: C_4  and  C_6
REMARK    5  A    between atoms: C_9  and  O_10
REMARK    6  A    between atoms: C_13  and  C_15
REMARK    7  A    between atoms: C_15  and  C_16
REMARK    8  A    between atoms: C_16  and  C_17
REMARK    9  A    between atoms: C_17  and  N_18
REMARK                            x       y       z     vdW  Elec       q    Type
REMARK                         _______ _______ _______ _____ _____    ______ ____
ROOT
ATOM      1  C   UNL     1       7.623   4.323  17.946  0.00  0.00    +0.000 C 
ATOM      2  N   UNL     1       7.334   5.656  17.431  0.00  0.00    +0.000 N 
ATOM      3  C   UNL     1       7.790   6.717  18.201  0.00  0.00    +0.000 C 
ATOM      4  O   UNL     1       8.297   6.527  19.313  0.00  0.00    +0.000 OA
ENDROOT
BRANCH   2   5
ATOM      5  C   UNL     1       6.793   5.750  16.075  0.00  0.00    +0.000 C 
BRANCH   5   6
ATOM      6  C   UNL     1       5.329   6.193  15.962  0.00  0.00    +0.000 C 
ATOM      7  O   UNL     1       4.945   7.059  15.177  0.00  0.00    +0.000 OA
BRANCH   6   8
ATOM      8  C   UNL     1       4.336   5.529  16.869  0.00  0.00    +0.000 A 
ATOM      9  C   UNL     1       3.594   6.247  17.822  0.00  0.00    +0.000 A 
ATOM     10  C   UNL     1       2.642   5.597  18.616  0.00  0.00    +0.000 A 
ATOM     11  C   UNL     1       2.436   4.233  18.459  0.00  0.00    +0.000 A 
ATOM     12  C   UNL     1       3.178   3.502  17.539  0.00  0.00    +0.000 A 
ATOM     13  C   UNL     1       4.130   4.148  16.746  0.00  0.00    +0.000 A 
BRANCH  11  14
ATOM     14  O   UNL     1       1.499   3.568  19.192  0.00  0.00    +0.000 OA
ATOM     15  H   UNL     1       1.903   3.265  20.023  0.00  0.00    +0.000 HD
ENDBRANCH  11  14
ENDBRANCH   6   8
ENDBRANCH   5   6
ENDBRANCH   2   5
BRANCH   3  16
ATOM     16  C   UNL     1       7.632   8.135  17.676  0.00  0.00    +0.000 C 
BRANCH  16  17
ATOM     17  C   UNL     1       8.730   9.059  18.212  0.00  0.00    +0.000 C 
BRANCH  17  18
ATOM     18  C   UNL     1       8.391  10.551  18.030  0.00  0.00    +0.000 C 
BRANCH  18  19
ATOM     19  N   UNL     1       9.350  11.484  18.663  0.00  0.00    +0.000 NA
ATOM     20  C   UNL     1       9.623  11.111  20.062  0.00  0.00    +0.000 C 
ATOM     21  C   UNL     1      10.618  12.070  20.716  0.00  0.00    +0.000 C 
ATOM     22  C   UNL     1      11.919  12.136  19.931  0.00  0.00    +0.000 C 
ATOM     23  C   UNL     1      11.633  12.465  18.472  0.00  0.00    +0.000 C 
ATOM     24  C   UNL     1      10.601  11.505  17.878  0.00  0.00    +0.000 C 
ENDBRANCH  18  19
ENDBRANCH  17  18
ENDBRANCH  16  17
ENDBRANCH   3  16
TORSDOF 8
ENDMDL
MODEL 5
REMARK VINA RESULT:      -7.0      4.653      7.248
REMARK  Name = 
REMARK  9 active torsions:
REMARK  status: ('A' for Active; 'I' for Inactive)
REMARK    1  A    between atoms: C_1  and  N_2
REMARK    2  A    between atoms: N_2  and  C_3
REMARK    3  A    between atoms: C_3  and  C_4
REMARK    4  A    between atoms: C_4  and  C_6
REMARK    5  A    between atoms: C_9  and  O_10
REMARK    6  A    between atoms: C_13  and  C_15
REMARK    7  A    between atoms: C_15  and  C_16
REMARK    8  A    between atoms: C_16  and  C_17
REMARK    9  A    between atoms: C_17  and  N_18
REMARK                            x       y       z     vdW  Elec       q    Type
REMARK                         _______ _______ _______ _____ _____    ______ ____
ROOT
ATOM      1  C   UNL     1       2.006   2.100  20.124  0.00  0.00    +0.000 C 
ATOM      2  N   UNL     1       2.275   3.080  19.079  0.00  0.00    +0.000 N 
ATOM      3  C   UNL     1       1.606   4.290  19.194  0.00  0.00    +0.000 C 
ATOM      4  O   UNL     1       0.745   4.463  20.064  0.00  0.00    +0.000 OA
ENDROOT
BRANCH   2   5
ATOM      5  C   UNL     1       3.364   2.786  18.147  0.00  0.00    +0.000 C 
BRANCH   5   6
ATOM      6  C   UNL     1       4.729   3.393  18.492  0.00  0.00    +0.000 C 
ATOM      7  O   UNL     1       5.196   3.401  19.630  0.00  0.00    +0.000 OA
BRANCH   6   8
ATOM      8  C   UNL     1       5.514   4.008  17.371  0.00  0.00    +0.000 A 
ATOM      9  C   UNL     1       6.639   4.818  17.599  0.00  0.00    +0.000 A 
ATOM     10  C   UNL     1       7.371   5.333  16.524  0.00  0.00    +0.000 A 
ATOM     11  C   UNL     1       6.977   5.041  15.224  0.00  0.00    +0.000 A 
ATOM     12  C   UNL     1       5.852   4.263  14.979  0.00  0.00    +0.000 A 
ATOM     13  C   UNL     1       5.119   3.748  16.051  0.00  0.00    +0.000 A 
BRANCH  11  14
ATOM     14  O   UNL     1       7.680   5.500  14.150  0.00  0.00    +0.000 OA
ATOM     15  H   UNL     1       8.145   6.316  14.400  0.00  0.00    +0.000 HD
ENDBRANCH  11  14
ENDBRANCH   6   8
ENDBRANCH   5   6
ENDBRANCH   2   5
BRANCH   3  16
ATOM     16  C   UNL     1       1.920   5.406  18.210  0.00  0.00    +0.000 C 
BRANCH  16  17
ATOM     17  C   UNL     1       2.695   6.545  18.881  0.00  0.00    +0.000 C 
BRANCH  17  18
ATOM     18  C   UNL     1       2.560   7.881  18.125  0.00  0.00    +0.000 C 
BRANCH  18  19
ATOM     19  N   UNL     1       1.914   8.965  18.897  0.00  0.00    +0.000 NA
ATOM     20  C   UNL     1       0.816   9.589  18.138  0.00  0.00    +0.000 C 
ATOM     21  C   UNL     1       0.144  10.707  18.936  0.00  0.00    +0.000 C 
ATOM     22  C   UNL     1      -0.371  10.197  20.273  0.00  0.00    +0.000 C 
ATOM     23  C   UNL     1       0.750   9.502  21.034  0.00  0.00    +0.000 C 
ATOM     24  C   UNL     1       1.417   8.424  20.178  0.00  0.00    +0.000 C 
ENDBRANCH  18  19
ENDBRANCH  17  18
ENDBRANCH  16  17
ENDBRANCH   3  16
TORSDOF 8
ENDMDL
MODEL 6
REMARK VINA RESULT:      -7.0      1.739      2.290
REMARK  Name = 
REMARK  9 active torsions:
REMARK  status: ('A' for Active; 'I' for Inactive)
REMARK    1  A    between atoms: C_1  and  N_2
REMARK    2  A    between atoms: N_2  and  C_3
REMARK    3  A    between atoms: C_3  and  C_4
REMARK    4  A    between atoms: C_4  and  C_6
REMARK    5  A    between atoms: C_9  and  O_10
REMARK    6  A    between atoms: C_13  and  C_15
REMARK    7  A    between atoms: C_15  and  C_16
REMARK    8  A    between atoms: C_16  and  C_17
REMARK    9  A    between atoms: C_17  and  N_18
REMARK                            x       y       z     vdW  Elec       q    Type
REMARK                         _______ _______ _______ _____ _____    ______ ____
ROOT
ATOM      1  C   UNL     1       6.356   4.368  16.775  0.00  0.00    +0.000 C 
ATOM      2  N   UNL     1       6.290   5.656  17.454  0.00  0.00    +0.000 N 
ATOM      3  C   UNL     1       7.068   6.669  16.912  0.00  0.00    +0.000 C 
ATOM      4  O   UNL     1       7.858   6.443  15.988  0.00  0.00    +0.000 OA
ENDROOT
BRANCH   2   5
ATOM      5  C   UNL     1       5.268   5.818  18.489  0.00  0.00    +0.000 C 
BRANCH   5   6
ATOM      6  C   UNL     1       4.953   4.573  19.326  0.00  0.00    +0.000 C 
ATOM      7  O   UNL     1       5.721   4.114  20.170  0.00  0.00    +0.000 OA
BRANCH   6   8
ATOM      8  C   UNL     1       3.638   3.892  19.081  0.00  0.00    +0.000 A 
ATOM      9  C   UNL     1       2.628   4.474  18.297  0.00  0.00    +0.000 A 
ATOM     10  C   UNL     1       1.435   3.785  18.053  0.00  0.00    +0.000 A 
ATOM     11  C   UNL     1       1.252   2.519  18.595  0.00  0.00    +0.000 A 
ATOM     12  C   UNL     1       2.230   1.938  19.394  0.00  0.00    +0.000 A 
ATOM     13  C   UNL     1       3.421   2.625  19.639  0.00  0.00    +0.000 A 
BRANCH  11  14
ATOM     14  O   UNL     1       0.116   1.804  18.358  0.00  0.00    +0.000 OA
ATOM     15  H   UNL     1       0.346   0.863  18.270  0.00  0.00    +0.000 HD
ENDBRANCH  11  14
ENDBRANCH   6   8
ENDBRANCH   5   6
ENDBRANCH   2   5
BRANCH   3  16
ATOM     16  C   UNL     1       6.966   8.071  17.492  0.00  0.00    +0.000 C 
BRANCH  16  17
ATOM     17  C   UNL     1       8.290   8.519  18.119  0.00  0.00    +0.000 C 
BRANCH  17  18
ATOM     18  C   UNL     1       8.409  10.051  18.225  0.00  0.00    +0.000 C 
BRANCH  18  19
ATOM     19  N   UNL     1       9.695  10.534  18.775  0.00  0.00    +0.000 NA
ATOM     20  C   UNL     1      10.419  11.371  17.802  0.00  0.00    +0.000 C 
ATOM     21  C   UNL     1      11.745  11.875  18.370  0.00  0.00    +0.000 C 
ATOM     22  C   UNL     1      11.535  12.645  19.665  0.00  0.00    +0.000 C 
ATOM     23  C   UNL     1      10.738  11.801  20.650  0.00  0.00    +0.000 C 
ATOM     24  C   UNL     1       9.443  11.286  20.020  0.00  0.00    +0.000 C 
ENDBRANCH  18  19
ENDBRANCH  17  18
ENDBRANCH  16  17
ENDBRANCH   3  16
TORSDOF 8
ENDMDL
MODEL 7
REMARK VINA RESULT:      -7.0      3.811      7.351
REMARK  Name = 
REMARK  9 active torsions:
REMARK  status: ('A' for Active; 'I' for Inactive)
REMARK    1  A    between atoms: C_1  and  N_2
REMARK    2  A    between atoms: N_2  and  C_3
REMARK    3  A    between atoms: C_3  and  C_4
REMARK    4  A    between atoms: C_4  and  C_6
REMARK    5  A    between atoms: C_9  and  O_10
REMARK    6  A    between atoms: C_13  and  C_15
REMARK    7  A    between atoms: C_15  and  C_16
REMARK    8  A    between atoms: C_16  and  C_17
REMARK    9  A    between atoms: C_17  and  N_18
REMARK                            x       y       z     vdW  Elec       q    Type
REMARK                         _______ _______ _______ _____ _____    ______ ____
ROOT
ATOM      1  C   UNL     1       6.824   7.016  17.300  0.00  0.00    +0.000 C 
ATOM      2  N   UNL     1       5.669   6.252  16.845  0.00  0.00    +0.000 N 
ATOM      3  C   UNL     1       5.914   4.932  16.493  0.00  0.00    +0.000 C 
ATOM      4  O   UNL     1       7.066   4.485  16.455  0.00  0.00    +0.000 OA
ENDROOT
BRANCH   2   5
ATOM      5  C   UNL     1       4.351   6.868  17.002  0.00  0.00    +0.000 C 
BRANCH   5   6
ATOM      6  C   UNL     1       3.690   6.705  18.376  0.00  0.00    +0.000 C 
ATOM      7  O   UNL     1       3.993   5.815  19.169  0.00  0.00    +0.000 OA
BRANCH   6   8
ATOM      8  C   UNL     1       2.618   7.687  18.746  0.00  0.00    +0.000 A 
ATOM      9  C   UNL     1       2.018   7.699  20.016  0.00  0.00    +0.000 A 
ATOM     10  C   UNL     1       1.056   8.662  20.337  0.00  0.00    +0.000 A 
ATOM     11  C   UNL     1       0.692   9.609  19.388  0.00  0.00    +0.000 A 
ATOM     12  C   UNL     1       1.256   9.597  18.118  0.00  0.00    +0.000 A 
ATOM     13  C   UNL     1       2.217   8.636  17.795  0.00  0.00    +0.000 A 
BRANCH  11  14
ATOM     14  O   UNL     1      -0.220  10.581  19.670  0.00  0.00    +0.000 OA
ATOM     15  H   UNL     1       0.211  11.450  19.607  0.00  0.00    +0.000 HD
ENDBRANCH  11  14
ENDBRANCH   6   8
ENDBRANCH   5   6
ENDBRANCH   2   5
BRANCH   3  16
ATOM     16  C   UNL     1       4.743   4.036  16.120  0.00  0.00    +0.000 C 
BRANCH  16  17
ATOM     17  C   UNL     1       4.586   2.876  17.108  0.00  0.00    +0.000 C 
BRANCH  17  18
ATOM     18  C   UNL     1       3.115   2.609  17.481  0.00  0.00    +0.000 C 
BRANCH  18  19
ATOM     19  N   UNL     1       2.701   3.159  18.791  0.00  0.00    +0.000 NA
ATOM     20  C   UNL     1       1.248   3.400  18.841  0.00  0.00    +0.000 C 
ATOM     21  C   UNL     1       0.817   3.964  20.194  0.00  0.00    +0.000 C 
ATOM     22  C   UNL     1       1.233   3.045  21.333  0.00  0.00    +0.000 C 
ATOM     23  C   UNL     1       2.724   2.750  21.249  0.00  0.00    +0.000 C 
ATOM     24  C   UNL     1       3.110   2.230  19.863  0.00  0.00    +0.000 C 
ENDBRANCH  18  19
ENDBRANCH  17  18
ENDBRANCH  16  17
ENDBRANCH   3  16
TORSDOF 8
ENDMDL
MODEL 8
REMARK VINA RESULT:      -6.9      4.795      7.386
REMARK  Name = 
REMARK  9 active torsions:
REMARK  status: ('A' for Active; 'I' for Inactive)
REMARK    1  A    between atoms: C_1  and  N_2
REMARK    2  A    between atoms: N_2  and  C_3
REMARK    3  A    between atoms: C_3  and  C_4
REMARK    4  A    between atoms: C_4  and  C_6
REMARK    5  A    between atoms: C_9  and  O_10
REMARK    6  A    between atoms: C_13  and  C_15
REMARK    7  A    between atoms: C_15  and  C_16
REMARK    8  A    between atoms: C_16  and  C_17
REMARK    9  A    between atoms: C_17  and  N_18
REMARK                            x       y       z     vdW  Elec       q    Type
REMARK                         _______ _______ _______ _____ _____    ______ ____
ROOT
ATOM      1  C   UNL     1       1.573   4.463  20.646  0.00  0.00    +0.000 C 
ATOM      2  N   UNL     1       2.131   5.118  19.469  0.00  0.00    +0.000 N 
ATOM      3  C   UNL     1       2.297   6.493  19.561  0.00  0.00    +0.000 C 
ATOM      4  O   UNL     1       1.876   7.123  20.538  0.00  0.00    +0.000 OA
ENDROOT
BRANCH   2   5
ATOM      5  C   UNL     1       2.655   4.259  18.407  0.00  0.00    +0.000 C 
BRANCH   5   6
ATOM      6  C   UNL     1       4.106   3.791  18.572  0.00  0.00    +0.000 C 
ATOM      7  O   UNL     1       4.480   3.063  19.490  0.00  0.00    +0.000 OA
BRANCH   6   8
ATOM      8  C   UNL     1       5.102   4.263  17.554  0.00  0.00    +0.000 A 
ATOM      9  C   UNL     1       6.421   4.601  17.898  0.00  0.00    +0.000 A 
ATOM     10  C   UNL     1       7.334   4.991  16.912  0.00  0.00    +0.000 A 
ATOM     11  C   UNL     1       6.926   5.044  15.585  0.00  0.00    +0.000 A 
ATOM     12  C   UNL     1       5.618   4.738  15.229  0.00  0.00    +0.000 A 
ATOM     13  C   UNL     1       4.705   4.349  16.213  0.00  0.00    +0.000 A 
BRANCH  11  14
ATOM     14  O   UNL     1       7.791   5.392  14.591  0.00  0.00    +0.000 OA
ATOM     15  H   UNL     1       8.661   4.999  14.775  0.00  0.00    +0.000 HD
ENDBRANCH  11  14
ENDBRANCH   6   8
ENDBRANCH   5   6
ENDBRANCH   2   5
BRANCH   3  16
ATOM     16  C   UNL     1       2.981   7.233  18.422  0.00  0.00    +0.000 C 
BRANCH  16  17
ATOM     17  C   UNL     1       2.023   8.209  17.731  0.00  0.00    +0.000 C 
BRANCH  17  18
ATOM     18  C   UNL     1       2.109   9.634  18.309  0.00  0.00    +0.000 C 
BRANCH  18  19
ATOM     19  N   UNL     1       0.806  10.229  18.681  0.00  0.00    +0.000 NA
ATOM     20  C   UNL     1       0.859  11.701  18.661  0.00  0.00    +0.000 C 
ATOM     21  C   UNL     1      -0.488  12.318  19.041  0.00  0.00    +0.000 C 
ATOM     22  C   UNL     1      -1.599  11.823  18.126  0.00  0.00    +0.000 C 
ATOM     23  C   UNL     1      -1.617  10.301  18.103  0.00  0.00    +0.000 C 
ATOM     24  C   UNL     1      -0.237   9.735  17.761  0.00  0.00    +0.000 C 
ENDBRANCH  18  19
ENDBRANCH  17  18
ENDBRANCH  16  17
ENDBRANCH   3  16
TORSDOF 8
ENDMDL
MODEL 9
REMARK VINA RESULT:      -6.9      1.896      2.582
REMARK  Name = 
REMARK  9 active torsions:
REMARK  status: ('A' for Active; 'I' for Inactive)
REMARK    1  A    between atoms: C_1  and  N_2
REMARK    2  A    between atoms: N_2  and  C_3
REMARK    3  A    between atoms: C_3  and  C_4
REMARK    4  A    between atoms: C_4  and  C_6
REMARK    5  A    between atoms: C_9  and  O_10
REMARK    6  A    between atoms: C_13  and  C_15
REMARK    7  A    between atoms: C_15  and  C_16
REMARK    8  A    between atoms: C_16  and  C_17
REMARK    9  A    between atoms: C_17  and  N_18
REMARK                            x       y       z     vdW  Elec       q    Type
REMARK                         _______ _______ _______ _____ _____    ______ ____
ROOT
ATOM      1  C   UNL     1       5.241   5.804  15.329  0.00  0.00    +0.000 C 
ATOM      2  N   UNL     1       5.538   6.170  16.708  0.00  0.00    +0.000 N 
ATOM      3  C   UNL     1       6.817   5.865  17.155  0.00  0.00    +0.000 C 
ATOM      4  O   UNL     1       7.599   5.212  16.455  0.00  0.00    +0.000 OA
ENDROOT
BRANCH   2   5
ATOM      5  C   UNL     1       4.559   6.999  17.410  0.00  0.00    +0.000 C 
BRANCH   5   6
ATOM      6  C   UNL     1       3.322   6.271  17.949  0.00  0.00    +0.000 C 
ATOM      7  O   UNL     1       2.279   6.848  18.254  0.00  0.00    +0.000 OA
BRANCH   6   8
ATOM      8  C   UNL     1       3.414   4.783  18.113  0.00  0.00    +0.000 A 
ATOM      9  C   UNL     1       2.753   3.892  17.252  0.00  0.00    +0.000 A 
ATOM     10  C   UNL     1       2.904   2.510  17.408  0.00  0.00    +0.000 A 
ATOM     11  C   UNL     1       3.713   2.021  18.427  0.00  0.00    +0.000 A 
ATOM     12  C   UNL     1       4.355   2.886  19.304  0.00  0.00    +0.000 A 
ATOM     13  C   UNL     1       4.205   4.267  19.149  0.00  0.00    +0.000 A 
BRANCH  11  14
ATOM     14  O   UNL     1       3.908   0.683  18.596  0.00  0.00    +0.000 OA
ATOM     15  H   UNL     1       3.602   0.427  19.482  0.00  0.00    +0.000 HD
ENDBRANCH  11  14
ENDBRANCH   6   8
ENDBRANCH   5   6
ENDBRANCH   2   5
BRANCH   3  16
ATOM     16  C   UNL     1       7.243   6.319  18.542  0.00  0.00    +0.000 C 
BRANCH  16  17
ATOM     17  C   UNL     1       8.327   7.399  18.472  0.00  0.00    +0.000 C 
BRANCH  17  18
ATOM     18  C   UNL     1       7.835   8.690  17.790  0.00  0.00    +0.000 C 
BRANCH  18  19
ATOM     19  N   UNL     1       8.716   9.864  17.981  0.00  0.00    +0.000 NA
ATOM     20  C   UNL     1       8.032  11.117  17.616  0.00  0.00    +0.000 C 
ATOM     21  C   UNL     1       8.939  12.332  17.818  0.00  0.00    +0.000 C 
ATOM     22  C   UNL     1       9.444  12.411  19.251  0.00  0.00    +0.000 C 
ATOM     23  C   UNL     1      10.101  11.096  19.647  0.00  0.00    +0.000 C 
ATOM     24  C   UNL     1       9.170   9.910  19.385  0.00  0.00    +0.000 C 
ENDBRANCH  18  19
ENDBRANCH  17  18
ENDBRANCH  16  17
ENDBRANCH   3  16
TORSDOF 8
ENDMDL
