MODEL 1
REMARK VINA RESULT:      -7.9      0.000      0.000
REMARK  Name = 
REMARK  4 active torsions:
REMARK  status: ('A' for Active; 'I' for Inactive)
REMARK    1  A    between atoms: C_1  and  C_2
REMARK    2  A    between atoms: C_5  and  C_6
REMARK    3  A    between atoms: N_8  and  C_9
REMARK    4  A    between atoms: C_14  and  C_15
REMARK                            x       y       z     vdW  Elec       q    Type
REMARK                         _______ _______ _______ _____ _____    ______ ____
ROOT
ATOM      1  C   UNL     1       8.230   9.083  18.178  0.00  0.00    +0.000 C 
ATOM      2  O   UNL     1       7.297   9.489  17.483  0.00  0.00    +0.000 OA
ATOM      3  N   UNL     1       8.385   7.752  18.537  0.00  0.00    +0.000 N 
ATOM      4  H   UNL     1       8.984   7.509  19.319  0.00  0.00    +0.000 HD
ENDROOT
BRANCH   3   5
ATOM      5  C   UNL     1       7.531   6.739  18.120  0.00  0.00    +0.000 A 
ATOM      6  C   UNL     1       7.021   6.624  16.879  0.00  0.00    +0.000 A 
ATOM      7  N   UNL     1       6.116   5.687  16.454  0.00  0.00    +0.000 NA
ATOM      8  C   UNL     1       5.702   4.877  17.363  0.00  0.00    +0.000 A 
ATOM      9  S   UNL     1       4.506   3.664  17.078  0.00  0.00    +0.000 S 
ATOM     10  C   UNL     1       4.663   3.226  18.757  0.00  0.00    +0.000 A 
ATOM     11  C   UNL     1       3.798   2.131  19.282  0.00  0.00    +0.000 C 
ATOM     12  N   UNL     1       5.529   3.883  19.470  0.00  0.00    +0.000 NA
ATOM     13  N   UNL     1       6.130   4.837  18.664  0.00  0.00    +0.000 N 
ATOM     14  C   UNL     1       7.109   5.701  19.134  0.00  0.00    +0.000 A 
ATOM     15  O   UNL     1       7.621   5.705  20.252  0.00  0.00    +0.000 OA
ENDBRANCH   3   5
BRANCH   1  20
ATOM     16  C   UNL     1      12.135  13.022  19.909  0.00  0.00    +0.000 C 
ATOM     17  C   UNL     1      11.117  12.008  19.479  0.00  0.00    +0.000 A 
ATOM     18  C   UNL     1      10.947  11.700  18.129  0.00  0.00    +0.000 A 
ATOM     19  C   UNL     1       9.995  10.756  17.743  0.00  0.00    +0.000 A 
ATOM     20  C   UNL     1       9.196  10.097  18.694  0.00  0.00    +0.000 A 
ATOM     21  C   UNL     1       9.368  10.402  20.047  0.00  0.00    +0.000 A 
ATOM     22  C   UNL     1      10.322  11.355  20.431  0.00  0.00    +0.000 A 
ENDBRANCH   1  20
TORSDOF 2
ENDMDL
MODEL 2
REMARK VINA RESULT:      -7.7      0.206      1.071
REMARK  Name = 
REMARK  4 active torsions:
REMARK  status: ('A' for Active; 'I' for Inactive)
REMARK    1  A    between atoms: C_1  and  C_2
REMARK    2  A    between atoms: C_5  and  C_6
REMARK    3  A    between atoms: N_8  and  C_9
REMARK    4  A    between atoms: C_14  and  C_15
REMARK                            x       y       z     vdW  Elec       q    Type
REMARK                         _______ _______ _______ _____ _____    ______ ____
ROOT
ATOM      1  C   UNL     1       8.106   8.992  18.052  0.00  0.00    +0.000 C 
ATOM      2  O   UNL     1       7.116   9.398  17.440  0.00  0.00    +0.000 OA
ATOM      3  N   UNL     1       8.304   7.658  18.375  0.00  0.00    +0.000 N 
ATOM      4  H   UNL     1       8.967   7.410  19.102  0.00  0.00    +0.000 HD
ENDROOT
BRANCH   3   5
ATOM      5  C   UNL     1       7.430   6.641  18.011  0.00  0.00    +0.000 A 
ATOM      6  C   UNL     1       6.897   6.486  16.784  0.00  0.00    +0.000 A 
ATOM      7  N   UNL     1       5.973   5.545  16.411  0.00  0.00    +0.000 NA
ATOM      8  C   UNL     1       5.565   4.777  17.357  0.00  0.00    +0.000 A 
ATOM      9  S   UNL     1       4.349   3.569  17.138  0.00  0.00    +0.000 S 
ATOM     10  C   UNL     1       4.530   3.192  18.829  0.00  0.00    +0.000 A 
ATOM     11  C   UNL     1       3.660   2.130  19.411  0.00  0.00    +0.000 C 
ATOM     12  N   UNL     1       5.416   3.864  19.503  0.00  0.00    +0.000 NA
ATOM     13  N   UNL     1       6.015   4.779  18.651  0.00  0.00    +0.000 N 
ATOM     14  C   UNL     1       7.013   5.648  19.070  0.00  0.00    +0.000 A 
ATOM     15  O   UNL     1       7.544   5.687  20.179  0.00  0.00    +0.000 OA
ENDBRANCH   3   5
BRANCH   1  20
ATOM     16  C   UNL     1      11.835  12.954  20.091  0.00  0.00    +0.000 C 
ATOM     17  C   UNL     1      10.883  11.930  19.548  0.00  0.00    +0.000 A 
ATOM     18  C   UNL     1      10.071  11.189  20.407  0.00  0.00    +0.000 A 
ATOM     19  C   UNL     1       9.191  10.239  19.889  0.00  0.00    +0.000 A 
ATOM     20  C   UNL     1       9.100  10.009  18.504  0.00  0.00    +0.000 A 
ATOM     21  C   UNL     1       9.910  10.755  17.643  0.00  0.00    +0.000 A 
ATOM     22  C   UNL     1      10.797  11.706  18.167  0.00  0.00    +0.000 A 
ENDBRANCH   1  20
TORSDOF 2
ENDMDL
MODEL 3
REMARK VINA RESULT:      -7.1      5.907      8.139
REMARK  Name = 
REMARK  4 active torsions:
REMARK  status: ('A' for Active; 'I' for Inactive)
REMARK    1  A    between atoms: C_1  and  C_2
REMARK    2  A    between atoms: C_5  and  C_6
REMARK    3  A    between atoms: N_8  and  C_9
REMARK    4  A    between atoms: C_14  and  C_15
REMARK                            x       y       z     vdW  Elec       q    Type
REMARK                         _______ _______ _______ _____ _____    ______ ____
ROOT
ATOM      1  C   UNL     1       4.012   6.219  18.075  0.00  0.00    +0.000 C 
ATOM      2  O   UNL     1       4.468   5.984  19.195  0.00  0.00    +0.000 OA
ATOM      3  N   UNL     1       2.926   7.055  17.858  0.00  0.00    +0.000 N 
ATOM      4  H   UNL     1       2.418   7.002  16.981  0.00  0.00    +0.000 HD
ENDROOT
BRANCH   3   5
ATOM      5  C   UNL     1       2.269   7.740  18.872  0.00  0.00    +0.000 A 
ATOM      6  C   UNL     1       2.034   7.251  20.104  0.00  0.00    +0.000 A 
ATOM      7  N   UNL     1       1.321   7.864  21.102  0.00  0.00    +0.000 NA
ATOM      8  C   UNL     1       0.806   8.999  20.785  0.00  0.00    +0.000 A 
ATOM      9  S   UNL     1      -0.193   9.917  21.855  0.00  0.00    +0.000 S 
ATOM     10  C   UNL     1      -0.341  11.094  20.579  0.00  0.00    +0.000 A 
ATOM     11  C   UNL     1      -1.194  12.293  20.823  0.00  0.00    +0.000 C 
ATOM     12  N   UNL     1       0.299  10.863  19.471  0.00  0.00    +0.000 NA
ATOM     13  N   UNL     1       0.963   9.652  19.591  0.00  0.00    +0.000 N 
ATOM     14  C   UNL     1       1.745   9.125  18.572  0.00  0.00    +0.000 A 
ATOM     15  O   UNL     1       2.016   9.655  17.496  0.00  0.00    +0.000 OA
ENDBRANCH   3   5
BRANCH   1  20
ATOM     16  C   UNL     1       6.425   3.751  13.401  0.00  0.00    +0.000 C 
ATOM     17  C   UNL     1       5.806   4.372  14.618  0.00  0.00    +0.000 A 
ATOM     18  C   UNL     1       5.694   5.758  14.730  0.00  0.00    +0.000 A 
ATOM     19  C   UNL     1       5.118   6.322  15.868  0.00  0.00    +0.000 A 
ATOM     20  C   UNL     1       4.638   5.517  16.916  0.00  0.00    +0.000 A 
ATOM     21  C   UNL     1       4.746   4.128  16.803  0.00  0.00    +0.000 A 
ATOM     22  C   UNL     1       5.330   3.565  15.660  0.00  0.00    +0.000 A 
ENDBRANCH   1  20
TORSDOF 2
ENDMDL
MODEL 4
REMARK VINA RESULT:      -6.9      6.980      9.119
REMARK  Name = 
REMARK  4 active torsions:
REMARK  status: ('A' for Active; 'I' for Inactive)
REMARK    1  A    between atoms: C_1  and  C_2
REMARK    2  A    between atoms: C_5  and  C_6
REMARK    3  A    between atoms: N_8  and  C_9
REMARK    4  A    between atoms: C_14  and  C_15
REMARK                            x       y       z     vdW  Elec       q    Type
REMARK                         _______ _______ _______ _____ _____    ______ ____
ROOT
ATOM      1  C   UNL     1       2.320   6.700  19.539  0.00  0.00    +0.000 C 
ATOM      2  O   UNL     1       1.838   6.041  20.462  0.00  0.00    +0.000 OA
ATOM      3  N   UNL     1       2.120   8.065  19.396  0.00  0.00    +0.000 N 
ATOM      4  H   UNL     1       2.291   8.506  18.498  0.00  0.00    +0.000 HD
ENDROOT
BRANCH   3   5
ATOM      5  C   UNL     1       1.391   8.833  20.294  0.00  0.00    +0.000 A 
ATOM      6  C   UNL     1       1.325   8.612  21.621  0.00  0.00    +0.000 A 
ATOM      7  N   UNL     1       0.555   9.298  22.524  0.00  0.00    +0.000 NA
ATOM      8  C   UNL     1      -0.197  10.209  22.017  0.00  0.00    +0.000 A 
ATOM      9  S   UNL     1      -1.306  11.149  22.951  0.00  0.00    +0.000 S 
ATOM     10  C   UNL     1      -1.758  11.945  21.469  0.00  0.00    +0.000 A 
ATOM     11  C   UNL     1      -2.823  12.987  21.526  0.00  0.00    +0.000 C 
ATOM     12  N   UNL     1      -1.142  11.585  20.382  0.00  0.00    +0.000 NA
ATOM     13  N   UNL     1      -0.239  10.582  20.699  0.00  0.00    +0.000 N 
ATOM     14  C   UNL     1       0.580   9.986  19.750  0.00  0.00    +0.000 A 
ATOM     15  O   UNL     1       0.681  10.290  18.563  0.00  0.00    +0.000 OA
ENDBRANCH   3   5
BRANCH   1  20
ATOM     16  C   UNL     1       5.462   4.109  15.394  0.00  0.00    +0.000 C 
ATOM     17  C   UNL     1       4.649   4.760  16.473  0.00  0.00    +0.000 A 
ATOM     18  C   UNL     1       4.760   6.129  16.719  0.00  0.00    +0.000 A 
ATOM     19  C   UNL     1       4.000   6.722  17.727  0.00  0.00    +0.000 A 
ATOM     20  C   UNL     1       3.109   5.964  18.508  0.00  0.00    +0.000 A 
ATOM     21  C   UNL     1       2.993   4.593  18.259  0.00  0.00    +0.000 A 
ATOM     22  C   UNL     1       3.762   4.000  17.249  0.00  0.00    +0.000 A 
ENDBRANCH   1  20
TORSDOF 2
ENDMDL
MODEL 5
REMARK VINA RESULT:      -6.9      8.390      9.232
REMARK  Name = 
REMARK  4 active torsions:
REMARK  status: ('A' for Active; 'I' for Inactive)
REMARK    1  A    between atoms: C_1  and  C_2
REMARK    2  A    between atoms: C_5  and  C_6
REMARK    3  A    between atoms: N_8  and  C_9
REMARK    4  A    between atoms: C_14  and  C_15
REMARK                            x       y       z     vdW  Elec       q    Type
REMARK                         _______ _______ _______ _____ _____    ______ ____
ROOT
ATOM      1  C   UNL     1       0.095  10.956  20.869  0.00  0.00    +0.000 C 
ATOM      2  O   UNL     1       1.201  11.399  21.182  0.00  0.00    +0.000 OA
ATOM      3  N   UNL     1      -0.079   9.916  19.968  0.00  0.00    +0.000 N 
ATOM      4  H   UNL     1      -0.984   9.773  19.533  0.00  0.00    +0.000 HD
ENDROOT
BRANCH   3   5
ATOM      5  C   UNL     1       0.973   9.244  19.358  0.00  0.00    +0.000 A 
ATOM      6  C   UNL     1       1.488   9.554  18.153  0.00  0.00    +0.000 A 
ATOM      7  N   UNL     1       2.470   8.867  17.486  0.00  0.00    +0.000 NA
ATOM      8  C   UNL     1       2.891   7.807  18.078  0.00  0.00    +0.000 A 
ATOM      9  S   UNL     1       4.069   6.744  17.392  0.00  0.00    +0.000 S 
ATOM     10  C   UNL     1       3.902   5.764  18.823  0.00  0.00    +0.000 A 
ATOM     11  C   UNL     1       4.702   4.509  18.914  0.00  0.00    +0.000 C 
ATOM     12  N   UNL     1       3.080   6.178  19.742  0.00  0.00    +0.000 NA
ATOM     13  N   UNL     1       2.497   7.359  19.311  0.00  0.00    +0.000 N 
ATOM     14  C   UNL     1       1.572   8.057  20.075  0.00  0.00    +0.000 A 
ATOM     15  O   UNL     1       1.203   7.792  21.218  0.00  0.00    +0.000 OA
ENDBRANCH   3   5
BRANCH   1  20
ATOM     16  C   UNL     1      -4.555  13.351  23.400  0.00  0.00    +0.000 C 
ATOM     17  C   UNL     1      -3.355  12.747  22.733  0.00  0.00    +0.000 A 
ATOM     18  C   UNL     1      -2.487  11.919  23.445  0.00  0.00    +0.000 A 
ATOM     19  C   UNL     1      -1.374  11.366  22.814  0.00  0.00    +0.000 A 
ATOM     20  C   UNL     1      -1.104  11.621  21.457  0.00  0.00    +0.000 A 
ATOM     21  C   UNL     1      -1.976  12.447  20.741  0.00  0.00    +0.000 A 
ATOM     22  C   UNL     1      -3.091  13.006  21.381  0.00  0.00    +0.000 A 
ENDBRANCH   1  20
TORSDOF 2
ENDMDL
MODEL 6
REMARK VINA RESULT:      -6.9      7.802      9.608
REMARK  Name = 
REMARK  4 active torsions:
REMARK  status: ('A' for Active; 'I' for Inactive)
REMARK    1  A    between atoms: C_1  and  C_2
REMARK    2  A    between atoms: C_5  and  C_6
REMARK    3  A    between atoms: N_8  and  C_9
REMARK    4  A    between atoms: C_14  and  C_15
REMARK                            x       y       z     vdW  Elec       q    Type
REMARK                         _______ _______ _______ _____ _____    ______ ____
ROOT
ATOM      1  C   UNL     1       1.938   8.173  18.936  0.00  0.00    +0.000 C 
ATOM      2  O   UNL     1       1.613   7.913  20.096  0.00  0.00    +0.000 OA
ATOM      3  N   UNL     1       1.519   9.314  18.268  0.00  0.00    +0.000 N 
ATOM      4  H   UNL     1       1.572   9.351  17.255  0.00  0.00    +0.000 HD
ENDROOT
BRANCH   3   5
ATOM      5  C   UNL     1       0.723  10.294  18.846  0.00  0.00    +0.000 A 
ATOM      6  C   UNL     1       1.119  11.129  19.826  0.00  0.00    +0.000 A 
ATOM      7  N   UNL     1       0.340  12.052  20.474  0.00  0.00    +0.000 NA
ATOM      8  C   UNL     1      -0.894  12.071  20.116  0.00  0.00    +0.000 A 
ATOM      9  S   UNL     1      -2.076  13.098  20.846  0.00  0.00    +0.000 S 
ATOM     10  C   UNL     1      -3.245  12.388  19.767  0.00  0.00    +0.000 A 
ATOM     11  C   UNL     1      -4.664  12.835  19.873  0.00  0.00    +0.000 C 
ATOM     12  N   UNL     1      -2.819  11.495  18.923  0.00  0.00    +0.000 NA
ATOM     13  N   UNL     1      -1.460  11.313  19.124  0.00  0.00    +0.000 N 
ATOM     14  C   UNL     1      -0.706  10.423  18.372  0.00  0.00    +0.000 A 
ATOM     15  O   UNL     1      -1.088   9.752  17.415  0.00  0.00    +0.000 OA
ENDBRANCH   3   5
BRANCH   1  20
ATOM     16  C   UNL     1       5.088   4.055  16.312  0.00  0.00    +0.000 C 
ATOM     17  C   UNL     1       4.281   5.131  16.977  0.00  0.00    +0.000 A 
ATOM     18  C   UNL     1       3.167   4.809  17.751  0.00  0.00    +0.000 A 
ATOM     19  C   UNL     1       2.425   5.819  18.362  0.00  0.00    +0.000 A 
ATOM     20  C   UNL     1       2.780   7.172  18.218  0.00  0.00    +0.000 A 
ATOM     21  C   UNL     1       3.900   7.496  17.446  0.00  0.00    +0.000 A 
ATOM     22  C   UNL     1       4.640   6.478  16.829  0.00  0.00    +0.000 A 
ENDBRANCH   1  20
TORSDOF 2
ENDMDL
MODEL 7
REMARK VINA RESULT:      -6.9      7.756      9.512
REMARK  Name = 
REMARK  4 active torsions:
REMARK  status: ('A' for Active; 'I' for Inactive)
REMARK    1  A    between atoms: C_1  and  C_2
REMARK    2  A    between atoms: C_5  and  C_6
REMARK    3  A    between atoms: N_8  and  C_9
REMARK    4  A    between atoms: C_14  and  C_15
REMARK                            x       y       z     vdW  Elec       q    Type
REMARK                         _______ _______ _______ _____ _____    ______ ____
ROOT
ATOM      1  C   UNL     1       1.977   8.190  18.884  0.00  0.00    +0.000 C 
ATOM      2  O   UNL     1       1.700   8.033  20.074  0.00  0.00    +0.000 OA
ATOM      3  N   UNL     1       1.536   9.274  18.138  0.00  0.00    +0.000 N 
ATOM      4  H   UNL     1       1.546   9.224  17.125  0.00  0.00    +0.000 HD
ENDROOT
BRANCH   3   5
ATOM      5  C   UNL     1       0.770  10.307  18.664  0.00  0.00    +0.000 A 
ATOM      6  C   UNL     1       1.231  11.261  19.495  0.00  0.00    +0.000 A 
ATOM      7  N   UNL     1       0.489  12.246  20.094  0.00  0.00    +0.000 NA
ATOM      8  C   UNL     1      -0.772  12.203  19.850  0.00  0.00    +0.000 A 
ATOM      9  S   UNL     1      -1.911  13.296  20.555  0.00  0.00    +0.000 S 
ATOM     10  C   UNL     1      -3.152  12.441  19.681  0.00  0.00    +0.000 A 
ATOM     11  C   UNL     1      -4.567  12.878  19.861  0.00  0.00    +0.000 C 
ATOM     12  N   UNL     1      -2.780  11.458  18.917  0.00  0.00    +0.000 NA
ATOM     13  N   UNL     1      -1.404  11.321  19.014  0.00  0.00    +0.000 N 
ATOM     14  C   UNL     1      -0.698  10.356  18.309  0.00  0.00    +0.000 A 
ATOM     15  O   UNL     1      -1.147   9.567  17.479  0.00  0.00    +0.000 OA
ENDBRANCH   3   5
BRANCH   1  20
ATOM     16  C   UNL     1       5.245   4.262  16.118  0.00  0.00    +0.000 C 
ATOM     17  C   UNL     1       4.395   5.262  16.844  0.00  0.00    +0.000 A 
ATOM     18  C   UNL     1       4.680   6.626  16.768  0.00  0.00    +0.000 A 
ATOM     19  C   UNL     1       3.883   7.545  17.450  0.00  0.00    +0.000 A 
ATOM     20  C   UNL     1       2.783   7.125  18.219  0.00  0.00    +0.000 A 
ATOM     21  C   UNL     1       2.494   5.759  18.292  0.00  0.00    +0.000 A 
ATOM     22  C   UNL     1       3.300   4.838  17.610  0.00  0.00    +0.000 A 
ENDBRANCH   1  20
TORSDOF 2
ENDMDL
MODEL 8
REMARK VINA RESULT:      -6.9      6.117      8.462
REMARK  Name = 
REMARK  4 active torsions:
REMARK  status: ('A' for Active; 'I' for Inactive)
REMARK    1  A    between atoms: C_1  and  C_2
REMARK    2  A    between atoms: C_5  and  C_6
REMARK    3  A    between atoms: N_8  and  C_9
REMARK    4  A    between atoms: C_14  and  C_15
REMARK                            x       y       z     vdW  Elec       q    Type
REMARK                         _______ _______ _______ _____ _____    ______ ____
ROOT
ATOM      1  C   UNL     1       3.453   6.485  18.515  0.00  0.00    +0.000 C 
ATOM      2  O   UNL     1       3.583   5.927  19.605  0.00  0.00    +0.000 OA
ATOM      3  N   UNL     1       2.656   7.605  18.326  0.00  0.00    +0.000 N 
ATOM      4  H   UNL     1       2.358   7.857  17.390  0.00  0.00    +0.000 HD
ENDROOT
BRANCH   3   5
ATOM      5  C   UNL     1       1.957   8.232  19.349  0.00  0.00    +0.000 A 
ATOM      6  C   UNL     1       1.767   7.718  20.579  0.00  0.00    +0.000 A 
ATOM      7  N   UNL     1       1.018   8.270  21.586  0.00  0.00    +0.000 NA
ATOM      8  C   UNL     1       0.419   9.366  21.281  0.00  0.00    +0.000 A 
ATOM      9  S   UNL     1      -0.638  10.201  22.364  0.00  0.00    +0.000 S 
ATOM     10  C   UNL     1      -0.880  11.373  21.098  0.00  0.00    +0.000 A 
ATOM     11  C   UNL     1      -1.816  12.505  21.357  0.00  0.00    +0.000 C 
ATOM     12  N   UNL     1      -0.232  11.198  19.985  0.00  0.00    +0.000 NA
ATOM     13  N   UNL     1       0.520  10.038  20.091  0.00  0.00    +0.000 N 
ATOM     14  C   UNL     1       1.332   9.577  19.064  0.00  0.00    +0.000 A 
ATOM     15  O   UNL     1       1.556  10.134  17.990  0.00  0.00    +0.000 OA
ENDBRANCH   3   5
BRANCH   1  20
ATOM     16  C   UNL     1       6.157   3.847  14.100  0.00  0.00    +0.000 C 
ATOM     17  C   UNL     1       5.458   4.545  15.229  0.00  0.00    +0.000 A 
ATOM     18  C   UNL     1       4.784   3.814  16.208  0.00  0.00    +0.000 A 
ATOM     19  C   UNL     1       4.137   4.475  17.251  0.00  0.00    +0.000 A 
ATOM     20  C   UNL     1       4.150   5.878  17.344  0.00  0.00    +0.000 A 
ATOM     21  C   UNL     1       4.829   6.611  16.366  0.00  0.00    +0.000 A 
ATOM     22  C   UNL     1       5.474   5.944  15.316  0.00  0.00    +0.000 A 
ENDBRANCH   1  20
TORSDOF 2
ENDMDL
MODEL 9
REMARK VINA RESULT:      -6.9      6.649      7.712
REMARK  Name = 
REMARK  4 active torsions:
REMARK  status: ('A' for Active; 'I' for Inactive)
REMARK    1  A    between atoms: C_1  and  C_2
REMARK    2  A    between atoms: C_5  and  C_6
REMARK    3  A    between atoms: N_8  and  C_9
REMARK    4  A    between atoms: C_14  and  C_15
REMARK                            x       y       z     vdW  Elec       q    Type
REMARK                         _______ _______ _______ _____ _____    ______ ____
ROOT
ATOM      1  C   UNL     1       0.960   9.230  19.723  0.00  0.00    +0.000 C 
ATOM      2  O   UNL     1       0.937   9.452  18.511  0.00  0.00    +0.000 OA
ATOM      3  N   UNL     1       1.599   8.133  20.282  0.00  0.00    +0.000 N 
ATOM      4  H   UNL     1       1.362   7.839  21.223  0.00  0.00    +0.000 HD
ENDROOT
BRANCH   3   5
ATOM      5  C   UNL     1       2.308   7.197  19.540  0.00  0.00    +0.000 A 
ATOM      6  C   UNL     1       3.013   7.471  18.426  0.00  0.00    +0.000 A 
ATOM      7  N   UNL     1       3.657   6.563  17.625  0.00  0.00    +0.000 NA
ATOM      8  C   UNL     1       3.522   5.334  17.978  0.00  0.00    +0.000 A 
ATOM      9  S   UNL     1       4.182   4.014  17.079  0.00  0.00    +0.000 S 
ATOM     10  C   UNL     1       3.479   2.955  18.270  0.00  0.00    +0.000 A 
ATOM     11  C   UNL     1       3.645   1.484  18.089  0.00  0.00    +0.000 C 
ATOM     12  N   UNL     1       2.837   3.504  19.258  0.00  0.00    +0.000 NA
ATOM     13  N   UNL     1       2.863   4.880  19.089  0.00  0.00    +0.000 N 
ATOM     14  C   UNL     1       2.266   5.754  19.987  0.00  0.00    +0.000 A 
ATOM     15  O   UNL     1       1.718   5.466  21.049  0.00  0.00    +0.000 OA
ENDBRANCH   3   5
BRANCH   1  20
ATOM     16  C   UNL     1      -1.986  12.655  23.377  0.00  0.00    +0.000 C 
ATOM     17  C   UNL     1      -1.222  11.787  22.422  0.00  0.00    +0.000 A 
ATOM     18  C   UNL     1      -0.684  10.571  22.843  0.00  0.00    +0.000 A 
ATOM     19  C   UNL     1       0.026   9.773  21.945  0.00  0.00    +0.000 A 
ATOM     20  C   UNL     1       0.211  10.169  20.609  0.00  0.00    +0.000 A 
ATOM     21  C   UNL     1      -0.332  11.386  20.185  0.00  0.00    +0.000 A 
ATOM     22  C   UNL     1      -1.041  12.187  21.091  0.00  0.00    +0.000 A 
ENDBRANCH   1  20
TORSDOF 2
ENDMDL
