MODEL 1
REMARK VINA RESULT:      -9.7      0.000      0.000
REMARK  Name = 
REMARK  9 active torsions:
REMARK  status: ('A' for Active; 'I' for Inactive)
REMARK    1  A    between atoms: C_1  and  O_2
REMARK    2  A    between atoms: O_2  and  C_3
REMARK    3  A    between atoms: C_6  and  C_7
REMARK    4  A    between atoms: C_7  and  C_8
REMARK    5  A    between atoms: C_12  and  C_13
REMARK    6  A    between atoms: C_18  and  O_19
REMARK    7  A    between atoms: O_19  and  C_20
REMARK    8  A    between atoms: N_25  and  C_26
REMARK    9  A    between atoms: C_30  and  C_31
REMARK                            x       y       z     vdW  Elec       q    Type
REMARK                         _______ _______ _______ _____ _____    ______ ____
ROOT
ATOM      1  C   UNL     1       2.986   5.640  18.651  0.00  0.00    +0.000 C 
ATOM      2  N   UNL     1       3.626   5.075  19.897  0.00  0.00    +0.000 NA
ATOM      3  C   UNL     1       3.114   3.907  20.003  0.00  0.00    +0.000 C 
ATOM      4  N   UNL     1       3.813   2.795  20.364  0.00  0.00    +0.000 N 
ATOM      5  N   UNL     1       1.892   3.764  19.508  0.00  0.00    +0.000 N 
ATOM      6  C   UNL     1       0.827   2.907  20.021  0.00  0.00    +0.000 C 
ATOM      7  C   UNL     1       1.856   4.570  18.433  0.00  0.00    +0.000 C 
ATOM      8  O   UNL     1       1.105   4.433  17.473  0.00  0.00    +0.000 OA
ATOM      9  H   UNL     1       4.443   2.606  19.589  0.00  0.00    +0.000 HD
ATOM     10  H   UNL     1       3.246   1.955  20.417  0.00  0.00    +0.000 HD
ENDROOT
BRANCH   1  14
ATOM     11  C   UNL     1       6.452   5.332  16.049  0.00  0.00    +0.000 A 
ATOM     12  C   UNL     1       5.306   4.586  15.826  0.00  0.00    +0.000 A 
ATOM     13  C   UNL     1       4.190   4.802  16.623  0.00  0.00    +0.000 A 
ATOM     14  C   UNL     1       4.183   5.742  17.687  0.00  0.00    +0.000 A 
ATOM     15  C   UNL     1       5.303   6.552  17.848  0.00  0.00    +0.000 A 
ATOM     16  C   UNL     1       6.439   6.352  17.031  0.00  0.00    +0.000 A 
ATOM     17  C   UNL     1       7.672   7.183  17.253  0.00  0.00    +0.000 C 
BRANCH  11  19
ATOM     18  C   UNL     1       7.581   4.973  13.986  0.00  0.00    +0.000 C 
ATOM     19  O   UNL     1       7.642   5.120  15.401  0.00  0.00    +0.000 OA
ENDBRANCH  11  19
ENDBRANCH   1  14
BRANCH   1  20
ATOM     20  C   UNL     1       2.327   7.027  18.682  0.00  0.00    +0.000 A 
ATOM     21  C   UNL     1       2.528   7.867  17.560  0.00  0.00    +0.000 A 
ATOM     22  C   UNL     1       2.115   9.179  17.540  0.00  0.00    +0.000 A 
ATOM     23  C   UNL     1       1.501   9.706  18.668  0.00  0.00    +0.000 A 
ATOM     24  C   UNL     1       1.250   8.920  19.825  0.00  0.00    +0.000 A 
ATOM     25  C   UNL     1       1.688   7.575  19.808  0.00  0.00    +0.000 A 
BRANCH  24  26
ATOM     26  C   UNL     1       0.500   9.533  20.955  0.00  0.00    +0.000 A 
ATOM     27  C   UNL     1       0.628   8.960  22.240  0.00  0.00    +0.000 A 
ATOM     28  C   UNL     1      -0.042   9.472  23.345  0.00  0.00    +0.000 A 
ATOM     29  C   UNL     1      -0.838  10.575  23.154  0.00  0.00    +0.000 A 
ATOM     30  N   UNL     1      -1.004  11.171  21.959  0.00  0.00    +0.000 NA
ATOM     31  C   UNL     1      -0.339  10.655  20.888  0.00  0.00    +0.000 A 
BRANCH  31  32
ATOM     32  O   UNL     1      -0.522  11.289  19.673  0.00  0.00    +0.000 OA
ATOM     33  C   UNL     1      -1.879  11.647  19.420  0.00  0.00    +0.000 C 
ENDBRANCH  31  32
ENDBRANCH  24  26
ENDBRANCH   1  20
TORSDOF 5
ENDMDL
MODEL 2
REMARK VINA RESULT:      -8.3      2.666      8.672
REMARK  Name = 
REMARK  9 active torsions:
REMARK  status: ('A' for Active; 'I' for Inactive)
REMARK    1  A    between atoms: C_1  and  O_2
REMARK    2  A    between atoms: O_2  and  C_3
REMARK    3  A    between atoms: C_6  and  C_7
REMARK    4  A    between atoms: C_7  and  C_8
REMARK    5  A    between atoms: C_12  and  C_13
REMARK    6  A    between atoms: C_18  and  O_19
REMARK    7  A    between atoms: O_19  and  C_20
REMARK    8  A    between atoms: N_25  and  C_26
REMARK    9  A    between atoms: C_30  and  C_31
REMARK                            x       y       z     vdW  Elec       q    Type
REMARK                         _______ _______ _______ _____ _____    ______ ____
ROOT
ATOM      1  C   UNL     1      -0.764  11.650  19.667  0.00  0.00    +0.000 C 
ATOM      2  N   UNL     1      -1.549  12.557  20.585  0.00  0.00    +0.000 NA
ATOM      3  C   UNL     1      -1.058  13.718  20.363  0.00  0.00    +0.000 C 
ATOM      4  N   UNL     1      -1.801  14.857  20.266  0.00  0.00    +0.000 N 
ATOM      5  N   UNL     1       0.212  13.747  19.984  0.00  0.00    +0.000 N 
ATOM      6  C   UNL     1       1.205  14.768  20.304  0.00  0.00    +0.000 C 
ATOM      7  C   UNL     1       0.378  12.641  19.238  0.00  0.00    +0.000 C 
ATOM      8  O   UNL     1       1.235  12.495  18.373  0.00  0.00    +0.000 OA
ATOM      9  H   UNL     1      -2.337  14.759  19.408  0.00  0.00    +0.000 HD
ATOM     10  H   UNL     1      -1.249  15.692  20.105  0.00  0.00    +0.000 HD
ENDROOT
BRANCH   1  14
ATOM     11  C   UNL     1      -3.405  10.545  16.399  0.00  0.00    +0.000 A 
ATOM     12  C   UNL     1      -2.155   9.966  16.553  0.00  0.00    +0.000 A 
ATOM     13  C   UNL     1      -1.397  10.276  17.672  0.00  0.00    +0.000 A 
ATOM     14  C   UNL     1      -1.839  11.192  18.663  0.00  0.00    +0.000 A 
ATOM     15  C   UNL     1      -3.130  11.700  18.552  0.00  0.00    +0.000 A 
ATOM     16  C   UNL     1      -3.917  11.376  17.423  0.00  0.00    +0.000 A 
ATOM     17  C   UNL     1      -5.286  11.980  17.272  0.00  0.00    +0.000 C 
BRANCH  11  19
ATOM     18  C   UNL     1      -3.524   9.973  14.092  0.00  0.00    +0.000 C 
ATOM     19  O   UNL     1      -4.184  10.399  15.279  0.00  0.00    +0.000 OA
ENDBRANCH  11  19
ENDBRANCH   1  14
BRANCH   1  20
ATOM     20  C   UNL     1      -0.105  10.376  20.217  0.00  0.00    +0.000 A 
ATOM     21  C   UNL     1      -0.187  10.152  21.612  0.00  0.00    +0.000 A 
ATOM     22  C   UNL     1       0.491   9.129  22.234  0.00  0.00    +0.000 A 
ATOM     23  C   UNL     1       1.302   8.301  21.470  0.00  0.00    +0.000 A 
ATOM     24  C   UNL     1       1.421   8.453  20.062  0.00  0.00    +0.000 A 
ATOM     25  C   UNL     1       0.708   9.516  19.459  0.00  0.00    +0.000 A 
BRANCH  24  26
ATOM     26  C   UNL     1       2.234   7.465  19.304  0.00  0.00    +0.000 A 
ATOM     27  C   UNL     1       3.028   7.925  18.229  0.00  0.00    +0.000 A 
ATOM     28  C   UNL     1       3.812   7.064  17.471  0.00  0.00    +0.000 A 
ATOM     29  C   UNL     1       3.804   5.732  17.805  0.00  0.00    +0.000 A 
ATOM     30  N   UNL     1       3.073   5.226  18.816  0.00  0.00    +0.000 NA
ATOM     31  C   UNL     1       2.311   6.085  19.547  0.00  0.00    +0.000 A 
BRANCH  31  32
ATOM     32  O   UNL     1       1.574   5.541  20.583  0.00  0.00    +0.000 OA
ATOM     33  C   UNL     1       2.191   4.400  21.177  0.00  0.00    +0.000 C 
ENDBRANCH  31  32
ENDBRANCH  24  26
ENDBRANCH   1  20
TORSDOF 5
ENDMDL
MODEL 3
REMARK VINA RESULT:      -8.2      2.458      8.709
REMARK  Name = 
REMARK  9 active torsions:
REMARK  status: ('A' for Active; 'I' for Inactive)
REMARK    1  A    between atoms: C_1  and  O_2
REMARK    2  A    between atoms: O_2  and  C_3
REMARK    3  A    between atoms: C_6  and  C_7
REMARK    4  A    between atoms: C_7  and  C_8
REMARK    5  A    between atoms: C_12  and  C_13
REMARK    6  A    between atoms: C_18  and  O_19
REMARK    7  A    between atoms: O_19  and  C_20
REMARK    8  A    between atoms: N_25  and  C_26
REMARK    9  A    between atoms: C_30  and  C_31
REMARK                            x       y       z     vdW  Elec       q    Type
REMARK                         _______ _______ _______ _____ _____    ______ ____
ROOT
ATOM      1  C   UNL     1       0.306  11.452  19.571  0.00  0.00    +0.000 C 
ATOM      2  N   UNL     1      -0.018  12.405  20.696  0.00  0.00    +0.000 NA
ATOM      3  C   UNL     1       0.732  13.417  20.467  0.00  0.00    +0.000 C 
ATOM      4  N   UNL     1       0.334  14.712  20.612  0.00  0.00    +0.000 N 
ATOM      5  N   UNL     1       1.872  13.162  19.840  0.00  0.00    +0.000 N 
ATOM      6  C   UNL     1       3.152  13.838  20.026  0.00  0.00    +0.000 C 
ATOM      7  C   UNL     1       1.586  12.157  18.994  0.00  0.00    +0.000 C 
ATOM      8  O   UNL     1       2.201  11.906  17.963  0.00  0.00    +0.000 OA
ATOM      9  H   UNL     1      -0.349  14.870  19.876  0.00  0.00    +0.000 HD
ATOM     10  H   UNL     1       1.062  15.388  20.405  0.00  0.00    +0.000 HD
ENDROOT
BRANCH   1  14
ATOM     11  C   UNL     1      -3.668  11.142  17.843  0.00  0.00    +0.000 A 
ATOM     12  C   UNL     1      -3.414  11.943  18.944  0.00  0.00    +0.000 A 
ATOM     13  C   UNL     1      -2.108  12.089  19.390  0.00  0.00    +0.000 A 
ATOM     14  C   UNL     1      -1.014  11.424  18.777  0.00  0.00    +0.000 A 
ATOM     15  C   UNL     1      -1.261  10.695  17.617  0.00  0.00    +0.000 A 
ATOM     16  C   UNL     1      -2.586  10.554  17.145  0.00  0.00    +0.000 A 
ATOM     17  C   UNL     1      -2.858   9.710  15.931  0.00  0.00    +0.000 C 
BRANCH  11  19
ATOM     18  C   UNL     1      -5.983  10.909  18.345  0.00  0.00    +0.000 C 
ATOM     19  O   UNL     1      -4.927  10.836  17.392  0.00  0.00    +0.000 OA
ENDBRANCH  11  19
ENDBRANCH   1  14
BRANCH   1  20
ATOM     20  C   UNL     1       0.665   9.990  19.875  0.00  0.00    +0.000 A 
ATOM     21  C   UNL     1       0.277   9.474  21.135  0.00  0.00    +0.000 A 
ATOM     22  C   UNL     1       0.675   8.232  21.576  0.00  0.00    +0.000 A 
ATOM     23  C   UNL     1       1.505   7.468  20.767  0.00  0.00    +0.000 A 
ATOM     24  C   UNL     1       1.922   7.912  19.484  0.00  0.00    +0.000 A 
ATOM     25  C   UNL     1       1.493   9.193  19.065  0.00  0.00    +0.000 A 
BRANCH  24  26
ATOM     26  C   UNL     1       2.732   6.993  18.639  0.00  0.00    +0.000 A 
ATOM     27  C   UNL     1       3.674   7.550  17.746  0.00  0.00    +0.000 A 
ATOM     28  C   UNL     1       4.466   6.758  16.923  0.00  0.00    +0.000 A 
ATOM     29  C   UNL     1       4.313   5.395  17.007  0.00  0.00    +0.000 A 
ATOM     30  N   UNL     1       3.436   4.798  17.836  0.00  0.00    +0.000 NA
ATOM     31  C   UNL     1       2.670   5.591  18.635  0.00  0.00    +0.000 A 
BRANCH  31  32
ATOM     32  O   UNL     1       1.782   4.953  19.482  0.00  0.00    +0.000 OA
ATOM     33  C   UNL     1       1.314   3.705  18.974  0.00  0.00    +0.000 C 
ENDBRANCH  31  32
ENDBRANCH  24  26
ENDBRANCH   1  20
TORSDOF 5
ENDMDL
MODEL 4
REMARK VINA RESULT:      -8.2      0.785      1.456
REMARK  Name = 
REMARK  9 active torsions:
REMARK  status: ('A' for Active; 'I' for Inactive)
REMARK    1  A    between atoms: C_1  and  O_2
REMARK    2  A    between atoms: O_2  and  C_3
REMARK    3  A    between atoms: C_6  and  C_7
REMARK    4  A    between atoms: C_7  and  C_8
REMARK    5  A    between atoms: C_12  and  C_13
REMARK    6  A    between atoms: C_18  and  O_19
REMARK    7  A    between atoms: O_19  and  C_20
REMARK    8  A    between atoms: N_25  and  C_26
REMARK    9  A    between atoms: C_30  and  C_31
REMARK                            x       y       z     vdW  Elec       q    Type
REMARK                         _______ _______ _______ _____ _____    ______ ____
ROOT
ATOM      1  C   UNL     1       2.786   5.348  19.034  0.00  0.00    +0.000 C 
ATOM      2  N   UNL     1       3.132   4.743  20.373  0.00  0.00    +0.000 NA
ATOM      3  C   UNL     1       2.580   3.589  20.341  0.00  0.00    +0.000 C 
ATOM      4  N   UNL     1       3.159   2.450  20.816  0.00  0.00    +0.000 N 
ATOM      5  N   UNL     1       1.488   3.490  19.594  0.00  0.00    +0.000 N 
ATOM      6  C   UNL     1       0.319   2.654  19.848  0.00  0.00    +0.000 C 
ATOM      7  C   UNL     1       1.702   4.315  18.555  0.00  0.00    +0.000 C 
ATOM      8  O   UNL     1       1.170   4.217  17.455  0.00  0.00    +0.000 OA
ATOM      9  H   UNL     1       3.935   2.257  20.187  0.00  0.00    +0.000 HD
ATOM     10  H   UNL     1       2.574   1.626  20.726  0.00  0.00    +0.000 HD
ENDROOT
BRANCH   1  14
ATOM     11  C   UNL     1       6.694   6.163  17.321  0.00  0.00    +0.000 A 
ATOM     12  C   UNL     1       6.479   6.191  18.689  0.00  0.00    +0.000 A 
ATOM     13  C   UNL     1       5.240   5.818  19.189  0.00  0.00    +0.000 A 
ATOM     14  C   UNL     1       4.162   5.433  18.348  0.00  0.00    +0.000 A 
ATOM     15  C   UNL     1       4.410   5.318  16.983  0.00  0.00    +0.000 A 
ATOM     16  C   UNL     1       5.675   5.679  16.466  0.00  0.00    +0.000 A 
ATOM     17  C   UNL     1       5.919   5.618  14.983  0.00  0.00    +0.000 C 
BRANCH  11  19
ATOM     18  C   UNL     1       8.307   7.901  17.120  0.00  0.00    +0.000 C 
ATOM     19  O   UNL     1       7.838   6.619  16.716  0.00  0.00    +0.000 OA
ENDBRANCH  11  19
ENDBRANCH   1  14
BRANCH   1  20
ATOM     20  C   UNL     1       2.169   6.753  18.957  0.00  0.00    +0.000 A 
ATOM     21  C   UNL     1       2.402   7.501  17.777  0.00  0.00    +0.000 A 
ATOM     22  C   UNL     1       2.029   8.820  17.657  0.00  0.00    +0.000 A 
ATOM     23  C   UNL     1       1.425   9.447  18.739  0.00  0.00    +0.000 A 
ATOM     24  C   UNL     1       1.145   8.757  19.948  0.00  0.00    +0.000 A 
ATOM     25  C   UNL     1       1.541   7.402  20.034  0.00  0.00    +0.000 A 
BRANCH  24  26
ATOM     26  C   UNL     1       0.408   9.474  21.024  0.00  0.00    +0.000 A 
ATOM     27  C   UNL     1       0.452   8.953  22.337  0.00  0.00    +0.000 A 
ATOM     28  C   UNL     1      -0.212   9.563  23.394  0.00  0.00    +0.000 A 
ATOM     29  C   UNL     1      -0.917  10.711  23.129  0.00  0.00    +0.000 A 
ATOM     30  N   UNL     1      -1.000  11.263  21.904  0.00  0.00    +0.000 NA
ATOM     31  C   UNL     1      -0.343  10.651  20.880  0.00  0.00    +0.000 A 
BRANCH  31  32
ATOM     32  O   UNL     1      -0.440  11.241  19.633  0.00  0.00    +0.000 OA
ATOM     33  C   UNL     1      -1.777  11.309  19.142  0.00  0.00    +0.000 C 
ENDBRANCH  31  32
ENDBRANCH  24  26
ENDBRANCH   1  20
TORSDOF 5
ENDMDL
MODEL 5
REMARK VINA RESULT:      -8.2      1.386      2.516
REMARK  Name = 
REMARK  9 active torsions:
REMARK  status: ('A' for Active; 'I' for Inactive)
REMARK    1  A    between atoms: C_1  and  O_2
REMARK    2  A    between atoms: O_2  and  C_3
REMARK    3  A    between atoms: C_6  and  C_7
REMARK    4  A    between atoms: C_7  and  C_8
REMARK    5  A    between atoms: C_12  and  C_13
REMARK    6  A    between atoms: C_18  and  O_19
REMARK    7  A    between atoms: O_19  and  C_20
REMARK    8  A    between atoms: N_25  and  C_26
REMARK    9  A    between atoms: C_30  and  C_31
REMARK                            x       y       z     vdW  Elec       q    Type
REMARK                         _______ _______ _______ _____ _____    ______ ____
ROOT
ATOM      1  C   UNL     1       3.055   4.619  18.518  0.00  0.00    +0.000 C 
ATOM      2  N   UNL     1       3.736   3.463  19.211  0.00  0.00    +0.000 NA
ATOM      3  C   UNL     1       3.110   2.433  18.778  0.00  0.00    +0.000 C 
ATOM      4  N   UNL     1       3.714   1.261  18.432  0.00  0.00    +0.000 N 
ATOM      5  N   UNL     1       1.842   2.626  18.443  0.00  0.00    +0.000 N 
ATOM      6  C   UNL     1       0.739   1.680  18.585  0.00  0.00    +0.000 C 
ATOM      7  C   UNL     1       1.801   3.871  17.938  0.00  0.00    +0.000 C 
ATOM      8  O   UNL     1       0.958   4.284  17.148  0.00  0.00    +0.000 OA
ATOM      9  H   UNL     1       4.249   1.468  17.593  0.00  0.00    +0.000 HD
ATOM     10  H   UNL     1       3.065   0.543  18.126  0.00  0.00    +0.000 HD
ENDROOT
BRANCH   1  14
ATOM     11  C   UNL     1       6.378   5.517  15.867  0.00  0.00    +0.000 A 
ATOM     12  C   UNL     1       5.347   4.675  15.483  0.00  0.00    +0.000 A 
ATOM     13  C   UNL     1       4.258   4.507  16.325  0.00  0.00    +0.000 A 
ATOM     14  C   UNL     1       4.167   5.145  17.591  0.00  0.00    +0.000 A 
ATOM     15  C   UNL     1       5.159   6.059  17.932  0.00  0.00    +0.000 A 
ATOM     16  C   UNL     1       6.265   6.251  17.073  0.00  0.00    +0.000 A 
ATOM     17  C   UNL     1       7.368   7.188  17.476  0.00  0.00    +0.000 C 
BRANCH  11  19
ATOM     18  C   UNL     1       7.568   5.153  13.839  0.00  0.00    +0.000 C 
ATOM     19  O   UNL     1       7.549   5.664  15.167  0.00  0.00    +0.000 OA
ENDBRANCH  11  19
ENDBRANCH   1  14
BRANCH   1  20
ATOM     20  C   UNL     1       2.556   5.823  19.332  0.00  0.00    +0.000 A 
ATOM     21  C   UNL     1       2.101   5.573  20.649  0.00  0.00    +0.000 A 
ATOM     22  C   UNL     1       1.494   6.543  21.413  0.00  0.00    +0.000 A 
ATOM     23  C   UNL     1       1.301   7.804  20.866  0.00  0.00    +0.000 A 
ATOM     24  C   UNL     1       1.745   8.134  19.558  0.00  0.00    +0.000 A 
ATOM     25  C   UNL     1       2.366   7.111  18.803  0.00  0.00    +0.000 A 
BRANCH  24  26
ATOM     26  C   UNL     1       1.587   9.534  19.082  0.00  0.00    +0.000 A 
ATOM     27  C   UNL     1       2.527  10.045  18.159  0.00  0.00    +0.000 A 
ATOM     28  C   UNL     1       2.448  11.344  17.670  0.00  0.00    +0.000 A 
ATOM     29  C   UNL     1       1.410  12.129  18.107  0.00  0.00    +0.000 A 
ATOM     30  N   UNL     1       0.480  11.707  18.984  0.00  0.00    +0.000 NA
ATOM     31  C   UNL     1       0.573  10.432  19.452  0.00  0.00    +0.000 A 
BRANCH  31  32
ATOM     32  O   UNL     1      -0.398  10.021  20.346  0.00  0.00    +0.000 OA
ATOM     33  C   UNL     1      -0.609  10.941  21.415  0.00  0.00    +0.000 C 
ENDBRANCH  31  32
ENDBRANCH  24  26
ENDBRANCH   1  20
TORSDOF 5
ENDMDL
MODEL 6
REMARK VINA RESULT:      -8.2      2.470      8.464
REMARK  Name = 
REMARK  9 active torsions:
REMARK  status: ('A' for Active; 'I' for Inactive)
REMARK    1  A    between atoms: C_1  and  O_2
REMARK    2  A    between atoms: O_2  and  C_3
REMARK    3  A    between atoms: C_6  and  C_7
REMARK    4  A    between atoms: C_7  and  C_8
REMARK    5  A    between atoms: C_12  and  C_13
REMARK    6  A    between atoms: C_18  and  O_19
REMARK    7  A    between atoms: O_19  and  C_20
REMARK    8  A    between atoms: N_25  and  C_26
REMARK    9  A    between atoms: C_30  and  C_31
REMARK                            x       y       z     vdW  Elec       q    Type
REMARK                         _______ _______ _______ _____ _____    ______ ____
ROOT
ATOM      1  C   UNL     1       0.119  10.930  19.572  0.00  0.00    +0.000 C 
ATOM      2  N   UNL     1      -0.361  11.790  20.717  0.00  0.00    +0.000 NA
ATOM      3  C   UNL     1       0.254  12.899  20.548  0.00  0.00    +0.000 C 
ATOM      4  N   UNL     1      -0.317  14.125  20.721  0.00  0.00    +0.000 N 
ATOM      5  N   UNL     1       1.436  12.820  19.951  0.00  0.00    +0.000 N 
ATOM      6  C   UNL     1       2.608  13.652  20.204  0.00  0.00    +0.000 C 
ATOM      7  C   UNL     1       1.311  11.819  19.063  0.00  0.00    +0.000 C 
ATOM      8  O   UNL     1       1.984  11.690  18.047  0.00  0.00    +0.000 OA
ATOM      9  H   UNL     1      -0.994  14.218  19.968  0.00  0.00    +0.000 HD
ATOM     10  H   UNL     1       0.320  14.898  20.561  0.00  0.00    +0.000 HD
ENDROOT
BRANCH   1  14
ATOM     11  C   UNL     1      -3.159  10.662  16.734  0.00  0.00    +0.000 A 
ATOM     12  C   UNL     1      -1.988   9.943  16.563  0.00  0.00    +0.000 A 
ATOM     13  C   UNL     1      -1.016   9.982  17.553  0.00  0.00    +0.000 A 
ATOM     14  C   UNL     1      -1.161  10.758  18.733  0.00  0.00    +0.000 A 
ATOM     15  C   UNL     1      -2.375  11.405  18.943  0.00  0.00    +0.000 A 
ATOM     16  C   UNL     1      -3.378  11.357  17.948  0.00  0.00    +0.000 A 
ATOM     17  C   UNL     1      -4.663  12.112  18.148  0.00  0.00    +0.000 C 
BRANCH  11  19
ATOM     18  C   UNL     1      -3.874  10.156  14.521  0.00  0.00    +0.000 C 
ATOM     19  O   UNL     1      -4.129  10.786  15.772  0.00  0.00    +0.000 OA
ENDBRANCH  11  19
ENDBRANCH   1  14
BRANCH   1  20
ATOM     20  C   UNL     1       0.661   9.518  19.840  0.00  0.00    +0.000 A 
ATOM     21  C   UNL     1       0.435   8.968  21.125  0.00  0.00    +0.000 A 
ATOM     22  C   UNL     1       1.001   7.780  21.527  0.00  0.00    +0.000 A 
ATOM     23  C   UNL     1       1.842   7.108  20.650  0.00  0.00    +0.000 A 
ATOM     24  C   UNL     1       2.103   7.589  19.339  0.00  0.00    +0.000 A 
ATOM     25  C   UNL     1       1.502   8.813  18.962  0.00  0.00    +0.000 A 
BRANCH  24  26
ATOM     26  C   UNL     1       2.938   6.760  18.428  0.00  0.00    +0.000 A 
ATOM     27  C   UNL     1       4.010   7.378  17.746  0.00  0.00    +0.000 A 
ATOM     28  C   UNL     1       4.834   6.672  16.877  0.00  0.00    +0.000 A 
ATOM     29  C   UNL     1       4.580   5.334  16.701  0.00  0.00    +0.000 A 
ATOM     30  N   UNL     1       3.577   4.682  17.319  0.00  0.00    +0.000 NA
ATOM     31  C   UNL     1       2.781   5.391  18.168  0.00  0.00    +0.000 A 
BRANCH  31  32
ATOM     32  O   UNL     1       1.762   4.697  18.794  0.00  0.00    +0.000 OA
ATOM     33  C   UNL     1       1.963   3.285  18.806  0.00  0.00    +0.000 C 
ENDBRANCH  31  32
ENDBRANCH  24  26
ENDBRANCH   1  20
TORSDOF 5
ENDMDL
MODEL 7
REMARK VINA RESULT:      -8.1      1.055      1.677
REMARK  Name = 
REMARK  9 active torsions:
REMARK  status: ('A' for Active; 'I' for Inactive)
REMARK    1  A    between atoms: C_1  and  O_2
REMARK    2  A    between atoms: O_2  and  C_3
REMARK    3  A    between atoms: C_6  and  C_7
REMARK    4  A    between atoms: C_7  and  C_8
REMARK    5  A    between atoms: C_12  and  C_13
REMARK    6  A    between atoms: C_18  and  O_19
REMARK    7  A    between atoms: O_19  and  C_20
REMARK    8  A    between atoms: N_25  and  C_26
REMARK    9  A    between atoms: C_30  and  C_31
REMARK                            x       y       z     vdW  Elec       q    Type
REMARK                         _______ _______ _______ _____ _____    ______ ____
ROOT
ATOM      1  C   UNL     1       2.947   5.845  18.656  0.00  0.00    +0.000 C 
ATOM      2  N   UNL     1       3.587   5.290  19.906  0.00  0.00    +0.000 NA
ATOM      3  C   UNL     1       3.081   4.120  20.017  0.00  0.00    +0.000 C 
ATOM      4  N   UNL     1       3.787   3.013  20.385  0.00  0.00    +0.000 N 
ATOM      5  N   UNL     1       1.861   3.967  19.520  0.00  0.00    +0.000 N 
ATOM      6  C   UNL     1       0.801   3.106  20.034  0.00  0.00    +0.000 C 
ATOM      7  C   UNL     1       1.824   4.767  18.440  0.00  0.00    +0.000 C 
ATOM      8  O   UNL     1       1.076   4.620  17.480  0.00  0.00    +0.000 OA
ATOM      9  H   UNL     1       4.419   2.825  19.612  0.00  0.00    +0.000 HD
ATOM     10  H   UNL     1       3.225   2.170  20.440  0.00  0.00    +0.000 HD
ENDROOT
BRANCH   1  14
ATOM     11  C   UNL     1       6.425   5.547  16.070  0.00  0.00    +0.000 A 
ATOM     12  C   UNL     1       5.291   4.782  15.855  0.00  0.00    +0.000 A 
ATOM     13  C   UNL     1       4.170   4.993  16.644  0.00  0.00    +0.000 A 
ATOM     14  C   UNL     1       4.145   5.950  17.694  0.00  0.00    +0.000 A 
ATOM     15  C   UNL     1       5.253   6.778  17.847  0.00  0.00    +0.000 A 
ATOM     16  C   UNL     1       6.394   6.582  17.036  0.00  0.00    +0.000 A 
ATOM     17  C   UNL     1       7.615   7.434  17.249  0.00  0.00    +0.000 C 
BRANCH  11  19
ATOM     18  C   UNL     1       7.559   5.092  14.028  0.00  0.00    +0.000 C 
ATOM     19  O   UNL     1       7.620   5.342  15.429  0.00  0.00    +0.000 OA
ENDBRANCH  11  19
ENDBRANCH   1  14
BRANCH   1  20
ATOM     20  C   UNL     1       2.279   7.228  18.678  0.00  0.00    +0.000 A 
ATOM     21  C   UNL     1       2.471   8.060  17.549  0.00  0.00    +0.000 A 
ATOM     22  C   UNL     1       2.050   9.370  17.521  0.00  0.00    +0.000 A 
ATOM     23  C   UNL     1       1.437   9.901  18.647  0.00  0.00    +0.000 A 
ATOM     24  C   UNL     1       1.195   9.124  19.811  0.00  0.00    +0.000 A 
ATOM     25  C   UNL     1       1.641   7.781  19.802  0.00  0.00    +0.000 A 
BRANCH  24  26
ATOM     26  C   UNL     1       0.445   9.740  20.938  0.00  0.00    +0.000 A 
ATOM     27  C   UNL     1      -0.640  10.595  20.641  0.00  0.00    +0.000 A 
ATOM     28  C   UNL     1      -1.387  11.210  21.638  0.00  0.00    +0.000 A 
ATOM     29  C   UNL     1      -1.045  10.955  22.943  0.00  0.00    +0.000 A 
ATOM     30  N   UNL     1      -0.025  10.151  23.298  0.00  0.00    +0.000 NA
ATOM     31  C   UNL     1       0.696   9.557  22.307  0.00  0.00    +0.000 A 
BRANCH  31  32
ATOM     32  O   UNL     1       1.734   8.731  22.697  0.00  0.00    +0.000 OA
ATOM     33  C   UNL     1       2.758   9.412  23.419  0.00  0.00    +0.000 C 
ENDBRANCH  31  32
ENDBRANCH  24  26
ENDBRANCH   1  20
TORSDOF 5
ENDMDL
MODEL 8
REMARK VINA RESULT:      -8.1      2.455      8.164
REMARK  Name = 
REMARK  9 active torsions:
REMARK  status: ('A' for Active; 'I' for Inactive)
REMARK    1  A    between atoms: C_1  and  O_2
REMARK    2  A    between atoms: O_2  and  C_3
REMARK    3  A    between atoms: C_6  and  C_7
REMARK    4  A    between atoms: C_7  and  C_8
REMARK    5  A    between atoms: C_12  and  C_13
REMARK    6  A    between atoms: C_18  and  O_19
REMARK    7  A    between atoms: O_19  and  C_20
REMARK    8  A    between atoms: N_25  and  C_26
REMARK    9  A    between atoms: C_30  and  C_31
REMARK                            x       y       z     vdW  Elec       q    Type
REMARK                         _______ _______ _______ _____ _____    ______ ____
ROOT
ATOM      1  C   UNL     1       3.488   4.528  18.294  0.00  0.00    +0.000 C 
ATOM      2  N   UNL     1       2.233   3.975  17.661  0.00  0.00    +0.000 NA
ATOM      3  C   UNL     1       1.963   2.942  18.367  0.00  0.00    +0.000 C 
ATOM      4  N   UNL     1       0.706   2.589  18.757  0.00  0.00    +0.000 N 
ATOM      5  N   UNL     1       3.002   2.333  18.924  0.00  0.00    +0.000 N 
ATOM      6  C   UNL     1       3.163   0.902  19.160  0.00  0.00    +0.000 C 
ATOM      7  C   UNL     1       3.861   3.322  19.229  0.00  0.00    +0.000 C 
ATOM      8  O   UNL     1       4.719   3.265  20.103  0.00  0.00    +0.000 OA
ATOM      9  H   UNL     1       0.419   3.300  19.425  0.00  0.00    +0.000 HD
ATOM     10  H   UNL     1       0.671   1.731  19.297  0.00  0.00    +0.000 HD
ENDROOT
BRANCH   1  14
ATOM     11  C   UNL     1       1.578   8.002  20.072  0.00  0.00    +0.000 A 
ATOM     12  C   UNL     1       1.815   6.849  20.802  0.00  0.00    +0.000 A 
ATOM     13  C   UNL     1       2.524   5.809  20.217  0.00  0.00    +0.000 A 
ATOM     14  C   UNL     1       2.996   5.866  18.879  0.00  0.00    +0.000 A 
ATOM     15  C   UNL     1       2.835   7.059  18.182  0.00  0.00    +0.000 A 
ATOM     16  C   UNL     1       2.130   8.131  18.775  0.00  0.00    +0.000 A 
ATOM     17  C   UNL     1       1.899   9.395  17.993  0.00  0.00    +0.000 C 
BRANCH  11  19
ATOM     18  C   UNL     1       0.854   9.343  21.900  0.00  0.00    +0.000 C 
ATOM     19  O   UNL     1       0.792   9.038  20.510  0.00  0.00    +0.000 OA
ENDBRANCH  11  19
ENDBRANCH   1  14
BRANCH   1  20
ATOM     20  C   UNL     1       4.713   4.853  17.426  0.00  0.00    +0.000 A 
ATOM     21  C   UNL     1       5.645   5.786  17.941  0.00  0.00    +0.000 A 
ATOM     22  C   UNL     1       6.696   6.265  17.193  0.00  0.00    +0.000 A 
ATOM     23  C   UNL     1       6.833   5.837  15.879  0.00  0.00    +0.000 A 
ATOM     24  C   UNL     1       5.947   4.891  15.299  0.00  0.00    +0.000 A 
ATOM     25  C   UNL     1       4.880   4.420  16.099  0.00  0.00    +0.000 A 
BRANCH  24  26
ATOM     26  C   UNL     1       6.221   4.412  13.917  0.00  0.00    +0.000 A 
ATOM     27  C   UNL     1       5.266   3.581  13.289  0.00  0.00    +0.000 A 
ATOM     28  C   UNL     1       5.449   3.090  12.002  0.00  0.00    +0.000 A 
ATOM     29  C   UNL     1       6.598   3.448  11.340  0.00  0.00    +0.000 A 
ATOM     30  N   UNL     1       7.548   4.236  11.877  0.00  0.00    +0.000 NA
ATOM     31  C   UNL     1       7.350   4.707  13.140  0.00  0.00    +0.000 A 
BRANCH  31  32
ATOM     32  O   UNL     1       8.338   5.519  13.666  0.00  0.00    +0.000 OA
ATOM     33  C   UNL     1       9.061   6.245  12.674  0.00  0.00    +0.000 C 
ENDBRANCH  31  32
ENDBRANCH  24  26
ENDBRANCH   1  20
TORSDOF 5
ENDMDL
MODEL 9
REMARK VINA RESULT:      -8.0      0.651      1.330
REMARK  Name = 
REMARK  9 active torsions:
REMARK  status: ('A' for Active; 'I' for Inactive)
REMARK    1  A    between atoms: C_1  and  O_2
REMARK    2  A    between atoms: O_2  and  C_3
REMARK    3  A    between atoms: C_6  and  C_7
REMARK    4  A    between atoms: C_7  and  C_8
REMARK    5  A    between atoms: C_12  and  C_13
REMARK    6  A    between atoms: C_18  and  O_19
REMARK    7  A    between atoms: O_19  and  C_20
REMARK    8  A    between atoms: N_25  and  C_26
REMARK    9  A    between atoms: C_30  and  C_31
REMARK                            x       y       z     vdW  Elec       q    Type
REMARK                         _______ _______ _______ _____ _____    ______ ____
ROOT
ATOM      1  C   UNL     1       3.108   5.127  18.829  0.00  0.00    +0.000 C 
ATOM      2  N   UNL     1       3.704   4.603  20.113  0.00  0.00    +0.000 NA
ATOM      3  C   UNL     1       3.099   3.492  20.303  0.00  0.00    +0.000 C 
ATOM      4  N   UNL     1       3.707   2.355  20.745  0.00  0.00    +0.000 N 
ATOM      5  N   UNL     1       1.868   3.413  19.816  0.00  0.00    +0.000 N 
ATOM      6  C   UNL     1       0.739   2.684  20.387  0.00  0.00    +0.000 C 
ATOM      7  C   UNL     1       1.894   4.139  18.685  0.00  0.00    +0.000 C 
ATOM      8  O   UNL     1       1.131   3.994  17.736  0.00  0.00    +0.000 OA
ATOM      9  H   UNL     1       4.316   2.060  19.987  0.00  0.00    +0.000 HD
ATOM     10  H   UNL     1       3.074   1.570  20.857  0.00  0.00    +0.000 HD
ENDROOT
BRANCH   1  14
ATOM     11  C   UNL     1       6.499   5.557  16.147  0.00  0.00    +0.000 A 
ATOM     12  C   UNL     1       6.558   5.971  17.468  0.00  0.00    +0.000 A 
ATOM     13  C   UNL     1       5.486   5.713  18.309  0.00  0.00    +0.000 A 
ATOM     14  C   UNL     1       4.306   5.061  17.862  0.00  0.00    +0.000 A 
ATOM     15  C   UNL     1       4.287   4.567  16.562  0.00  0.00    +0.000 A 
ATOM     16  C   UNL     1       5.383   4.809  15.702  0.00  0.00    +0.000 A 
ATOM     17  C   UNL     1       5.331   4.332  14.277  0.00  0.00    +0.000 C 
BRANCH  11  19
ATOM     18  C   UNL     1       7.788   4.831  14.283  0.00  0.00    +0.000 C 
ATOM     19  O   UNL     1       7.449   5.861  15.206  0.00  0.00    +0.000 OA
ENDBRANCH  11  19
ENDBRANCH   1  14
BRANCH   1  20
ATOM     20  C   UNL     1       2.564   6.562  18.757  0.00  0.00    +0.000 A 
ATOM     21  C   UNL     1       2.932   7.341  17.634  0.00  0.00    +0.000 A 
ATOM     22  C   UNL     1       2.631   8.680  17.537  0.00  0.00    +0.000 A 
ATOM     23  C   UNL     1       1.963   9.294  18.588  0.00  0.00    +0.000 A 
ATOM     24  C   UNL     1       1.547   8.574  19.739  0.00  0.00    +0.000 A 
ATOM     25  C   UNL     1       1.874   7.200  19.803  0.00  0.00    +0.000 A 
BRANCH  24  26
ATOM     26  C   UNL     1       0.752   9.285  20.777  0.00  0.00    +0.000 A 
ATOM     27  C   UNL     1       0.883   8.880  22.124  0.00  0.00    +0.000 A 
ATOM     28  C   UNL     1       0.173   9.493  23.150  0.00  0.00    +0.000 A 
ATOM     29  C   UNL     1      -0.668  10.526  22.816  0.00  0.00    +0.000 A 
ATOM     30  N   UNL     1      -0.841  10.963  21.554  0.00  0.00    +0.000 NA
ATOM     31  C   UNL     1      -0.136  10.350  20.563  0.00  0.00    +0.000 A 
BRANCH  31  32
ATOM     32  O   UNL     1      -0.326  10.822  19.277  0.00  0.00    +0.000 OA
ATOM     33  C   UNL     1      -1.573  10.428  18.709  0.00  0.00    +0.000 C 
ENDBRANCH  31  32
ENDBRANCH  24  26
ENDBRANCH   1  20
TORSDOF 5
ENDMDL
