MODEL 1
REMARK VINA RESULT:      -9.2      0.000      0.000
REMARK  Name = 
REMARK  4 active torsions:
REMARK  status: ('A' for Active; 'I' for Inactive)
REMARK    1  A    between atoms: C_1  and  C_2
REMARK    2  A    between atoms: C_5  and  C_6
REMARK    3  A    between atoms: C_8  and  C_9
REMARK    4  A    between atoms: C_12  and  C_13
REMARK                            x       y       z     vdW  Elec       q    Type
REMARK                         _______ _______ _______ _____ _____    ______ ____
ROOT
ATOM      1  C   UNL     1       4.225   4.765  17.409  0.00  0.00    +0.000 C 
ATOM      2  C   UNL     1       3.863   6.233  17.739  0.00  0.00    +0.000 C 
ATOM      3  C   UNL     1       3.277   6.435  19.160  0.00  0.00    +0.000 C 
ATOM      4  N   UNL     1       2.793   5.166  19.699  0.00  0.00    +0.000 N 
ATOM      5  N   UNL     1       1.692   4.939  20.425  0.00  0.00    +0.000 NA
ATOM      6  C   UNL     1       1.804   3.631  20.652  0.00  0.00    +0.000 A 
ATOM      7  N   UNL     1       0.909   2.842  21.259  0.00  0.00    +0.000 N 
ATOM      8  N   UNL     1       2.915   3.032  20.138  0.00  0.00    +0.000 NA
ATOM      9  C   UNL     1       3.512   4.011  19.511  0.00  0.00    +0.000 A 
ATOM     10  N   UNL     1       4.550   4.013  18.634  0.00  0.00    +0.000 N 
ATOM     11  H   UNL     1       1.383   2.202  21.887  0.00  0.00    +0.000 HD
ATOM     12  H   UNL     1       0.498   2.204  20.583  0.00  0.00    +0.000 HD
ATOM     13  H   UNL     1       5.448   4.290  19.026  0.00  0.00    +0.000 HD
ENDROOT
BRANCH   1  18
ATOM     14  C   UNL     1       7.896   5.080  12.915  0.00  0.00    +0.000 C 
ATOM     15  C   UNL     1       7.017   4.796  14.096  0.00  0.00    +0.000 A 
ATOM     16  C   UNL     1       5.787   4.148  13.955  0.00  0.00    +0.000 A 
ATOM     17  C   UNL     1       4.907   4.047  15.040  0.00  0.00    +0.000 A 
ATOM     18  C   UNL     1       5.242   4.586  16.293  0.00  0.00    +0.000 A 
ATOM     19  C   UNL     1       6.516   5.163  16.438  0.00  0.00    +0.000 A 
ATOM     20  C   UNL     1       7.391   5.268  15.355  0.00  0.00    +0.000 A 
ENDBRANCH   1  18
BRANCH   3  21
ATOM     21  C   UNL     1       2.340   7.626  19.211  0.00  0.00    +0.000 A 
ATOM     22  C   UNL     1       1.705   8.048  20.387  0.00  0.00    +0.000 A 
ATOM     23  C   UNL     1       0.812   9.126  20.368  0.00  0.00    +0.000 A 
ATOM     24  C   UNL     1       0.523   9.798  19.171  0.00  0.00    +0.000 A 
ATOM     25  C   UNL     1      -0.410  10.970  19.143  0.00  0.00    +0.000 C 
ATOM     26  C   UNL     1       1.133   9.364  17.995  0.00  0.00    +0.000 A 
ATOM     27  C   UNL     1       2.028   8.292  18.012  0.00  0.00    +0.000 A 
ENDBRANCH   3  21
TORSDOF 2
ENDMDL
MODEL 2
REMARK VINA RESULT:      -8.9      0.367      1.046
REMARK  Name = 
REMARK  4 active torsions:
REMARK  status: ('A' for Active; 'I' for Inactive)
REMARK    1  A    between atoms: C_1  and  C_2
REMARK    2  A    between atoms: C_5  and  C_6
REMARK    3  A    between atoms: C_8  and  C_9
REMARK    4  A    between atoms: C_12  and  C_13
REMARK                            x       y       z     vdW  Elec       q    Type
REMARK                         _______ _______ _______ _____ _____    ______ ____
ROOT
ATOM      1  C   UNL     1       4.428   4.622  17.502  0.00  0.00    +0.000 C 
ATOM      2  C   UNL     1       3.981   6.071  17.811  0.00  0.00    +0.000 C 
ATOM      3  C   UNL     1       3.447   6.274  19.252  0.00  0.00    +0.000 C 
ATOM      4  N   UNL     1       3.076   4.991  19.845  0.00  0.00    +0.000 N 
ATOM      5  N   UNL     1       2.027   4.712  20.627  0.00  0.00    +0.000 NA
ATOM      6  C   UNL     1       2.239   3.422  20.883  0.00  0.00    +0.000 A 
ATOM      7  N   UNL     1       1.428   2.591  21.551  0.00  0.00    +0.000 N 
ATOM      8  N   UNL     1       3.364   2.884  20.333  0.00  0.00    +0.000 NA
ATOM      9  C   UNL     1       3.864   3.883  19.654  0.00  0.00    +0.000 A 
ATOM     10  N   UNL     1       4.858   3.929  18.730  0.00  0.00    +0.000 N 
ATOM     11  H   UNL     1       1.973   2.004  22.173  0.00  0.00    +0.000 HD
ATOM     12  H   UNL     1       1.031   1.908  20.912  0.00  0.00    +0.000 HD
ATOM     13  H   UNL     1       5.751   4.278  19.072  0.00  0.00    +0.000 HD
ENDROOT
BRANCH   1  18
ATOM     14  C   UNL     1       7.907   5.074  12.869  0.00  0.00    +0.000 C 
ATOM     15  C   UNL     1       7.083   4.756  14.081  0.00  0.00    +0.000 A 
ATOM     16  C   UNL     1       5.865   4.078  13.982  0.00  0.00    +0.000 A 
ATOM     17  C   UNL     1       5.032   3.945  15.101  0.00  0.00    +0.000 A 
ATOM     18  C   UNL     1       5.404   4.479  16.345  0.00  0.00    +0.000 A 
ATOM     19  C   UNL     1       6.667   5.088  16.445  0.00  0.00    +0.000 A 
ATOM     20  C   UNL     1       7.495   5.225  15.329  0.00  0.00    +0.000 A 
ENDBRANCH   1  18
BRANCH   3  21
ATOM     21  C   UNL     1       2.434   7.400  19.316  0.00  0.00    +0.000 A 
ATOM     22  C   UNL     1       2.133   8.219  18.219  0.00  0.00    +0.000 A 
ATOM     23  C   UNL     1       1.223   9.276  18.346  0.00  0.00    +0.000 A 
ATOM     24  C   UNL     1       0.604   9.546  19.575  0.00  0.00    +0.000 A 
ATOM     25  C   UNL     1      -0.392  10.657  19.717  0.00  0.00    +0.000 C 
ATOM     26  C   UNL     1       0.921   8.750  20.675  0.00  0.00    +0.000 A 
ATOM     27  C   UNL     1       1.825   7.692  20.549  0.00  0.00    +0.000 A 
ENDBRANCH   3  21
TORSDOF 2
ENDMDL
MODEL 3
REMARK VINA RESULT:      -8.6      0.892      6.772
REMARK  Name = 
REMARK  4 active torsions:
REMARK  status: ('A' for Active; 'I' for Inactive)
REMARK    1  A    between atoms: C_1  and  C_2
REMARK    2  A    between atoms: C_5  and  C_6
REMARK    3  A    between atoms: C_8  and  C_9
REMARK    4  A    between atoms: C_12  and  C_13
REMARK                            x       y       z     vdW  Elec       q    Type
REMARK                         _______ _______ _______ _____ _____    ______ ____
ROOT
ATOM      1  C   UNL     1       2.924   6.504  19.277  0.00  0.00    +0.000 C 
ATOM      2  C   UNL     1       3.478   6.432  17.834  0.00  0.00    +0.000 C 
ATOM      3  C   UNL     1       3.798   4.994  17.352  0.00  0.00    +0.000 C 
ATOM      4  N   UNL     1       3.923   4.088  18.491  0.00  0.00    +0.000 N 
ATOM      5  N   UNL     1       4.798   3.091  18.666  0.00  0.00    +0.000 NA
ATOM      6  C   UNL     1       4.403   2.612  19.845  0.00  0.00    +0.000 A 
ATOM      7  N   UNL     1       4.999   1.651  20.562  0.00  0.00    +0.000 N 
ATOM      8  N   UNL     1       3.325   3.229  20.406  0.00  0.00    +0.000 NA
ATOM      9  C   UNL     1       3.054   4.180  19.551  0.00  0.00    +0.000 A 
ATOM     10  N   UNL     1       2.230   5.255  19.640  0.00  0.00    +0.000 N 
ATOM     11  H   UNL     1       4.300   1.027  20.950  0.00  0.00    +0.000 HD
ATOM     12  H   UNL     1       5.411   2.051  21.400  0.00  0.00    +0.000 HD
ATOM     13  H   UNL     1       1.339   5.159  19.155  0.00  0.00    +0.000 HD
ENDROOT
BRANCH   1  18
ATOM     14  C   UNL     1      -0.946  10.707  20.344  0.00  0.00    +0.000 C 
ATOM     15  C   UNL     1       0.202   9.770  20.114  0.00  0.00    +0.000 A 
ATOM     16  C   UNL     1       0.891   9.741  18.898  0.00  0.00    +0.000 A 
ATOM     17  C   UNL     1       1.843   8.745  18.643  0.00  0.00    +0.000 A 
ATOM     18  C   UNL     1       2.131   7.761  19.602  0.00  0.00    +0.000 A 
ATOM     19  C   UNL     1       1.487   7.853  20.849  0.00  0.00    +0.000 A 
ATOM     20  C   UNL     1       0.536   8.842  21.101  0.00  0.00    +0.000 A 
ENDBRANCH   1  18
BRANCH   3  21
ATOM     21  C   UNL     1       4.910   4.988  16.322  0.00  0.00    +0.000 A 
ATOM     22  C   UNL     1       6.057   5.787  16.431  0.00  0.00    +0.000 A 
ATOM     23  C   UNL     1       7.032   5.777  15.426  0.00  0.00    +0.000 A 
ATOM     24  C   UNL     1       6.876   4.981  14.282  0.00  0.00    +0.000 A 
ATOM     25  C   UNL     1       7.925   4.943  13.212  0.00  0.00    +0.000 C 
ATOM     26  C   UNL     1       5.724   4.206  14.157  0.00  0.00    +0.000 A 
ATOM     27  C   UNL     1       4.753   4.210  15.161  0.00  0.00    +0.000 A 
ENDBRANCH   3  21
TORSDOF 2
ENDMDL
MODEL 4
REMARK VINA RESULT:      -8.6      0.983      6.736
REMARK  Name = 
REMARK  4 active torsions:
REMARK  status: ('A' for Active; 'I' for Inactive)
REMARK    1  A    between atoms: C_1  and  C_2
REMARK    2  A    between atoms: C_5  and  C_6
REMARK    3  A    between atoms: C_8  and  C_9
REMARK    4  A    between atoms: C_12  and  C_13
REMARK                            x       y       z     vdW  Elec       q    Type
REMARK                         _______ _______ _______ _____ _____    ______ ____
ROOT
ATOM      1  C   UNL     1       2.785   6.332  19.372  0.00  0.00    +0.000 C 
ATOM      2  C   UNL     1       3.351   6.295  17.932  0.00  0.00    +0.000 C 
ATOM      3  C   UNL     1       3.749   4.878  17.446  0.00  0.00    +0.000 C 
ATOM      4  N   UNL     1       3.915   3.975  18.583  0.00  0.00    +0.000 N 
ATOM      5  N   UNL     1       4.840   3.024  18.759  0.00  0.00    +0.000 NA
ATOM      6  C   UNL     1       4.465   2.521  19.933  0.00  0.00    +0.000 A 
ATOM      7  N   UNL     1       5.106   1.589  20.650  0.00  0.00    +0.000 N 
ATOM      8  N   UNL     1       3.352   3.077  20.490  0.00  0.00    +0.000 NA
ATOM      9  C   UNL     1       3.037   4.016  19.638  0.00  0.00    +0.000 A 
ATOM     10  N   UNL     1       2.156   5.047  19.726  0.00  0.00    +0.000 N 
ATOM     11  H   UNL     1       4.439   0.928  21.032  0.00  0.00    +0.000 HD
ATOM     12  H   UNL     1       5.492   2.007  21.492  0.00  0.00    +0.000 HD
ATOM     13  H   UNL     1       1.274   4.906  19.236  0.00  0.00    +0.000 HD
ENDROOT
BRANCH   1  18
ATOM     14  C   UNL     1       0.419  11.464  20.728  0.00  0.00    +0.000 C 
ATOM     15  C   UNL     1       0.827  10.068  20.362  0.00  0.00    +0.000 A 
ATOM     16  C   UNL     1       0.890   9.049  21.316  0.00  0.00    +0.000 A 
ATOM     17  C   UNL     1       1.437   7.801  20.989  0.00  0.00    +0.000 A 
ATOM     18  C   UNL     1       1.927   7.544  19.698  0.00  0.00    +0.000 A 
ATOM     19  C   UNL     1       1.783   8.553  18.730  0.00  0.00    +0.000 A 
ATOM     20  C   UNL     1       1.242   9.798  19.057  0.00  0.00    +0.000 A 
ENDBRANCH   1  18
BRANCH   3  21
ATOM     21  C   UNL     1       4.865   4.935  16.422  0.00  0.00    +0.000 A 
ATOM     22  C   UNL     1       5.966   5.795  16.539  0.00  0.00    +0.000 A 
ATOM     23  C   UNL     1       6.945   5.841  15.539  0.00  0.00    +0.000 A 
ATOM     24  C   UNL     1       6.840   5.040  14.394  0.00  0.00    +0.000 A 
ATOM     25  C   UNL     1       7.895   5.060  13.329  0.00  0.00    +0.000 C 
ATOM     26  C   UNL     1       5.732   4.202  14.261  0.00  0.00    +0.000 A 
ATOM     27  C   UNL     1       4.757   4.151  15.260  0.00  0.00    +0.000 A 
ENDBRANCH   3  21
TORSDOF 2
ENDMDL
MODEL 5
REMARK VINA RESULT:      -8.4      1.342      6.977
REMARK  Name = 
REMARK  4 active torsions:
REMARK  status: ('A' for Active; 'I' for Inactive)
REMARK    1  A    between atoms: C_1  and  C_2
REMARK    2  A    between atoms: C_5  and  C_6
REMARK    3  A    between atoms: C_8  and  C_9
REMARK    4  A    between atoms: C_12  and  C_13
REMARK                            x       y       z     vdW  Elec       q    Type
REMARK                         _______ _______ _______ _____ _____    ______ ____
ROOT
ATOM      1  C   UNL     1       1.950   7.176  20.372  0.00  0.00    +0.000 C 
ATOM      2  C   UNL     1       2.543   7.059  18.947  0.00  0.00    +0.000 C 
ATOM      3  C   UNL     1       2.674   5.602  18.436  0.00  0.00    +0.000 C 
ATOM      4  N   UNL     1       2.626   4.661  19.553  0.00  0.00    +0.000 N 
ATOM      5  N   UNL     1       3.344   3.546  19.730  0.00  0.00    +0.000 NA
ATOM      6  C   UNL     1       2.841   3.101  20.881  0.00  0.00    +0.000 A 
ATOM      7  N   UNL     1       3.267   2.049  21.591  0.00  0.00    +0.000 N 
ATOM      8  N   UNL     1       1.840   3.852  21.421  0.00  0.00    +0.000 NA
ATOM      9  C   UNL     1       1.740   4.851  20.585  0.00  0.00    +0.000 A 
ATOM     10  N   UNL     1       1.073   6.031  20.675  0.00  0.00    +0.000 N 
ATOM     11  H   UNL     1       2.472   1.522  21.937  0.00  0.00    +0.000 HD
ATOM     12  H   UNL     1       3.699   2.367  22.453  0.00  0.00    +0.000 HD
ATOM     13  H   UNL     1       0.196   6.074  20.158  0.00  0.00    +0.000 HD
ENDROOT
BRANCH   1  18
ATOM     14  C   UNL     1      -1.314  11.799  21.698  0.00  0.00    +0.000 C 
ATOM     15  C   UNL     1      -0.306  10.743  21.355  0.00  0.00    +0.000 A 
ATOM     16  C   UNL     1       0.124  10.540  20.041  0.00  0.00    +0.000 A 
ATOM     17  C   UNL     1       0.931   9.441  19.718  0.00  0.00    +0.000 A 
ATOM     18  C   UNL     1       1.332   8.525  20.705  0.00  0.00    +0.000 A 
ATOM     19  C   UNL     1       0.956   8.789  22.034  0.00  0.00    +0.000 A 
ATOM     20  C   UNL     1       0.148   9.882  22.355  0.00  0.00    +0.000 A 
ENDBRANCH   1  18
BRANCH   3  21
ATOM     21  C   UNL     1       3.813   5.461  17.445  0.00  0.00    +0.000 A 
ATOM     22  C   UNL     1       4.606   6.542  17.035  0.00  0.00    +0.000 A 
ATOM     23  C   UNL     1       5.615   6.365  16.080  0.00  0.00    +0.000 A 
ATOM     24  C   UNL     1       5.844   5.108  15.503  0.00  0.00    +0.000 A 
ATOM     25  C   UNL     1       6.938   4.900  14.500  0.00  0.00    +0.000 C 
ATOM     26  C   UNL     1       5.040   4.036  15.889  0.00  0.00    +0.000 A 
ATOM     27  C   UNL     1       4.036   4.209  16.845  0.00  0.00    +0.000 A 
ENDBRANCH   3  21
TORSDOF 2
ENDMDL
MODEL 6
REMARK VINA RESULT:      -8.1      1.322      6.870
REMARK  Name = 
REMARK  4 active torsions:
REMARK  status: ('A' for Active; 'I' for Inactive)
REMARK    1  A    between atoms: C_1  and  C_2
REMARK    2  A    between atoms: C_5  and  C_6
REMARK    3  A    between atoms: C_8  and  C_9
REMARK    4  A    between atoms: C_12  and  C_13
REMARK                            x       y       z     vdW  Elec       q    Type
REMARK                         _______ _______ _______ _____ _____    ______ ____
ROOT
ATOM      1  C   UNL     1       1.883   7.090  20.256  0.00  0.00    +0.000 C 
ATOM      2  C   UNL     1       2.509   6.966  18.847  0.00  0.00    +0.000 C 
ATOM      3  C   UNL     1       2.703   5.504  18.369  0.00  0.00    +0.000 C 
ATOM      4  N   UNL     1       2.666   4.585  19.504  0.00  0.00    +0.000 N 
ATOM      5  N   UNL     1       3.419   3.500  19.718  0.00  0.00    +0.000 NA
ATOM      6  C   UNL     1       2.909   3.061  20.867  0.00  0.00    +0.000 A 
ATOM      7  N   UNL     1       3.358   2.039  21.607  0.00  0.00    +0.000 N 
ATOM      8  N   UNL     1       1.871   3.785  21.372  0.00  0.00    +0.000 NA
ATOM      9  C   UNL     1       1.752   4.764  20.513  0.00  0.00    +0.000 A 
ATOM     10  N   UNL     1       1.042   5.920  20.566  0.00  0.00    +0.000 N 
ATOM     11  H   UNL     1       2.576   1.491  21.948  0.00  0.00    +0.000 HD
ATOM     12  H   UNL     1       3.761   2.390  22.471  0.00  0.00    +0.000 HD
ATOM     13  H   UNL     1       0.175   5.921  20.031  0.00  0.00    +0.000 HD
ENDROOT
BRANCH   1  18
ATOM     14  C   UNL     1       0.290  12.563  21.391  0.00  0.00    +0.000 C 
ATOM     15  C   UNL     1       0.491  11.105  21.100  0.00  0.00    +0.000 A 
ATOM     16  C   UNL     1       0.494  10.149  22.119  0.00  0.00    +0.000 A 
ATOM     17  C   UNL     1       0.854   8.822  21.848  0.00  0.00    +0.000 A 
ATOM     18  C   UNL     1       1.211   8.422  20.550  0.00  0.00    +0.000 A 
ATOM     19  C   UNL     1       1.124   9.379  19.523  0.00  0.00    +0.000 A 
ATOM     20  C   UNL     1       0.770  10.701  19.794  0.00  0.00    +0.000 A 
ENDBRANCH   1  18
BRANCH   3  21
ATOM     21  C   UNL     1       3.866   5.385  17.403  0.00  0.00    +0.000 A 
ATOM     22  C   UNL     1       4.678   6.471  17.048  0.00  0.00    +0.000 A 
ATOM     23  C   UNL     1       5.710   6.316  16.114  0.00  0.00    +0.000 A 
ATOM     24  C   UNL     1       5.945   5.076  15.504  0.00  0.00    +0.000 A 
ATOM     25  C   UNL     1       7.063   4.890  14.523  0.00  0.00    +0.000 C 
ATOM     26  C   UNL     1       5.122   3.999  15.835  0.00  0.00    +0.000 A 
ATOM     27  C   UNL     1       4.095   4.151  16.770  0.00  0.00    +0.000 A 
ENDBRANCH   3  21
TORSDOF 2
ENDMDL
MODEL 7
REMARK VINA RESULT:      -8.0      0.890      1.109
REMARK  Name = 
REMARK  4 active torsions:
REMARK  status: ('A' for Active; 'I' for Inactive)
REMARK    1  A    between atoms: C_1  and  C_2
REMARK    2  A    between atoms: C_5  and  C_6
REMARK    3  A    between atoms: C_8  and  C_9
REMARK    4  A    between atoms: C_12  and  C_13
REMARK                            x       y       z     vdW  Elec       q    Type
REMARK                         _______ _______ _______ _____ _____    ______ ____
ROOT
ATOM      1  C   UNL     1       3.821   4.974  17.693  0.00  0.00    +0.000 C 
ATOM      2  C   UNL     1       3.418   6.392  18.164  0.00  0.00    +0.000 C 
ATOM      3  C   UNL     1       3.074   6.481  19.673  0.00  0.00    +0.000 C 
ATOM      4  N   UNL     1       2.782   5.155  20.211  0.00  0.00    +0.000 N 
ATOM      5  N   UNL     1       1.842   4.808  21.098  0.00  0.00    +0.000 NA
ATOM      6  C   UNL     1       2.085   3.505  21.227  0.00  0.00    +0.000 A 
ATOM      7  N   UNL     1       1.367   2.619  21.930  0.00  0.00    +0.000 N 
ATOM      8  N   UNL     1       3.131   3.020  20.498  0.00  0.00    +0.000 NA
ATOM      9  C   UNL     1       3.539   4.072  19.838  0.00  0.00    +0.000 A 
ATOM     10  N   UNL     1       4.406   4.196  18.799  0.00  0.00    +0.000 N 
ATOM     11  H   UNL     1       1.988   1.993  22.430  0.00  0.00    +0.000 HD
ATOM     12  H   UNL     1       0.892   1.982  21.297  0.00  0.00    +0.000 HD
ATOM     13  H   UNL     1       5.336   4.527  19.049  0.00  0.00    +0.000 HD
ENDROOT
BRANCH   1  18
ATOM     14  C   UNL     1       7.781   4.794  13.443  0.00  0.00    +0.000 C 
ATOM     15  C   UNL     1       6.613   4.837  14.382  0.00  0.00    +0.000 A 
ATOM     16  C   UNL     1       5.960   6.036  14.684  0.00  0.00    +0.000 A 
ATOM     17  C   UNL     1       4.987   6.081  15.691  0.00  0.00    +0.000 A 
ATOM     18  C   UNL     1       4.640   4.927  16.413  0.00  0.00    +0.000 A 
ATOM     19  C   UNL     1       5.249   3.716  16.041  0.00  0.00    +0.000 A 
ATOM     20  C   UNL     1       6.222   3.671  15.041  0.00  0.00    +0.000 A 
ENDBRANCH   1  18
BRANCH   3  21
ATOM     21  C   UNL     1       2.077   7.590  19.950  0.00  0.00    +0.000 A 
ATOM     22  C   UNL     1       1.364   7.693  21.152  0.00  0.00    +0.000 A 
ATOM     23  C   UNL     1       0.420   8.710  21.338  0.00  0.00    +0.000 A 
ATOM     24  C   UNL     1       0.157   9.639  20.321  0.00  0.00    +0.000 A 
ATOM     25  C   UNL     1      -0.831  10.749  20.517  0.00  0.00    +0.000 C 
ATOM     26  C   UNL     1       0.845   9.524  19.113  0.00  0.00    +0.000 A 
ATOM     27  C   UNL     1       1.791   8.513  18.928  0.00  0.00    +0.000 A 
ENDBRANCH   3  21
TORSDOF 2
ENDMDL
MODEL 8
REMARK VINA RESULT:      -7.9      0.902      1.525
REMARK  Name = 
REMARK  4 active torsions:
REMARK  status: ('A' for Active; 'I' for Inactive)
REMARK    1  A    between atoms: C_1  and  C_2
REMARK    2  A    between atoms: C_5  and  C_6
REMARK    3  A    between atoms: C_8  and  C_9
REMARK    4  A    between atoms: C_12  and  C_13
REMARK                            x       y       z     vdW  Elec       q    Type
REMARK                         _______ _______ _______ _____ _____    ______ ____
ROOT
ATOM      1  C   UNL     1       3.713   5.141  17.636  0.00  0.00    +0.000 C 
ATOM      2  C   UNL     1       3.322   6.558  18.120  0.00  0.00    +0.000 C 
ATOM      3  C   UNL     1       2.915   6.625  19.614  0.00  0.00    +0.000 C 
ATOM      4  N   UNL     1       2.571   5.296  20.111  0.00  0.00    +0.000 N 
ATOM      5  N   UNL     1       1.586   4.953  20.950  0.00  0.00    +0.000 NA
ATOM      6  C   UNL     1       1.794   3.642  21.061  0.00  0.00    +0.000 A 
ATOM      7  N   UNL     1       1.027   2.759  21.714  0.00  0.00    +0.000 N 
ATOM      8  N   UNL     1       2.859   3.148  20.368  0.00  0.00    +0.000 NA
ATOM      9  C   UNL     1       3.318   4.202  19.748  0.00  0.00    +0.000 A 
ATOM     10  N   UNL     1       4.232   4.327  18.750  0.00  0.00    +0.000 N 
ATOM     11  H   UNL     1       1.611   2.108  22.227  0.00  0.00    +0.000 HD
ATOM     12  H   UNL     1       0.565   2.146  21.048  0.00  0.00    +0.000 HD
ATOM     13  H   UNL     1       5.158   4.631  19.046  0.00  0.00    +0.000 HD
ENDROOT
BRANCH   1  18
ATOM     14  C   UNL     1       7.835   4.827  13.551  0.00  0.00    +0.000 C 
ATOM     15  C   UNL     1       6.633   4.937  14.442  0.00  0.00    +0.000 A 
ATOM     16  C   UNL     1       6.118   6.178  14.827  0.00  0.00    +0.000 A 
ATOM     17  C   UNL     1       5.107   6.260  15.794  0.00  0.00    +0.000 A 
ATOM     18  C   UNL     1       4.585   5.101  16.391  0.00  0.00    +0.000 A 
ATOM     19  C   UNL     1       5.059   3.859  15.935  0.00  0.00    +0.000 A 
ATOM     20  C   UNL     1       6.069   3.778  14.975  0.00  0.00    +0.000 A 
ENDBRANCH   1  18
BRANCH   3  21
ATOM     21  C   UNL     1       1.933   7.751  19.873  0.00  0.00    +0.000 A 
ATOM     22  C   UNL     1       1.574   8.690  18.896  0.00  0.00    +0.000 A 
ATOM     23  C   UNL     1       0.697   9.739  19.203  0.00  0.00    +0.000 A 
ATOM     24  C   UNL     1       0.171   9.880  20.494  0.00  0.00    +0.000 A 
ATOM     25  C   UNL     1      -0.788  10.982  20.828  0.00  0.00    +0.000 C 
ATOM     26  C   UNL     1       0.548   8.963  21.476  0.00  0.00    +0.000 A 
ATOM     27  C   UNL     1       1.418   7.914  21.171  0.00  0.00    +0.000 A 
ENDBRANCH   3  21
TORSDOF 2
ENDMDL
MODEL 9
REMARK VINA RESULT:      -7.9      4.018      6.565
REMARK  Name = 
REMARK  4 active torsions:
REMARK  status: ('A' for Active; 'I' for Inactive)
REMARK    1  A    between atoms: C_1  and  C_2
REMARK    2  A    between atoms: C_5  and  C_6
REMARK    3  A    between atoms: C_8  and  C_9
REMARK    4  A    between atoms: C_12  and  C_13
REMARK                            x       y       z     vdW  Elec       q    Type
REMARK                         _______ _______ _______ _____ _____    ______ ____
ROOT
ATOM      1  C   UNL     1       1.846   8.466  19.420  0.00  0.00    +0.000 C 
ATOM      2  C   UNL     1       0.556   8.938  20.133  0.00  0.00    +0.000 C 
ATOM      3  C   UNL     1       0.038  10.317  19.652  0.00  0.00    +0.000 C 
ATOM      4  N   UNL     1       1.098  11.053  18.968  0.00  0.00    +0.000 N 
ATOM      5  N   UNL     1       1.375  12.361  19.031  0.00  0.00    +0.000 NA
ATOM      6  C   UNL     1       2.397  12.444  18.181  0.00  0.00    +0.000 A 
ATOM      7  N   UNL     1       3.144  13.526  17.926  0.00  0.00    +0.000 N 
ATOM      8  N   UNL     1       2.760  11.280  17.573  0.00  0.00    +0.000 NA
ATOM      9  C   UNL     1       1.949  10.405  18.106  0.00  0.00    +0.000 A 
ATOM     10  N   UNL     1       1.946   9.047  18.069  0.00  0.00    +0.000 N 
ATOM     11  H   UNL     1       3.319  13.597  16.930  0.00  0.00    +0.000 HD
ATOM     12  H   UNL     1       4.081  13.392  18.295  0.00  0.00    +0.000 HD
ATOM     13  H   UNL     1       1.275   8.634  17.425  0.00  0.00    +0.000 HD
ENDROOT
BRANCH   1  18
ATOM     14  C   UNL     1       1.872   2.664  19.093  0.00  0.00    +0.000 C 
ATOM     15  C   UNL     1       2.057   4.141  19.273  0.00  0.00    +0.000 A 
ATOM     16  C   UNL     1       1.754   4.776  20.481  0.00  0.00    +0.000 A 
ATOM     17  C   UNL     1       1.769   6.174  20.573  0.00  0.00    +0.000 A 
ATOM     18  C   UNL     1       2.096   6.967  19.461  0.00  0.00    +0.000 A 
ATOM     19  C   UNL     1       2.475   6.310  18.277  0.00  0.00    +0.000 A 
ATOM     20  C   UNL     1       2.456   4.917  18.184  0.00  0.00    +0.000 A 
ENDBRANCH   1  18
BRANCH   3  21
ATOM     21  C   UNL     1      -0.725  11.036  20.747  0.00  0.00    +0.000 A 
ATOM     22  C   UNL     1      -0.531  10.775  22.111  0.00  0.00    +0.000 A 
ATOM     23  C   UNL     1      -1.298  11.435  23.080  0.00  0.00    +0.000 A 
ATOM     24  C   UNL     1      -2.284  12.359  22.708  0.00  0.00    +0.000 A 
ATOM     25  C   UNL     1      -3.092  13.091  23.736  0.00  0.00    +0.000 C 
ATOM     26  C   UNL     1      -2.499  12.601  21.352  0.00  0.00    +0.000 A 
ATOM     27  C   UNL     1      -1.732  11.948  20.383  0.00  0.00    +0.000 A 
ENDBRANCH   3  21
TORSDOF 2
ENDMDL
