MODEL 1
REMARK VINA RESULT:      -7.0      0.000      0.000
REMARK  Name = 
REMARK  20 active torsions:
REMARK  status: ('A' for Active; 'I' for Inactive)
REMARK    1  A    between atoms: N_1  and  S_2
REMARK    2  A    between atoms: S_2  and  C_5
REMARK    3  A    between atoms: C_8  and  C_9
REMARK    4  A    between atoms: C_9  and  C_10
REMARK    5  A    between atoms: C_10  and  O_11
REMARK    6  A    between atoms: O_11  and  C_12
REMARK    7  A    between atoms: C_12  and  C_14
REMARK    8  A    between atoms: C_14  and  N_15
REMARK    9  A    between atoms: N_15  and  C_16
REMARK   10  A    between atoms: N_15  and  C_27
REMARK   11  A    between atoms: C_16  and  C_17
REMARK   12  A    between atoms: C_17  and  N_18
REMARK   13  A    between atoms: N_18  and  C_19
REMARK   14  A    between atoms: N_18  and  C_23
REMARK   15  A    between atoms: C_19  and  C_20
REMARK   16  A    between atoms: C_20  and  O_22
REMARK   17  A    between atoms: C_23  and  C_24
REMARK   18  A    between atoms: C_24  and  O_26
REMARK   19  A    between atoms: C_27  and  C_28
REMARK   20  A    between atoms: C_28  and  O_30
REMARK                            x       y       z     vdW  Elec       q    Type
REMARK                         _______ _______ _______ _____ _____    ______ ____
ROOT
ATOM      1  N   UNL     1       5.933   5.187  16.644  0.00  0.00    +0.000 NA
ENDROOT
BRANCH   1   2
ATOM      2  C   UNL     1       4.703   4.442  17.061  0.00  0.00    +0.000 C 
BRANCH   2   3
ATOM      3  C   UNL     1       4.673   3.911  18.523  0.00  0.00    +0.000 C 
BRANCH   3   4
ATOM      4  N   UNL     1       3.339   3.814  19.181  0.00  0.00    +0.000 NA
BRANCH   4   5
ATOM      5  C   UNL     1       2.552   5.077  19.019  0.00  0.00    +0.000 C 
BRANCH   5   6
ATOM      6  C   UNL     1       2.117   5.745  20.323  0.00  0.00    +0.000 C 
ATOM      7  O   UNL     1       1.629   6.864  20.389  0.00  0.00    +0.000 OA
BRANCH   6   8
ATOM      8  O   UNL     1       2.297   4.979  21.423  0.00  0.00    +0.000 OA
ATOM      9  H   UNL     1       1.708   5.161  22.183  0.00  0.00    +0.000 HD
ENDBRANCH   6   8
ENDBRANCH   5   6
ENDBRANCH   4   5
BRANCH   4  10
ATOM     10  C   UNL     1       2.637   2.632  18.589  0.00  0.00    +0.000 C 
BRANCH  10  11
ATOM     11  C   UNL     1       1.278   2.402  19.241  0.00  0.00    +0.000 C 
ATOM     12  O   UNL     1       0.220   2.362  18.634  0.00  0.00    +0.000 OA
BRANCH  11  13
ATOM     13  O   UNL     1       1.364   2.261  20.586  0.00  0.00    +0.000 OA
ATOM     14  H   UNL     1       1.162   3.126  21.007  0.00  0.00    +0.000 HD
ENDBRANCH  11  13
ENDBRANCH  10  11
ENDBRANCH   4  10
ENDBRANCH   3   4
ENDBRANCH   2   3
ENDBRANCH   1   2
BRANCH   1  15
ATOM     15  C   UNL     1       6.031   6.443  17.460  0.00  0.00    +0.000 C 
BRANCH  15  16
ATOM     16  C   UNL     1       7.419   6.732  18.015  0.00  0.00    +0.000 C 
ATOM     17  O   UNL     1       7.987   6.109  18.898  0.00  0.00    +0.000 OA
BRANCH  16  18
ATOM     18  O   UNL     1       7.958   7.739  17.288  0.00  0.00    +0.000 OA
BRANCH  18  19
ATOM     19  C   UNL     1       7.672   9.077  17.713  0.00  0.00    +0.000 C 
BRANCH  19  20
ATOM     20  C   UNL     1       8.893   9.512  18.532  0.00  0.00    +0.000 C 
BRANCH  20  24
ATOM     21  C   UNL     1      10.073  13.636  17.987  0.00  0.00    +0.000 A 
ATOM     22  C   UNL     1      11.009  12.728  18.480  0.00  0.00    +0.000 A 
ATOM     23  C   UNL     1      10.650  11.398  18.655  0.00  0.00    +0.000 A 
ATOM     24  C   UNL     1       9.347  10.950  18.354  0.00  0.00    +0.000 A 
ATOM     25  C   UNL     1       8.414  11.887  17.877  0.00  0.00    +0.000 A 
ATOM     26  C   UNL     1       8.772  13.223  17.691  0.00  0.00    +0.000 A 
BRANCH  21  27
ATOM     27  S   UNL     1      10.551  15.307  17.690  0.00  0.00    +0.000 S 
ATOM     28  O   UNL     1      11.694  15.616  18.513  0.00  0.00    +0.000 OA
ATOM     29  O   UNL     1       9.369  16.146  17.650  0.00  0.00    +0.000 OA
BRANCH  27  30
ATOM     30  N   UNL     1      11.096  15.237  16.109  0.00  0.00    +0.000 NA
ATOM     31  H   UNL     1      12.117  15.148  16.098  0.00  0.00    +0.000 HD
ATOM     32  H   UNL     1      10.748  16.032  15.572  0.00  0.00    +0.000 HD
ENDBRANCH  27  30
ENDBRANCH  21  27
ENDBRANCH  20  24
ENDBRANCH  19  20
ENDBRANCH  18  19
ENDBRANCH  16  18
ENDBRANCH  15  16
ENDBRANCH   1  15
BRANCH   1  33
ATOM     33  C   UNL     1       5.765   5.600  15.208  0.00  0.00    +0.000 C 
BRANCH  33  34
ATOM     34  C   UNL     1       6.672   4.803  14.277  0.00  0.00    +0.000 C 
ATOM     35  O   UNL     1       6.407   3.689  13.849  0.00  0.00    +0.000 OA
BRANCH  34  36
ATOM     36  O   UNL     1       7.836   5.444  14.014  0.00  0.00    +0.000 OA
ATOM     37  H   UNL     1       7.855   6.278  14.537  0.00  0.00    +0.000 HD
ENDBRANCH  34  36
ENDBRANCH  33  34
ENDBRANCH   1  33
TORSDOF 20
ENDMDL
MODEL 2
REMARK VINA RESULT:      -6.9      5.925      6.896
REMARK  Name = 
REMARK  20 active torsions:
REMARK  status: ('A' for Active; 'I' for Inactive)
REMARK    1  A    between atoms: N_1  and  S_2
REMARK    2  A    between atoms: S_2  and  C_5
REMARK    3  A    between atoms: C_8  and  C_9
REMARK    4  A    between atoms: C_9  and  C_10
REMARK    5  A    between atoms: C_10  and  O_11
REMARK    6  A    between atoms: O_11  and  C_12
REMARK    7  A    between atoms: C_12  and  C_14
REMARK    8  A    between atoms: C_14  and  N_15
REMARK    9  A    between atoms: N_15  and  C_16
REMARK   10  A    between atoms: N_15  and  C_27
REMARK   11  A    between atoms: C_16  and  C_17
REMARK   12  A    between atoms: C_17  and  N_18
REMARK   13  A    between atoms: N_18  and  C_19
REMARK   14  A    between atoms: N_18  and  C_23
REMARK   15  A    between atoms: C_19  and  C_20
REMARK   16  A    between atoms: C_20  and  O_22
REMARK   17  A    between atoms: C_23  and  C_24
REMARK   18  A    between atoms: C_24  and  O_26
REMARK   19  A    between atoms: C_27  and  C_28
REMARK   20  A    between atoms: C_28  and  O_30
REMARK                            x       y       z     vdW  Elec       q    Type
REMARK                         _______ _______ _______ _____ _____    ______ ____
ROOT
ATOM      1  N   UNL     1       4.535   4.198  16.988  0.00  0.00    +0.000 NA
ENDROOT
BRANCH   1   2
ATOM      2  C   UNL     1       3.303   3.434  16.612  0.00  0.00    +0.000 C 
BRANCH   2   3
ATOM      3  C   UNL     1       2.177   3.358  17.683  0.00  0.00    +0.000 C 
BRANCH   3   4
ATOM      4  N   UNL     1       2.587   3.003  19.071  0.00  0.00    +0.000 NA
BRANCH   4   5
ATOM      5  C   UNL     1       1.400   2.822  19.966  0.00  0.00    +0.000 C 
BRANCH   5   6
ATOM      6  C   UNL     1       1.649   3.115  21.445  0.00  0.00    +0.000 C 
ATOM      7  O   UNL     1       1.278   2.390  22.358  0.00  0.00    +0.000 OA
BRANCH   6   8
ATOM      8  O   UNL     1       2.344   4.252  21.674  0.00  0.00    +0.000 OA
ATOM      9  H   UNL     1       2.793   4.322  22.540  0.00  0.00    +0.000 HD
ENDBRANCH   6   8
ENDBRANCH   5   6
ENDBRANCH   4   5
BRANCH   4  10
ATOM     10  C   UNL     1       3.423   1.764  18.986  0.00  0.00    +0.000 C 
BRANCH  10  11
ATOM     11  C   UNL     1       4.726   1.912  19.761  0.00  0.00    +0.000 C 
ATOM     12  O   UNL     1       5.042   1.221  20.717  0.00  0.00    +0.000 OA
BRANCH  11  13
ATOM     13  O   UNL     1       5.504   2.914  19.286  0.00  0.00    +0.000 OA
ATOM     14  H   UNL     1       6.409   2.815  19.657  0.00  0.00    +0.000 HD
ENDBRANCH  11  13
ENDBRANCH  10  11
ENDBRANCH   4  10
ENDBRANCH   3   4
ENDBRANCH   2   3
ENDBRANCH   1   2
BRANCH   1  15
ATOM     15  C   UNL     1       4.119   5.505  17.596  0.00  0.00    +0.000 C 
BRANCH  15  16
ATOM     16  C   UNL     1       4.644   5.744  19.005  0.00  0.00    +0.000 C 
ATOM     17  O   UNL     1       5.815   5.731  19.350  0.00  0.00    +0.000 OA
BRANCH  16  18
ATOM     18  O   UNL     1       3.593   6.073  19.792  0.00  0.00    +0.000 OA
BRANCH  18  19
ATOM     19  C   UNL     1       2.561   6.874  19.203  0.00  0.00    +0.000 C 
BRANCH  19  20
ATOM     20  C   UNL     1       1.891   7.599  20.377  0.00  0.00    +0.000 C 
BRANCH  20  24
ATOM     21  C   UNL     1      -0.475  11.113  19.508  0.00  0.00    +0.000 A 
ATOM     22  C   UNL     1       0.159  10.451  18.457  0.00  0.00    +0.000 A 
ATOM     23  C   UNL     1       0.916   9.316  18.716  0.00  0.00    +0.000 A 
ATOM     24  C   UNL     1       1.068   8.827  20.029  0.00  0.00    +0.000 A 
ATOM     25  C   UNL     1       0.437   9.522  21.077  0.00  0.00    +0.000 A 
ATOM     26  C   UNL     1      -0.332  10.657  20.820  0.00  0.00    +0.000 A 
BRANCH  21  27
ATOM     27  S   UNL     1      -1.502  12.505  19.170  0.00  0.00    +0.000 S 
ATOM     28  O   UNL     1      -1.102  13.595  20.026  0.00  0.00    +0.000 OA
ATOM     29  O   UNL     1      -2.881  12.071  19.055  0.00  0.00    +0.000 OA
BRANCH  27  30
ATOM     30  N   UNL     1      -1.037  12.913  17.615  0.00  0.00    +0.000 NA
ATOM     31  H   UNL     1      -1.697  12.516  16.941  0.00  0.00    +0.000 HD
ATOM     32  H   UNL     1      -0.066  12.644  17.448  0.00  0.00    +0.000 HD
ENDBRANCH  27  30
ENDBRANCH  21  27
ENDBRANCH  20  24
ENDBRANCH  19  20
ENDBRANCH  18  19
ENDBRANCH  16  18
ENDBRANCH  15  16
ENDBRANCH   1  15
BRANCH   1  33
ATOM     33  C   UNL     1       5.292   4.512  15.728  0.00  0.00    +0.000 C 
BRANCH  33  34
ATOM     34  C   UNL     1       6.767   4.782  16.003  0.00  0.00    +0.000 C 
ATOM     35  O   UNL     1       7.493   5.437  15.271  0.00  0.00    +0.000 OA
BRANCH  34  36
ATOM     36  O   UNL     1       7.205   4.168  17.130  0.00  0.00    +0.000 OA
ATOM     37  H   UNL     1       8.178   4.301  17.197  0.00  0.00    +0.000 HD
ENDBRANCH  34  36
ENDBRANCH  33  34
ENDBRANCH   1  33
TORSDOF 20
ENDMDL
MODEL 3
REMARK VINA RESULT:      -6.6      1.244      2.268
REMARK  Name = 
REMARK  20 active torsions:
REMARK  status: ('A' for Active; 'I' for Inactive)
REMARK    1  A    between atoms: N_1  and  S_2
REMARK    2  A    between atoms: S_2  and  C_5
REMARK    3  A    between atoms: C_8  and  C_9
REMARK    4  A    between atoms: C_9  and  C_10
REMARK    5  A    between atoms: C_10  and  O_11
REMARK    6  A    between atoms: O_11  and  C_12
REMARK    7  A    between atoms: C_12  and  C_14
REMARK    8  A    between atoms: C_14  and  N_15
REMARK    9  A    between atoms: N_15  and  C_16
REMARK   10  A    between atoms: N_15  and  C_27
REMARK   11  A    between atoms: C_16  and  C_17
REMARK   12  A    between atoms: C_17  and  N_18
REMARK   13  A    between atoms: N_18  and  C_19
REMARK   14  A    between atoms: N_18  and  C_23
REMARK   15  A    between atoms: C_19  and  C_20
REMARK   16  A    between atoms: C_20  and  O_22
REMARK   17  A    between atoms: C_23  and  C_24
REMARK   18  A    between atoms: C_24  and  O_26
REMARK   19  A    between atoms: C_27  and  C_28
REMARK   20  A    between atoms: C_28  and  O_30
REMARK                            x       y       z     vdW  Elec       q    Type
REMARK                         _______ _______ _______ _____ _____    ______ ____
ROOT
ATOM      1  N   UNL     1       6.305   5.131  16.782  0.00  0.00    +0.000 NA
ENDROOT
BRANCH   1   2
ATOM      2  C   UNL     1       5.527   4.299  17.755  0.00  0.00    +0.000 C 
BRANCH   2   3
ATOM      3  C   UNL     1       4.106   3.851  17.307  0.00  0.00    +0.000 C 
BRANCH   3   4
ATOM      4  N   UNL     1       3.022   3.920  18.328  0.00  0.00    +0.000 NA
BRANCH   4   5
ATOM      5  C   UNL     1       2.784   2.589  18.969  0.00  0.00    +0.000 C 
BRANCH   5   6
ATOM      6  C   UNL     1       4.045   1.807  19.335  0.00  0.00    +0.000 C 
ATOM      7  O   UNL     1       4.766   2.078  20.285  0.00  0.00    +0.000 OA
BRANCH   6   8
ATOM      8  O   UNL     1       4.298   0.756  18.524  0.00  0.00    +0.000 OA
ATOM      9  H   UNL     1       4.372  -0.120  18.954  0.00  0.00    +0.000 HD
ENDBRANCH   6   8
ENDBRANCH   5   6
ENDBRANCH   4   5
BRANCH   4  10
ATOM     10  C   UNL     1       3.415   4.965  19.325  0.00  0.00    +0.000 C 
BRANCH  10  11
ATOM     11  C   UNL     1       2.218   5.451  20.132  0.00  0.00    +0.000 C 
ATOM     12  O   UNL     1       1.235   4.772  20.384  0.00  0.00    +0.000 OA
BRANCH  11  13
ATOM     13  O   UNL     1       2.348   6.738  20.533  0.00  0.00    +0.000 OA
ATOM     14  H   UNL     1       3.224   6.846  20.967  0.00  0.00    +0.000 HD
ENDBRANCH  11  13
ENDBRANCH  10  11
ENDBRANCH   4  10
ENDBRANCH   3   4
ENDBRANCH   2   3
ENDBRANCH   1   2
BRANCH   1  15
ATOM     15  C   UNL     1       6.272   6.559  17.242  0.00  0.00    +0.000 C 
BRANCH  15  16
ATOM     16  C   UNL     1       7.536   7.026  17.951  0.00  0.00    +0.000 C 
ATOM     17  O   UNL     1       8.068   6.485  18.907  0.00  0.00    +0.000 OA
BRANCH  16  18
ATOM     18  O   UNL     1       8.025   8.091  17.273  0.00  0.00    +0.000 OA
BRANCH  18  19
ATOM     19  C   UNL     1       7.809   9.386  17.847  0.00  0.00    +0.000 C 
BRANCH  19  20
ATOM     20  C   UNL     1       9.024   9.640  18.746  0.00  0.00    +0.000 C 
BRANCH  20  24
ATOM     21  C   UNL     1      10.421  13.731  18.791  0.00  0.00    +0.000 A 
ATOM     22  C   UNL     1      10.900  12.846  19.756  0.00  0.00    +0.000 A 
ATOM     23  C   UNL     1      10.468  11.526  19.752  0.00  0.00    +0.000 A 
ATOM     24  C   UNL     1       9.541  11.067  18.795  0.00  0.00    +0.000 A 
ATOM     25  C   UNL     1       9.055  11.982  17.844  0.00  0.00    +0.000 A 
ATOM     26  C   UNL     1       9.493  13.306  17.838  0.00  0.00    +0.000 A 
BRANCH  21  27
ATOM     27  S   UNL     1      11.030  15.386  18.745  0.00  0.00    +0.000 S 
ATOM     28  O   UNL     1      12.329  15.419  19.369  0.00  0.00    +0.000 OA
ATOM     29  O   UNL     1       9.966  16.301  19.111  0.00  0.00    +0.000 OA
BRANCH  27  30
ATOM     30  N   UNL     1      11.272  15.623  17.106  0.00  0.00    +0.000 NA
ATOM     31  H   UNL     1      11.493  16.607  16.928  0.00  0.00    +0.000 HD
ATOM     32  H   UNL     1      10.474  15.277  16.571  0.00  0.00    +0.000 HD
ENDBRANCH  27  30
ENDBRANCH  21  27
ENDBRANCH  20  24
ENDBRANCH  19  20
ENDBRANCH  18  19
ENDBRANCH  16  18
ENDBRANCH  15  16
ENDBRANCH   1  15
BRANCH   1  33
ATOM     33  C   UNL     1       5.604   5.073  15.454  0.00  0.00    +0.000 C 
BRANCH  33  34
ATOM     34  C   UNL     1       6.542   4.631  14.335  0.00  0.00    +0.000 C 
ATOM     35  O   UNL     1       7.371   5.356  13.808  0.00  0.00    +0.000 OA
BRANCH  34  36
ATOM     36  O   UNL     1       6.320   3.350  13.950  0.00  0.00    +0.000 OA
ATOM     37  H   UNL     1       6.130   2.814  14.753  0.00  0.00    +0.000 HD
ENDBRANCH  34  36
ENDBRANCH  33  34
ENDBRANCH   1  33
TORSDOF 20
ENDMDL
MODEL 4
REMARK VINA RESULT:      -6.4      5.401      9.267
REMARK  Name = 
REMARK  20 active torsions:
REMARK  status: ('A' for Active; 'I' for Inactive)
REMARK    1  A    between atoms: N_1  and  S_2
REMARK    2  A    between atoms: S_2  and  C_5
REMARK    3  A    between atoms: C_8  and  C_9
REMARK    4  A    between atoms: C_9  and  C_10
REMARK    5  A    between atoms: C_10  and  O_11
REMARK    6  A    between atoms: O_11  and  C_12
REMARK    7  A    between atoms: C_12  and  C_14
REMARK    8  A    between atoms: C_14  and  N_15
REMARK    9  A    between atoms: N_15  and  C_16
REMARK   10  A    between atoms: N_15  and  C_27
REMARK   11  A    between atoms: C_16  and  C_17
REMARK   12  A    between atoms: C_17  and  N_18
REMARK   13  A    between atoms: N_18  and  C_19
REMARK   14  A    between atoms: N_18  and  C_23
REMARK   15  A    between atoms: C_19  and  C_20
REMARK   16  A    between atoms: C_20  and  O_22
REMARK   17  A    between atoms: C_23  and  C_24
REMARK   18  A    between atoms: C_24  and  O_26
REMARK   19  A    between atoms: C_27  and  C_28
REMARK   20  A    between atoms: C_28  and  O_30
REMARK                            x       y       z     vdW  Elec       q    Type
REMARK                         _______ _______ _______ _____ _____    ______ ____
ROOT
ATOM      1  N   UNL     1       2.364   4.846  18.788  0.00  0.00    +0.000 NA
ENDROOT
BRANCH   1   2
ATOM      2  C   UNL     1       3.207   4.712  17.557  0.00  0.00    +0.000 C 
BRANCH   2   3
ATOM      3  C   UNL     1       4.517   3.886  17.697  0.00  0.00    +0.000 C 
BRANCH   3   4
ATOM      4  N   UNL     1       5.773   4.519  17.205  0.00  0.00    +0.000 NA
BRANCH   4   5
ATOM      5  C   UNL     1       5.590   5.120  15.846  0.00  0.00    +0.000 C 
BRANCH   5   6
ATOM      6  C   UNL     1       6.619   4.691  14.800  0.00  0.00    +0.000 C 
ATOM      7  O   UNL     1       7.625   5.330  14.527  0.00  0.00    +0.000 OA
BRANCH   6   8
ATOM      8  O   UNL     1       6.337   3.512  14.200  0.00  0.00    +0.000 OA
ATOM      9  H   UNL     1       5.445   3.143  14.360  0.00  0.00    +0.000 HD
ENDBRANCH   6   8
ENDBRANCH   5   6
ENDBRANCH   4   5
BRANCH   4  10
ATOM     10  C   UNL     1       6.186   5.538  18.221  0.00  0.00    +0.000 C 
BRANCH  10  11
ATOM     11  C   UNL     1       7.670   5.433  18.552  0.00  0.00    +0.000 C 
ATOM     12  O   UNL     1       8.337   4.420  18.413  0.00  0.00    +0.000 OA
BRANCH  11  13
ATOM     13  O   UNL     1       8.177   6.590  19.040  0.00  0.00    +0.000 OA
ATOM     14  H   UNL     1       8.300   6.496  20.011  0.00  0.00    +0.000 HD
ENDBRANCH  11  13
ENDBRANCH  10  11
ENDBRANCH   4  10
ENDBRANCH   3   4
ENDBRANCH   2   3
ENDBRANCH   1   2
BRANCH   1  15
ATOM     15  C   UNL     1       2.916   5.961  19.626  0.00  0.00    +0.000 C 
BRANCH  15  16
ATOM     16  C   UNL     1       2.349   7.336  19.306  0.00  0.00    +0.000 C 
ATOM     17  O   UNL     1       2.397   7.902  18.225  0.00  0.00    +0.000 OA
BRANCH  16  18
ATOM     18  O   UNL     1       1.692   7.783  20.402  0.00  0.00    +0.000 OA
BRANCH  18  19
ATOM     19  C   UNL     1       1.164   9.114  20.351  0.00  0.00    +0.000 C 
BRANCH  19  20
ATOM     20  C   UNL     1       0.579   9.372  21.745  0.00  0.00    +0.000 C 
BRANCH  20  24
ATOM     21  C   UNL     1      -2.400  12.502  21.906  0.00  0.00    +0.000 A 
ATOM     22  C   UNL     1      -2.063  11.832  23.082  0.00  0.00    +0.000 A 
ATOM     23  C   UNL     1      -1.103  10.829  23.050  0.00  0.00    +0.000 A 
ATOM     24  C   UNL     1      -0.470  10.466  21.844  0.00  0.00    +0.000 A 
ATOM     25  C   UNL     1      -0.839  11.141  20.667  0.00  0.00    +0.000 A 
ATOM     26  C   UNL     1      -1.796  12.155  20.695  0.00  0.00    +0.000 A 
BRANCH  21  27
ATOM     27  S   UNL     1      -3.559  13.829  21.959  0.00  0.00    +0.000 S 
ATOM     28  O   UNL     1      -2.867  15.035  22.344  0.00  0.00    +0.000 OA
ATOM     29  O   UNL     1      -4.772  13.383  22.618  0.00  0.00    +0.000 OA
BRANCH  27  30
ATOM     30  N   UNL     1      -3.969  13.998  20.346  0.00  0.00    +0.000 NA
ATOM     31  H   UNL     1      -4.879  13.562  20.172  0.00  0.00    +0.000 HD
ATOM     32  H   UNL     1      -3.223  13.645  19.745  0.00  0.00    +0.000 HD
ENDBRANCH  27  30
ENDBRANCH  21  27
ENDBRANCH  20  24
ENDBRANCH  19  20
ENDBRANCH  18  19
ENDBRANCH  16  18
ENDBRANCH  15  16
ENDBRANCH   1  15
BRANCH   1  33
ATOM     33  C   UNL     1       2.498   3.579  19.586  0.00  0.00    +0.000 C 
BRANCH  33  34
ATOM     34  C   UNL     1       1.161   2.863  19.745  0.00  0.00    +0.000 C 
ATOM     35  O   UNL     1       0.534   2.368  18.821  0.00  0.00    +0.000 OA
BRANCH  34  36
ATOM     36  O   UNL     1       0.714   2.879  21.024  0.00  0.00    +0.000 OA
ATOM     37  H   UNL     1       1.288   3.486  21.545  0.00  0.00    +0.000 HD
ENDBRANCH  34  36
ENDBRANCH  33  34
ENDBRANCH   1  33
TORSDOF 20
ENDMDL
MODEL 5
REMARK VINA RESULT:      -6.4      4.722      8.404
REMARK  Name = 
REMARK  20 active torsions:
REMARK  status: ('A' for Active; 'I' for Inactive)
REMARK    1  A    between atoms: N_1  and  S_2
REMARK    2  A    between atoms: S_2  and  C_5
REMARK    3  A    between atoms: C_8  and  C_9
REMARK    4  A    between atoms: C_9  and  C_10
REMARK    5  A    between atoms: C_10  and  O_11
REMARK    6  A    between atoms: O_11  and  C_12
REMARK    7  A    between atoms: C_12  and  C_14
REMARK    8  A    between atoms: C_14  and  N_15
REMARK    9  A    between atoms: N_15  and  C_16
REMARK   10  A    between atoms: N_15  and  C_27
REMARK   11  A    between atoms: C_16  and  C_17
REMARK   12  A    between atoms: C_17  and  N_18
REMARK   13  A    between atoms: N_18  and  C_19
REMARK   14  A    between atoms: N_18  and  C_23
REMARK   15  A    between atoms: C_19  and  C_20
REMARK   16  A    between atoms: C_20  and  O_22
REMARK   17  A    between atoms: C_23  and  C_24
REMARK   18  A    between atoms: C_24  and  O_26
REMARK   19  A    between atoms: C_27  and  C_28
REMARK   20  A    between atoms: C_28  and  O_30
REMARK                            x       y       z     vdW  Elec       q    Type
REMARK                         _______ _______ _______ _____ _____    ______ ____
ROOT
ATOM      1  N   UNL     1       3.350   2.611  18.357  0.00  0.00    +0.000 NA
ENDROOT
BRANCH   1   2
ATOM      2  C   UNL     1       4.214   2.967  17.187  0.00  0.00    +0.000 C 
BRANCH   2   3
ATOM      3  C   UNL     1       4.563   4.473  17.012  0.00  0.00    +0.000 C 
BRANCH   3   4
ATOM      4  N   UNL     1       5.959   4.885  17.332  0.00  0.00    +0.000 NA
BRANCH   4   5
ATOM      5  C   UNL     1       6.944   4.282  16.379  0.00  0.00    +0.000 C 
BRANCH   5   6
ATOM      6  C   UNL     1       6.897   4.836  14.956  0.00  0.00    +0.000 C 
ATOM      7  O   UNL     1       7.722   5.615  14.497  0.00  0.00    +0.000 OA
BRANCH   6   8
ATOM      8  O   UNL     1       5.863   4.375  14.217  0.00  0.00    +0.000 OA
ATOM      9  H   UNL     1       5.823   3.407  14.079  0.00  0.00    +0.000 HD
ENDBRANCH   6   8
ENDBRANCH   5   6
ENDBRANCH   4   5
BRANCH   4  10
ATOM     10  C   UNL     1       5.998   6.381  17.311  0.00  0.00    +0.000 C 
BRANCH  10  11
ATOM     11  C   UNL     1       7.366   6.914  17.716  0.00  0.00    +0.000 C 
ATOM     12  O   UNL     1       7.959   6.590  18.733  0.00  0.00    +0.000 OA
BRANCH  11  13
ATOM     13  O   UNL     1       7.858   7.812  16.829  0.00  0.00    +0.000 OA
ATOM     14  H   UNL     1       8.280   8.548  17.327  0.00  0.00    +0.000 HD
ENDBRANCH  11  13
ENDBRANCH  10  11
ENDBRANCH   4  10
ENDBRANCH   3   4
ENDBRANCH   2   3
ENDBRANCH   1   2
BRANCH   1  15
ATOM     15  C   UNL     1       1.980   3.178  18.129  0.00  0.00    +0.000 C 
BRANCH  15  16
ATOM     16  C   UNL     1       1.425   3.985  19.294  0.00  0.00    +0.000 C 
ATOM     17  O   UNL     1       0.860   3.536  20.279  0.00  0.00    +0.000 OA
BRANCH  16  18
ATOM     18  O   UNL     1       1.757   5.283  19.098  0.00  0.00    +0.000 OA
BRANCH  18  19
ATOM     19  C   UNL     1       1.809   6.127  20.255  0.00  0.00    +0.000 C 
BRANCH  19  20
ATOM     20  C   UNL     1       2.402   7.453  19.764  0.00  0.00    +0.000 C 
BRANCH  20  24
ATOM     21  C   UNL     1      -0.432  10.659  19.141  0.00  0.00    +0.000 A 
ATOM     22  C   UNL     1       0.296  10.184  18.052  0.00  0.00    +0.000 A 
ATOM     23  C   UNL     1       1.206   9.149  18.231  0.00  0.00    +0.000 A 
ATOM     24  C   UNL     1       1.416   8.578  19.503  0.00  0.00    +0.000 A 
ATOM     25  C   UNL     1       0.686   9.086  20.591  0.00  0.00    +0.000 A 
ATOM     26  C   UNL     1      -0.235  10.119  20.415  0.00  0.00    +0.000 A 
BRANCH  21  27
ATOM     27  S   UNL     1      -1.644  11.916  18.900  0.00  0.00    +0.000 S 
ATOM     28  O   UNL     1      -1.609  12.817  20.026  0.00  0.00    +0.000 OA
ATOM     29  O   UNL     1      -2.874  11.315  18.422  0.00  0.00    +0.000 OA
BRANCH  27  30
ATOM     30  N   UNL     1      -1.023  12.752  17.590  0.00  0.00    +0.000 NA
ATOM     31  H   UNL     1      -1.775  13.256  17.112  0.00  0.00    +0.000 HD
ATOM     32  H   UNL     1      -0.496  12.125  16.980  0.00  0.00    +0.000 HD
ENDBRANCH  27  30
ENDBRANCH  21  27
ENDBRANCH  20  24
ENDBRANCH  19  20
ENDBRANCH  18  19
ENDBRANCH  16  18
ENDBRANCH  15  16
ENDBRANCH   1  15
BRANCH   1  33
ATOM     33  C   UNL     1       3.915   3.285  19.576  0.00  0.00    +0.000 C 
BRANCH  33  34
ATOM     34  C   UNL     1       4.219   2.286  20.688  0.00  0.00    +0.000 C 
ATOM     35  O   UNL     1       5.217   1.582  20.724  0.00  0.00    +0.000 OA
BRANCH  34  36
ATOM     36  O   UNL     1       3.231   2.226  21.614  0.00  0.00    +0.000 OA
ATOM     37  H   UNL     1       3.221   1.319  21.997  0.00  0.00    +0.000 HD
ENDBRANCH  34  36
ENDBRANCH  33  34
ENDBRANCH   1  33
TORSDOF 20
ENDMDL
MODEL 6
REMARK VINA RESULT:      -6.4      5.569      8.636
REMARK  Name = 
REMARK  20 active torsions:
REMARK  status: ('A' for Active; 'I' for Inactive)
REMARK    1  A    between atoms: N_1  and  S_2
REMARK    2  A    between atoms: S_2  and  C_5
REMARK    3  A    between atoms: C_8  and  C_9
REMARK    4  A    between atoms: C_9  and  C_10
REMARK    5  A    between atoms: C_10  and  O_11
REMARK    6  A    between atoms: O_11  and  C_12
REMARK    7  A    between atoms: C_12  and  C_14
REMARK    8  A    between atoms: C_14  and  N_15
REMARK    9  A    between atoms: N_15  and  C_16
REMARK   10  A    between atoms: N_15  and  C_27
REMARK   11  A    between atoms: C_16  and  C_17
REMARK   12  A    between atoms: C_17  and  N_18
REMARK   13  A    between atoms: N_18  and  C_19
REMARK   14  A    between atoms: N_18  and  C_23
REMARK   15  A    between atoms: C_19  and  C_20
REMARK   16  A    between atoms: C_20  and  O_22
REMARK   17  A    between atoms: C_23  and  C_24
REMARK   18  A    between atoms: C_24  and  O_26
REMARK   19  A    between atoms: C_27  and  C_28
REMARK   20  A    between atoms: C_28  and  O_30
REMARK                            x       y       z     vdW  Elec       q    Type
REMARK                         _______ _______ _______ _____ _____    ______ ____
ROOT
ATOM      1  N   UNL     1       2.571   4.748  18.417  0.00  0.00    +0.000 NA
ENDROOT
BRANCH   1   2
ATOM      2  C   UNL     1       3.787   3.877  18.362  0.00  0.00    +0.000 C 
BRANCH   2   3
ATOM      3  C   UNL     1       4.343   3.544  16.948  0.00  0.00    +0.000 C 
BRANCH   3   4
ATOM      4  N   UNL     1       5.638   4.175  16.564  0.00  0.00    +0.000 NA
BRANCH   4   5
ATOM      5  C   UNL     1       5.536   4.886  15.251  0.00  0.00    +0.000 C 
BRANCH   5   6
ATOM      6  C   UNL     1       6.701   4.651  14.291  0.00  0.00    +0.000 C 
ATOM      7  O   UNL     1       7.734   5.306  14.295  0.00  0.00    +0.000 OA
BRANCH   6   8
ATOM      8  O   UNL     1       6.508   3.627  13.429  0.00  0.00    +0.000 OA
ATOM      9  H   UNL     1       7.299   3.302  12.953  0.00  0.00    +0.000 HD
ENDBRANCH   6   8
ENDBRANCH   5   6
ENDBRANCH   4   5
BRANCH   4  10
ATOM     10  C   UNL     1       6.031   5.097  17.676  0.00  0.00    +0.000 C 
BRANCH  10  11
ATOM     11  C   UNL     1       7.455   4.831  18.150  0.00  0.00    +0.000 C 
ATOM     12  O   UNL     1       7.918   5.239  19.202  0.00  0.00    +0.000 OA
BRANCH  11  13
ATOM     13  O   UNL     1       8.170   4.100  17.261  0.00  0.00    +0.000 OA
ATOM     14  H   UNL     1       8.794   3.524  17.757  0.00  0.00    +0.000 HD
ENDBRANCH  11  13
ENDBRANCH  10  11
ENDBRANCH   4  10
ENDBRANCH   3   4
ENDBRANCH   2   3
ENDBRANCH   1   2
BRANCH   1  15
ATOM     15  C   UNL     1       2.465   5.336  19.793  0.00  0.00    +0.000 C 
BRANCH  15  16
ATOM     16  C   UNL     1       2.170   6.829  19.825  0.00  0.00    +0.000 C 
ATOM     17  O   UNL     1       2.562   7.659  19.018  0.00  0.00    +0.000 OA
BRANCH  16  18
ATOM     18  O   UNL     1       1.315   7.064  20.847  0.00  0.00    +0.000 OA
BRANCH  18  19
ATOM     19  C   UNL     1       1.366   8.359  21.458  0.00  0.00    +0.000 C 
BRANCH  19  20
ATOM     20  C   UNL     1      -0.062   8.909  21.364  0.00  0.00    +0.000 C 
BRANCH  20  24
ATOM     21  C   UNL     1      -0.626  13.085  22.332  0.00  0.00    +0.000 A 
ATOM     22  C   UNL     1       0.142  12.751  21.218  0.00  0.00    +0.000 A 
ATOM     23  C   UNL     1       0.327  11.414  20.887  0.00  0.00    +0.000 A 
ATOM     24  C   UNL     1      -0.238  10.386  21.669  0.00  0.00    +0.000 A 
ATOM     25  C   UNL     1      -0.991  10.746  22.800  0.00  0.00    +0.000 A 
ATOM     26  C   UNL     1      -1.188  12.087  23.131  0.00  0.00    +0.000 A 
BRANCH  21  27
ATOM     27  S   UNL     1      -0.928  14.781  22.706  0.00  0.00    +0.000 S 
ATOM     28  O   UNL     1      -2.245  15.133  22.235  0.00  0.00    +0.000 OA
ATOM     29  O   UNL     1       0.249  15.564  22.383  0.00  0.00    +0.000 OA
BRANCH  27  30
ATOM     30  N   UNL     1      -1.000  14.762  24.378  0.00  0.00    +0.000 NA
ATOM     31  H   UNL     1      -0.100  14.456  24.760  0.00  0.00    +0.000 HD
ATOM     32  H   UNL     1      -1.793  14.205  24.699  0.00  0.00    +0.000 HD
ENDBRANCH  27  30
ENDBRANCH  21  27
ENDBRANCH  20  24
ENDBRANCH  19  20
ENDBRANCH  18  19
ENDBRANCH  16  18
ENDBRANCH  15  16
ENDBRANCH   1  15
BRANCH   1  33
ATOM     33  C   UNL     1       1.363   3.878  18.209  0.00  0.00    +0.000 C 
BRANCH  33  34
ATOM     34  C   UNL     1       1.344   2.693  19.169  0.00  0.00    +0.000 C 
ATOM     35  O   UNL     1       1.060   2.775  20.354  0.00  0.00    +0.000 OA
BRANCH  34  36
ATOM     36  O   UNL     1       1.729   1.538  18.573  0.00  0.00    +0.000 OA
ATOM     37  H   UNL     1       1.726   0.824  19.251  0.00  0.00    +0.000 HD
ENDBRANCH  34  36
ENDBRANCH  33  34
ENDBRANCH   1  33
TORSDOF 20
ENDMDL
MODEL 7
REMARK VINA RESULT:      -6.4      6.165      9.278
REMARK  Name = 
REMARK  20 active torsions:
REMARK  status: ('A' for Active; 'I' for Inactive)
REMARK    1  A    between atoms: N_1  and  S_2
REMARK    2  A    between atoms: S_2  and  C_5
REMARK    3  A    between atoms: C_8  and  C_9
REMARK    4  A    between atoms: C_9  and  C_10
REMARK    5  A    between atoms: C_10  and  O_11
REMARK    6  A    between atoms: O_11  and  C_12
REMARK    7  A    between atoms: C_12  and  C_14
REMARK    8  A    between atoms: C_14  and  N_15
REMARK    9  A    between atoms: N_15  and  C_16
REMARK   10  A    between atoms: N_15  and  C_27
REMARK   11  A    between atoms: C_16  and  C_17
REMARK   12  A    between atoms: C_17  and  N_18
REMARK   13  A    between atoms: N_18  and  C_19
REMARK   14  A    between atoms: N_18  and  C_23
REMARK   15  A    between atoms: C_19  and  C_20
REMARK   16  A    between atoms: C_20  and  O_22
REMARK   17  A    between atoms: C_23  and  C_24
REMARK   18  A    between atoms: C_24  and  O_26
REMARK   19  A    between atoms: C_27  and  C_28
REMARK   20  A    between atoms: C_28  and  O_30
REMARK                            x       y       z     vdW  Elec       q    Type
REMARK                         _______ _______ _______ _____ _____    ______ ____
ROOT
ATOM      1  N   UNL     1       2.494   6.319  18.604  0.00  0.00    +0.000 NA
ENDROOT
BRANCH   1   2
ATOM      2  C   UNL     1       3.976   6.187  18.440  0.00  0.00    +0.000 C 
BRANCH   2   3
ATOM      3  C   UNL     1       4.472   5.420  17.181  0.00  0.00    +0.000 C 
BRANCH   3   4
ATOM      4  N   UNL     1       5.329   4.223  17.411  0.00  0.00    +0.000 NA
BRANCH   4   5
ATOM      5  C   UNL     1       6.724   4.441  16.912  0.00  0.00    +0.000 C 
BRANCH   5   6
ATOM      6  C   UNL     1       6.863   4.550  15.394  0.00  0.00    +0.000 C 
ATOM      7  O   UNL     1       7.424   5.475  14.824  0.00  0.00    +0.000 OA
BRANCH   6   8
ATOM      8  O   UNL     1       6.326   3.512  14.714  0.00  0.00    +0.000 OA
ATOM      9  H   UNL     1       6.644   3.379  13.798  0.00  0.00    +0.000 HD
ENDBRANCH   6   8
ENDBRANCH   5   6
ENDBRANCH   4   5
BRANCH   4  10
ATOM     10  C   UNL     1       5.295   3.926  18.877  0.00  0.00    +0.000 C 
BRANCH  10  11
ATOM     11  C   UNL     1       4.496   2.663  19.176  0.00  0.00    +0.000 C 
ATOM     12  O   UNL     1       4.139   2.321  20.292  0.00  0.00    +0.000 OA
BRANCH  11  13
ATOM     13  O   UNL     1       4.234   1.938  18.062  0.00  0.00    +0.000 OA
ATOM     14  H   UNL     1       5.076   1.792  17.575  0.00  0.00    +0.000 HD
ENDBRANCH  11  13
ENDBRANCH  10  11
ENDBRANCH   4  10
ENDBRANCH   3   4
ENDBRANCH   2   3
ENDBRANCH   1   2
BRANCH   1  15
ATOM     15  C   UNL     1       2.209   7.568  19.386  0.00  0.00    +0.000 C 
BRANCH  15  16
ATOM     16  C   UNL     1       1.796   8.764  18.541  0.00  0.00    +0.000 C 
ATOM     17  O   UNL     1       2.120   8.977  17.383  0.00  0.00    +0.000 OA
BRANCH  16  18
ATOM     18  O   UNL     1       0.922   9.504  19.264  0.00  0.00    +0.000 OA
BRANCH  18  19
ATOM     19  C   UNL     1       0.879  10.911  18.997  0.00  0.00    +0.000 C 
BRANCH  19  20
ATOM     20  C   UNL     1       0.932  11.587  20.371  0.00  0.00    +0.000 C 
BRANCH  20  24
ATOM     21  C   UNL     1      -2.836  12.589  22.241  0.00  0.00    +0.000 A 
ATOM     22  C   UNL     1      -2.567  13.079  20.964  0.00  0.00    +0.000 A 
ATOM     23  C   UNL     1      -1.365  12.761  20.345  0.00  0.00    +0.000 A 
ATOM     24  C   UNL     1      -0.403  11.960  20.992  0.00  0.00    +0.000 A 
ATOM     25  C   UNL     1      -0.686  11.494  22.288  0.00  0.00    +0.000 A 
ATOM     26  C   UNL     1      -1.896  11.802  22.910  0.00  0.00    +0.000 A 
BRANCH  21  27
ATOM     27  S   UNL     1      -4.394  12.924  22.995  0.00  0.00    +0.000 S 
ATOM     28  O   UNL     1      -5.433  12.305  22.210  0.00  0.00    +0.000 OA
ATOM     29  O   UNL     1      -4.446  14.318  23.394  0.00  0.00    +0.000 OA
BRANCH  27  30
ATOM     30  N   UNL     1      -4.283  12.060  24.424  0.00  0.00    +0.000 NA
ATOM     31  H   UNL     1      -5.201  11.678  24.669  0.00  0.00    +0.000 HD
ATOM     32  H   UNL     1      -3.866  12.631  25.159  0.00  0.00    +0.000 HD
ENDBRANCH  27  30
ENDBRANCH  21  27
ENDBRANCH  20  24
ENDBRANCH  19  20
ENDBRANCH  18  19
ENDBRANCH  16  18
ENDBRANCH  15  16
ENDBRANCH   1  15
BRANCH   1  33
ATOM     33  C   UNL     1       2.009   5.158  19.426  0.00  0.00    +0.000 C 
BRANCH  33  34
ATOM     34  C   UNL     1       1.432   4.046  18.555  0.00  0.00    +0.000 C 
ATOM     35  O   UNL     1       1.212   4.156  17.359  0.00  0.00    +0.000 OA
BRANCH  34  36
ATOM     36  O   UNL     1       1.140   2.930  19.267  0.00  0.00    +0.000 OA
ATOM     37  H   UNL     1       1.038   2.180  18.638  0.00  0.00    +0.000 HD
ENDBRANCH  34  36
ENDBRANCH  33  34
ENDBRANCH   1  33
TORSDOF 20
ENDMDL
MODEL 8
REMARK VINA RESULT:      -6.3      5.706      8.897
REMARK  Name = 
REMARK  20 active torsions:
REMARK  status: ('A' for Active; 'I' for Inactive)
REMARK    1  A    between atoms: N_1  and  S_2
REMARK    2  A    between atoms: S_2  and  C_5
REMARK    3  A    between atoms: C_8  and  C_9
REMARK    4  A    between atoms: C_9  and  C_10
REMARK    5  A    between atoms: C_10  and  O_11
REMARK    6  A    between atoms: O_11  and  C_12
REMARK    7  A    between atoms: C_12  and  C_14
REMARK    8  A    between atoms: C_14  and  N_15
REMARK    9  A    between atoms: N_15  and  C_16
REMARK   10  A    between atoms: N_15  and  C_27
REMARK   11  A    between atoms: C_16  and  C_17
REMARK   12  A    between atoms: C_17  and  N_18
REMARK   13  A    between atoms: N_18  and  C_19
REMARK   14  A    between atoms: N_18  and  C_23
REMARK   15  A    between atoms: C_19  and  C_20
REMARK   16  A    between atoms: C_20  and  O_22
REMARK   17  A    between atoms: C_23  and  C_24
REMARK   18  A    between atoms: C_24  and  O_26
REMARK   19  A    between atoms: C_27  and  C_28
REMARK   20  A    between atoms: C_28  and  O_30
REMARK                            x       y       z     vdW  Elec       q    Type
REMARK                         _______ _______ _______ _____ _____    ______ ____
ROOT
ATOM      1  N   UNL     1       2.487   4.880  17.853  0.00  0.00    +0.000 NA
ENDROOT
BRANCH   1   2
ATOM      2  C   UNL     1       3.658   4.058  18.296  0.00  0.00    +0.000 C 
BRANCH   2   3
ATOM      3  C   UNL     1       4.565   3.477  17.174  0.00  0.00    +0.000 C 
BRANCH   3   4
ATOM      4  N   UNL     1       5.736   4.298  16.757  0.00  0.00    +0.000 NA
BRANCH   4   5
ATOM      5  C   UNL     1       5.522   4.919  15.411  0.00  0.00    +0.000 C 
BRANCH   5   6
ATOM      6  C   UNL     1       6.630   4.663  14.392  0.00  0.00    +0.000 C 
ATOM      7  O   UNL     1       7.598   5.394  14.236  0.00  0.00    +0.000 OA
BRANCH   6   8
ATOM      8  O   UNL     1       6.469   3.530  13.672  0.00  0.00    +0.000 OA
ATOM      9  H   UNL     1       5.605   3.078  13.757  0.00  0.00    +0.000 HD
ENDBRANCH   6   8
ENDBRANCH   5   6
ENDBRANCH   4   5
BRANCH   4  10
ATOM     10  C   UNL     1       5.962   5.325  17.822  0.00  0.00    +0.000 C 
BRANCH  10  11
ATOM     11  C   UNL     1       7.204   5.014  18.648  0.00  0.00    +0.000 C 
ATOM     12  O   UNL     1       8.177   4.408  18.228  0.00  0.00    +0.000 OA
BRANCH  11  13
ATOM     13  O   UNL     1       7.111   5.471  19.920  0.00  0.00    +0.000 OA
ATOM     14  H   UNL     1       6.504   4.883  20.422  0.00  0.00    +0.000 HD
ENDBRANCH  11  13
ENDBRANCH  10  11
ENDBRANCH   4  10
ENDBRANCH   3   4
ENDBRANCH   2   3
ENDBRANCH   1   2
BRANCH   1  15
ATOM     15  C   UNL     1       2.209   5.919  18.898  0.00  0.00    +0.000 C 
BRANCH  15  16
ATOM     16  C   UNL     1       2.657   7.326  18.528  0.00  0.00    +0.000 C 
ATOM     17  O   UNL     1       3.272   7.647  17.523  0.00  0.00    +0.000 OA
BRANCH  16  18
ATOM     18  O   UNL     1       2.167   8.179  19.459  0.00  0.00    +0.000 OA
BRANCH  18  19
ATOM     19  C   UNL     1       1.382   7.613  20.515  0.00  0.00    +0.000 C 
BRANCH  19  20
ATOM     20  C   UNL     1       1.550   8.569  21.702  0.00  0.00    +0.000 C 
BRANCH  20  24
ATOM     21  C   UNL     1      -1.542  11.563  22.120  0.00  0.00    +0.000 A 
ATOM     22  C   UNL     1      -1.242  10.749  23.211  0.00  0.00    +0.000 A 
ATOM     23  C   UNL     1      -0.246   9.787  23.098  0.00  0.00    +0.000 A 
ATOM     24  C   UNL     1       0.460   9.609  21.890  0.00  0.00    +0.000 A 
ATOM     25  C   UNL     1       0.126  10.427  20.797  0.00  0.00    +0.000 A 
ATOM     26  C   UNL     1      -0.866  11.401  20.908  0.00  0.00    +0.000 A 
BRANCH  21  27
ATOM     27  S   UNL     1      -2.749  12.837  22.288  0.00  0.00    +0.000 S 
ATOM     28  O   UNL     1      -3.533  12.895  21.079  0.00  0.00    +0.000 OA
ATOM     29  O   UNL     1      -2.131  14.012  22.873  0.00  0.00    +0.000 OA
BRANCH  27  30
ATOM     30  N   UNL     1      -3.744  12.220  23.483  0.00  0.00    +0.000 NA
ATOM     31  H   UNL     1      -4.333  11.478  23.094  0.00  0.00    +0.000 HD
ATOM     32  H   UNL     1      -4.271  12.968  23.935  0.00  0.00    +0.000 HD
ENDBRANCH  27  30
ENDBRANCH  21  27
ENDBRANCH  20  24
ENDBRANCH  19  20
ENDBRANCH  18  19
ENDBRANCH  16  18
ENDBRANCH  15  16
ENDBRANCH   1  15
BRANCH   1  33
ATOM     33  C   UNL     1       1.284   3.981  17.786  0.00  0.00    +0.000 C 
BRANCH  33  34
ATOM     34  C   UNL     1       1.242   2.999  18.952  0.00  0.00    +0.000 C 
ATOM     35  O   UNL     1       0.987   3.314  20.105  0.00  0.00    +0.000 OA
BRANCH  34  36
ATOM     36  O   UNL     1       1.572   1.739  18.580  0.00  0.00    +0.000 OA
ATOM     37  H   UNL     1       0.831   1.369  18.049  0.00  0.00    +0.000 HD
ENDBRANCH  34  36
ENDBRANCH  33  34
ENDBRANCH   1  33
TORSDOF 20
ENDMDL
MODEL 9
REMARK VINA RESULT:      -6.3      1.997      2.353
REMARK  Name = 
REMARK  20 active torsions:
REMARK  status: ('A' for Active; 'I' for Inactive)
REMARK    1  A    between atoms: N_1  and  S_2
REMARK    2  A    between atoms: S_2  and  C_5
REMARK    3  A    between atoms: C_8  and  C_9
REMARK    4  A    between atoms: C_9  and  C_10
REMARK    5  A    between atoms: C_10  and  O_11
REMARK    6  A    between atoms: O_11  and  C_12
REMARK    7  A    between atoms: C_12  and  C_14
REMARK    8  A    between atoms: C_14  and  N_15
REMARK    9  A    between atoms: N_15  and  C_16
REMARK   10  A    between atoms: N_15  and  C_27
REMARK   11  A    between atoms: C_16  and  C_17
REMARK   12  A    between atoms: C_17  and  N_18
REMARK   13  A    between atoms: N_18  and  C_19
REMARK   14  A    between atoms: N_18  and  C_23
REMARK   15  A    between atoms: C_19  and  C_20
REMARK   16  A    between atoms: C_20  and  O_22
REMARK   17  A    between atoms: C_23  and  C_24
REMARK   18  A    between atoms: C_24  and  O_26
REMARK   19  A    between atoms: C_27  and  C_28
REMARK   20  A    between atoms: C_28  and  O_30
REMARK                            x       y       z     vdW  Elec       q    Type
REMARK                         _______ _______ _______ _____ _____    ______ ____
ROOT
ATOM      1  N   UNL     1       6.794   5.502  16.611  0.00  0.00    +0.000 NA
ENDROOT
BRANCH   1   2
ATOM      2  C   UNL     1       6.234   4.511  17.585  0.00  0.00    +0.000 C 
BRANCH   2   3
ATOM      3  C   UNL     1       4.785   4.015  17.317  0.00  0.00    +0.000 C 
BRANCH   3   4
ATOM      4  N   UNL     1       3.778   4.259  18.389  0.00  0.00    +0.000 NA
BRANCH   4   5
ATOM      5  C   UNL     1       2.777   5.294  17.979  0.00  0.00    +0.000 C 
BRANCH   5   6
ATOM      6  C   UNL     1       2.689   6.513  18.895  0.00  0.00    +0.000 C 
ATOM      7  O   UNL     1       2.383   7.635  18.514  0.00  0.00    +0.000 OA
BRANCH   6   8
ATOM      8  O   UNL     1       2.959   6.250  20.193  0.00  0.00    +0.000 OA
ATOM      9  H   UNL     1       3.602   6.841  20.634  0.00  0.00    +0.000 HD
ENDBRANCH   6   8
ENDBRANCH   5   6
ENDBRANCH   4   5
BRANCH   4  10
ATOM     10  C   UNL     1       3.134   2.944  18.702  0.00  0.00    +0.000 C 
BRANCH  10  11
ATOM     11  C   UNL     1       4.139   1.946  19.264  0.00  0.00    +0.000 C 
ATOM     12  O   UNL     1       4.834   2.146  20.246  0.00  0.00    +0.000 OA
BRANCH  11  13
ATOM     13  O   UNL     1       4.196   0.802  18.540  0.00  0.00    +0.000 OA
ATOM     14  H   UNL     1       4.964   0.853  17.928  0.00  0.00    +0.000 HD
ENDBRANCH  11  13
ENDBRANCH  10  11
ENDBRANCH   4  10
ENDBRANCH   3   4
ENDBRANCH   2   3
ENDBRANCH   1   2
BRANCH   1  15
ATOM     15  C   UNL     1       6.598   6.882  17.167  0.00  0.00    +0.000 C 
BRANCH  15  16
ATOM     16  C   UNL     1       7.724   7.367  18.070  0.00  0.00    +0.000 C 
ATOM     17  O   UNL     1       8.323   6.698  18.898  0.00  0.00    +0.000 OA
BRANCH  16  18
ATOM     18  O   UNL     1       8.014   8.643  17.727  0.00  0.00    +0.000 OA
BRANCH  18  19
ATOM     19  C   UNL     1       8.721   9.436  18.689  0.00  0.00    +0.000 C 
BRANCH  19  20
ATOM     20  C   UNL     1       9.323  10.599  17.893  0.00  0.00    +0.000 C 
BRANCH  20  24
ATOM     21  C   UNL     1      10.105  14.282  20.019  0.00  0.00    +0.000 A 
ATOM     22  C   UNL     1      10.415  13.071  20.636  0.00  0.00    +0.000 A 
ATOM     23  C   UNL     1      10.177  11.878  19.965  0.00  0.00    +0.000 A 
ATOM     24  C   UNL     1       9.615  11.870  18.672  0.00  0.00    +0.000 A 
ATOM     25  C   UNL     1       9.291  13.102  18.078  0.00  0.00    +0.000 A 
ATOM     26  C   UNL     1       9.536  14.303  18.744  0.00  0.00    +0.000 A 
BRANCH  21  27
ATOM     27  S   UNL     1      10.480  15.799  20.837  0.00  0.00    +0.000 S 
ATOM     28  O   UNL     1       9.465  16.768  20.505  0.00  0.00    +0.000 OA
ATOM     29  O   UNL     1      11.897  16.079  20.707  0.00  0.00    +0.000 OA
BRANCH  27  30
ATOM     30  N   UNL     1      10.256  15.392  22.445  0.00  0.00    +0.000 NA
ATOM     31  H   UNL     1       9.876  16.195  22.955  0.00  0.00    +0.000 HD
ATOM     32  H   UNL     1      11.118  15.020  22.846  0.00  0.00    +0.000 HD
ENDBRANCH  27  30
ENDBRANCH  21  27
ENDBRANCH  20  24
ENDBRANCH  19  20
ENDBRANCH  18  19
ENDBRANCH  16  18
ENDBRANCH  15  16
ENDBRANCH   1  15
BRANCH   1  33
ATOM     33  C   UNL     1       5.992   5.414  15.343  0.00  0.00    +0.000 C 
BRANCH  33  34
ATOM     34  C   UNL     1       6.795   4.794  14.204  0.00  0.00    +0.000 C 
ATOM     35  O   UNL     1       7.617   5.400  13.534  0.00  0.00    +0.000 OA
BRANCH  34  36
ATOM     36  O   UNL     1       6.459   3.500  13.979  0.00  0.00    +0.000 OA
ATOM     37  H   UNL     1       6.321   3.060  14.848  0.00  0.00    +0.000 HD
ENDBRANCH  34  36
ENDBRANCH  33  34
ENDBRANCH   1  33
TORSDOF 20
ENDMDL
