MODEL 1
REMARK VINA RESULT:      -7.7      0.000      0.000
REMARK  Name = 
REMARK  6 active torsions:
REMARK  status: ('A' for Active; 'I' for Inactive)
REMARK    1  A    between atoms: C_1  and  C_2
REMARK    2  A    between atoms: C_2  and  C_3
REMARK    3  A    between atoms: C_3  and  S_4
REMARK    4  A    between atoms: S_4  and  N_7
REMARK    5  A    between atoms: N_7  and  C_8
REMARK    6  A    between atoms: C_14  and  C_15
REMARK                            x       y       z     vdW  Elec       q    Type
REMARK                         _______ _______ _______ _____ _____    ______ ____
ROOT
ATOM      1  C   UNL     1       2.868   6.292  18.772  0.00  0.00    +0.000 C 
ATOM      2  C   UNL     1       2.473   6.924  20.110  0.00  0.00    +0.000 C 
ATOM      3  C   UNL     1       1.351   7.941  19.953  0.00  0.00    +0.000 C 
ATOM      4  N   UNL     1       1.743   8.927  18.954  0.00  0.00    +0.000 N 
ATOM      5  C   UNL     1       1.287  10.232  19.040  0.00  0.00    +0.000 A 
ATOM      6  C   UNL     1       0.155  10.547  19.771  0.00  0.00    +0.000 A 
ATOM      7  C   UNL     1      -0.167  11.870  20.116  0.00  0.00    +0.000 A 
ATOM      8  C   UNL     1       0.683  12.893  19.612  0.00  0.00    +0.000 A 
ATOM      9  C   UNL     1       0.563  14.281  19.904  0.00  0.00    +0.000 A 
ATOM     10  C   UNL     1       1.379  15.239  19.304  0.00  0.00    +0.000 A 
ATOM     11  C   UNL     1       2.375  14.829  18.435  0.00  0.00    +0.000 A 
ATOM     12  C   UNL     1       2.556  13.466  18.192  0.00  0.00    +0.000 A 
ATOM     13  C   UNL     1       1.740  12.492  18.761  0.00  0.00    +0.000 A 
ATOM     14  N   UNL     1       2.027  11.206  18.493  0.00  0.00    +0.000 NA
ATOM     15  C   UNL     1       2.022   8.411  17.618  0.00  0.00    +0.000 C 
ATOM     16  C   UNL     1       3.142   7.380  17.725  0.00  0.00    +0.000 C 
ENDROOT
BRANCH   7  17
ATOM     17  C   UNL     1      -1.360  12.072  20.987  0.00  0.00    +0.000 A 
ATOM     18  C   UNL     1      -2.586  12.507  20.436  0.00  0.00    +0.000 A 
ATOM     19  C   UNL     1      -3.703  12.767  21.230  0.00  0.00    +0.000 A 
ATOM     20  C   UNL     1      -3.640  12.549  22.599  0.00  0.00    +0.000 A 
ATOM     21  C   UNL     1      -2.451  12.110  23.174  0.00  0.00    +0.000 A 
ATOM     22  C   UNL     1      -1.317  11.911  22.380  0.00  0.00    +0.000 A 
ENDBRANCH   7  17
BRANCH   1  23
ATOM     23  N   UNL     1       1.827   5.258  18.372  0.00  0.00    +0.000 NA
ATOM     24  H   UNL     1       1.094   5.244  19.091  0.00  0.00    +0.000 HD
BRANCH  23  25
ATOM     25  S   UNL     1       2.443   3.688  18.193  0.00  0.00    +0.000 S 
ATOM     26  O   UNL     1       3.762   3.717  18.785  0.00  0.00    +0.000 OA
ATOM     27  O   UNL     1       2.229   3.288  16.822  0.00  0.00    +0.000 OA
BRANCH  25  28
ATOM     28  C   UNL     1       1.385   2.660  19.225  0.00  0.00    +0.000 C 
BRANCH  28  30
ATOM     29  C   UNL     1       1.897   3.082  21.699  0.00  0.00    +0.000 C 
ATOM     30  C   UNL     1       1.064   3.459  20.491  0.00  0.00    +0.000 C 
ENDBRANCH  28  30
ENDBRANCH  25  28
ENDBRANCH  23  25
ENDBRANCH   1  23
TORSDOF 5
ENDMDL
MODEL 2
REMARK VINA RESULT:      -7.3      0.847      1.236
REMARK  Name = 
REMARK  6 active torsions:
REMARK  status: ('A' for Active; 'I' for Inactive)
REMARK    1  A    between atoms: C_1  and  C_2
REMARK    2  A    between atoms: C_2  and  C_3
REMARK    3  A    between atoms: C_3  and  S_4
REMARK    4  A    between atoms: S_4  and  N_7
REMARK    5  A    between atoms: N_7  and  C_8
REMARK    6  A    between atoms: C_14  and  C_15
REMARK                            x       y       z     vdW  Elec       q    Type
REMARK                         _______ _______ _______ _____ _____    ______ ____
ROOT
ATOM      1  C   UNL     1       2.651   6.976  18.748  0.00  0.00    +0.000 C 
ATOM      2  C   UNL     1       2.206   7.535  20.103  0.00  0.00    +0.000 C 
ATOM      3  C   UNL     1       1.052   8.517  19.964  0.00  0.00    +0.000 C 
ATOM      4  N   UNL     1       1.428   9.559  19.017  0.00  0.00    +0.000 N 
ATOM      5  C   UNL     1       0.922  10.842  19.150  0.00  0.00    +0.000 A 
ATOM      6  C   UNL     1      -0.235  11.085  19.869  0.00  0.00    +0.000 A 
ATOM      7  C   UNL     1      -0.613  12.378  20.263  0.00  0.00    +0.000 A 
ATOM      8  C   UNL     1       0.210  13.453  19.822  0.00  0.00    +0.000 A 
ATOM      9  C   UNL     1       0.034  14.821  20.170  0.00  0.00    +0.000 A 
ATOM     10  C   UNL     1       0.827  15.833  19.630  0.00  0.00    +0.000 A 
ATOM     11  C   UNL     1       1.854  15.497  18.767  0.00  0.00    +0.000 A 
ATOM     12  C   UNL     1       2.089  14.153  18.469  0.00  0.00    +0.000 A 
ATOM     13  C   UNL     1       1.298  13.127  18.978  0.00  0.00    +0.000 A 
ATOM     14  N   UNL     1       1.638  11.865  18.662  0.00  0.00    +0.000 NA
ATOM     15  C   UNL     1       1.752   9.113  17.667  0.00  0.00    +0.000 C 
ATOM     16  C   UNL     1       2.907   8.118  17.755  0.00  0.00    +0.000 C 
ENDROOT
BRANCH   7  17
ATOM     17  C   UNL     1      -1.830  12.500  21.116  0.00  0.00    +0.000 A 
ATOM     18  C   UNL     1      -1.752  12.289  22.510  0.00  0.00    +0.000 A 
ATOM     19  C   UNL     1      -2.881  12.332  23.329  0.00  0.00    +0.000 A 
ATOM     20  C   UNL     1      -4.118  12.639  22.778  0.00  0.00    +0.000 A 
ATOM     21  C   UNL     1      -4.229  12.863  21.410  0.00  0.00    +0.000 A 
ATOM     22  C   UNL     1      -3.103  12.757  20.586  0.00  0.00    +0.000 A 
ENDBRANCH   7  17
BRANCH   1  23
ATOM     23  N   UNL     1       1.657   5.924  18.280  0.00  0.00    +0.000 NA
ATOM     24  H   UNL     1       0.909   5.854  18.981  0.00  0.00    +0.000 HD
BRANCH  23  25
ATOM     25  S   UNL     1       2.333   4.385  18.052  0.00  0.00    +0.000 S 
ATOM     26  O   UNL     1       3.546   4.601  17.294  0.00  0.00    +0.000 OA
ATOM     27  O   UNL     1       1.282   3.512  17.581  0.00  0.00    +0.000 OA
BRANCH  25  28
ATOM     28  C   UNL     1       2.790   3.835  19.703  0.00  0.00    +0.000 C 
BRANCH  28  30
ATOM     29  C   UNL     1       1.396   2.704  21.530  0.00  0.00    +0.000 C 
ATOM     30  C   UNL     1       1.522   3.863  20.562  0.00  0.00    +0.000 C 
ENDBRANCH  28  30
ENDBRANCH  25  28
ENDBRANCH  23  25
ENDBRANCH   1  23
TORSDOF 5
ENDMDL
MODEL 3
REMARK VINA RESULT:      -7.2      1.341      1.879
REMARK  Name = 
REMARK  6 active torsions:
REMARK  status: ('A' for Active; 'I' for Inactive)
REMARK    1  A    between atoms: C_1  and  C_2
REMARK    2  A    between atoms: C_2  and  C_3
REMARK    3  A    between atoms: C_3  and  S_4
REMARK    4  A    between atoms: S_4  and  N_7
REMARK    5  A    between atoms: N_7  and  C_8
REMARK    6  A    between atoms: C_14  and  C_15
REMARK                            x       y       z     vdW  Elec       q    Type
REMARK                         _______ _______ _______ _____ _____    ______ ____
ROOT
ATOM      1  C   UNL     1       2.853   6.620  18.724  0.00  0.00    +0.000 C 
ATOM      2  C   UNL     1       2.416   7.205  20.071  0.00  0.00    +0.000 C 
ATOM      3  C   UNL     1       1.272   8.198  19.919  0.00  0.00    +0.000 C 
ATOM      4  N   UNL     1       1.658   9.220  18.955  0.00  0.00    +0.000 N 
ATOM      5  C   UNL     1       1.166  10.511  19.069  0.00  0.00    +0.000 A 
ATOM      6  C   UNL     1       0.013  10.777  19.785  0.00  0.00    +0.000 A 
ATOM      7  C   UNL     1      -0.350  12.080  20.160  0.00  0.00    +0.000 A 
ATOM      8  C   UNL     1       0.483  13.139  19.701  0.00  0.00    +0.000 A 
ATOM      9  C   UNL     1       0.322  14.515  20.029  0.00  0.00    +0.000 A 
ATOM     10  C   UNL     1       1.125  15.509  19.472  0.00  0.00    +0.000 A 
ATOM     11  C   UNL     1       2.148  15.149  18.612  0.00  0.00    +0.000 A 
ATOM     12  C   UNL     1       2.368  13.798  18.335  0.00  0.00    +0.000 A 
ATOM     13  C   UNL     1       1.567  12.789  18.861  0.00  0.00    +0.000 A 
ATOM     14  N   UNL     1       1.892  11.518  18.564  0.00  0.00    +0.000 NA
ATOM     15  C   UNL     1       1.975   8.750  17.612  0.00  0.00    +0.000 C 
ATOM     16  C   UNL     1       3.120   7.745  17.713  0.00  0.00    +0.000 C 
ENDROOT
BRANCH   7  17
ATOM     17  C   UNL     1      -1.564  12.228  21.012  0.00  0.00    +0.000 A 
ATOM     18  C   UNL     1      -2.787  12.659  20.451  0.00  0.00    +0.000 A 
ATOM     19  C   UNL     1      -3.925  12.869  21.230  0.00  0.00    +0.000 A 
ATOM     20  C   UNL     1      -3.885  12.603  22.592  0.00  0.00    +0.000 A 
ATOM     21  C   UNL     1      -2.700  12.166  23.176  0.00  0.00    +0.000 A 
ATOM     22  C   UNL     1      -1.546  12.018  22.399  0.00  0.00    +0.000 A 
ENDBRANCH   7  17
BRANCH   1  23
ATOM     23  N   UNL     1       1.847   5.572  18.275  0.00  0.00    +0.000 NA
ATOM     24  H   UNL     1       1.018   5.642  18.877  0.00  0.00    +0.000 HD
BRANCH  23  25
ATOM     25  S   UNL     1       2.430   3.981  18.336  0.00  0.00    +0.000 S 
ATOM     26  O   UNL     1       1.916   3.331  17.151  0.00  0.00    +0.000 OA
ATOM     27  O   UNL     1       2.169   3.471  19.663  0.00  0.00    +0.000 OA
BRANCH  25  28
ATOM     28  C   UNL     1       4.215   4.139  18.163  0.00  0.00    +0.000 C 
BRANCH  28  30
ATOM     29  C   UNL     1       5.180   5.174  16.028  0.00  0.00    +0.000 C 
ATOM     30  C   UNL     1       4.548   3.960  16.679  0.00  0.00    +0.000 C 
ENDBRANCH  28  30
ENDBRANCH  25  28
ENDBRANCH  23  25
ENDBRANCH   1  23
TORSDOF 5
ENDMDL
MODEL 4
REMARK VINA RESULT:      -7.1      1.228      1.849
REMARK  Name = 
REMARK  6 active torsions:
REMARK  status: ('A' for Active; 'I' for Inactive)
REMARK    1  A    between atoms: C_1  and  C_2
REMARK    2  A    between atoms: C_2  and  C_3
REMARK    3  A    between atoms: C_3  and  S_4
REMARK    4  A    between atoms: S_4  and  N_7
REMARK    5  A    between atoms: N_7  and  C_8
REMARK    6  A    between atoms: C_14  and  C_15
REMARK                            x       y       z     vdW  Elec       q    Type
REMARK                         _______ _______ _______ _____ _____    ______ ____
ROOT
ATOM      1  C   UNL     1       2.713   6.393  19.115  0.00  0.00    +0.000 C 
ATOM      2  C   UNL     1       2.281   7.085  20.411  0.00  0.00    +0.000 C 
ATOM      3  C   UNL     1       1.167   8.096  20.175  0.00  0.00    +0.000 C 
ATOM      4  N   UNL     1       1.591   9.035  19.145  0.00  0.00    +0.000 N 
ATOM      5  C   UNL     1       1.136  10.344  19.160  0.00  0.00    +0.000 A 
ATOM      6  C   UNL     1      -0.016  10.693  19.843  0.00  0.00    +0.000 A 
ATOM      7  C   UNL     1      -0.345  12.029  20.118  0.00  0.00    +0.000 A 
ATOM      8  C   UNL     1       0.523  13.029  19.594  0.00  0.00    +0.000 A 
ATOM      9  C   UNL     1       0.398  14.428  19.820  0.00  0.00    +0.000 A 
ATOM     10  C   UNL     1       1.234  15.357  19.202  0.00  0.00    +0.000 A 
ATOM     11  C   UNL     1       2.254  14.908  18.382  0.00  0.00    +0.000 A 
ATOM     12  C   UNL     1       2.438  13.534  18.205  0.00  0.00    +0.000 A 
ATOM     13  C   UNL     1       1.603  12.588  18.793  0.00  0.00    +0.000 A 
ATOM     14  N   UNL     1       1.895  11.291  18.592  0.00  0.00    +0.000 NA
ATOM     15  C   UNL     1       1.907   8.460  17.842  0.00  0.00    +0.000 C 
ATOM     16  C   UNL     1       3.021   7.433  18.029  0.00  0.00    +0.000 C 
ENDROOT
BRANCH   7  17
ATOM     17  C   UNL     1      -1.562  12.272  20.944  0.00  0.00    +0.000 A 
ATOM     18  C   UNL     1      -1.536  12.057  22.340  0.00  0.00    +0.000 A 
ATOM     19  C   UNL     1      -2.673  12.213  23.134  0.00  0.00    +0.000 A 
ATOM     20  C   UNL     1      -3.861  12.641  22.557  0.00  0.00    +0.000 A 
ATOM     21  C   UNL     1      -3.919  12.873  21.186  0.00  0.00    +0.000 A 
ATOM     22  C   UNL     1      -2.792  12.654  20.387  0.00  0.00    +0.000 A 
ENDBRANCH   7  17
BRANCH   1  23
ATOM     23  N   UNL     1       1.681   5.343  18.730  0.00  0.00    +0.000 NA
ATOM     24  H   UNL     1       0.769   5.640  19.095  0.00  0.00    +0.000 HD
BRANCH  23  25
ATOM     25  S   UNL     1       2.022   3.790  19.319  0.00  0.00    +0.000 S 
ATOM     26  O   UNL     1       0.786   3.312  19.897  0.00  0.00    +0.000 OA
ATOM     27  O   UNL     1       3.244   3.871  20.085  0.00  0.00    +0.000 OA
BRANCH  25  28
ATOM     28  C   UNL     1       2.372   2.810  17.850  0.00  0.00    +0.000 C 
BRANCH  28  30
ATOM     29  C   UNL     1       4.369   3.985  16.759  0.00  0.00    +0.000 C 
ATOM     30  C   UNL     1       3.887   2.842  17.629  0.00  0.00    +0.000 C 
ENDBRANCH  28  30
ENDBRANCH  25  28
ENDBRANCH  23  25
ENDBRANCH   1  23
TORSDOF 5
ENDMDL
MODEL 5
REMARK VINA RESULT:      -7.1      3.962      8.252
REMARK  Name = 
REMARK  6 active torsions:
REMARK  status: ('A' for Active; 'I' for Inactive)
REMARK    1  A    between atoms: C_1  and  C_2
REMARK    2  A    between atoms: C_2  and  C_3
REMARK    3  A    between atoms: C_3  and  S_4
REMARK    4  A    between atoms: S_4  and  N_7
REMARK    5  A    between atoms: N_7  and  C_8
REMARK    6  A    between atoms: C_14  and  C_15
REMARK                            x       y       z     vdW  Elec       q    Type
REMARK                         _______ _______ _______ _____ _____    ______ ____
ROOT
ATOM      1  C   UNL     1       0.155  11.917  18.783  0.00  0.00    +0.000 C 
ATOM      2  C   UNL     1      -0.529  10.556  18.630  0.00  0.00    +0.000 C 
ATOM      3  C   UNL     1       0.301   9.428  19.226  0.00  0.00    +0.000 C 
ATOM      4  N   UNL     1       1.635   9.461  18.639  0.00  0.00    +0.000 N 
ATOM      5  C   UNL     1       2.359   8.291  18.480  0.00  0.00    +0.000 A 
ATOM      6  C   UNL     1       2.067   7.161  19.223  0.00  0.00    +0.000 A 
ATOM      7  C   UNL     1       2.576   5.896  18.891  0.00  0.00    +0.000 A 
ATOM      8  C   UNL     1       3.479   5.831  17.793  0.00  0.00    +0.000 A 
ATOM      9  C   UNL     1       4.047   4.639  17.262  0.00  0.00    +0.000 A 
ATOM     10  C   UNL     1       4.994   4.660  16.239  0.00  0.00    +0.000 A 
ATOM     11  C   UNL     1       5.359   5.872  15.681  0.00  0.00    +0.000 A 
ATOM     12  C   UNL     1       4.759   7.047  16.138  0.00  0.00    +0.000 A 
ATOM     13  C   UNL     1       3.828   7.055  17.173  0.00  0.00    +0.000 A 
ATOM     14  N   UNL     1       3.280   8.237  17.508  0.00  0.00    +0.000 NA
ATOM     15  C   UNL     1       2.397  10.687  18.846  0.00  0.00    +0.000 C 
ATOM     16  C   UNL     1       1.599  11.852  18.266  0.00  0.00    +0.000 C 
ENDROOT
BRANCH   7  17
ATOM     17  C   UNL     1       2.112   4.741  19.712  0.00  0.00    +0.000 A 
ATOM     18  C   UNL     1       2.565   4.576  21.040  0.00  0.00    +0.000 A 
ATOM     19  C   UNL     1       2.201   3.473  21.814  0.00  0.00    +0.000 A 
ATOM     20  C   UNL     1       1.328   2.527  21.295  0.00  0.00    +0.000 A 
ATOM     21  C   UNL     1       0.854   2.664  19.994  0.00  0.00    +0.000 A 
ATOM     22  C   UNL     1       1.272   3.739  19.203  0.00  0.00    +0.000 A 
ENDBRANCH   7  17
BRANCH   1  23
ATOM     23  N   UNL     1       0.004  12.404  20.216  0.00  0.00    +0.000 NA
ATOM     24  H   UNL     1       0.047  11.589  20.839  0.00  0.00    +0.000 HD
BRANCH  23  25
ATOM     25  S   UNL     1      -1.442  13.239  20.514  0.00  0.00    +0.000 S 
ATOM     26  O   UNL     1      -2.238  13.081  19.317  0.00  0.00    +0.000 OA
ATOM     27  O   UNL     1      -1.095  14.541  21.035  0.00  0.00    +0.000 OA
BRANCH  25  28
ATOM     28  C   UNL     1      -2.236  12.322  21.843  0.00  0.00    +0.000 C 
BRANCH  28  30
ATOM     29  C   UNL     1      -0.956  10.499  23.107  0.00  0.00    +0.000 C 
ATOM     30  C   UNL     1      -1.156  11.982  22.874  0.00  0.00    +0.000 C 
ENDBRANCH  28  30
ENDBRANCH  25  28
ENDBRANCH  23  25
ENDBRANCH   1  23
TORSDOF 5
ENDMDL
MODEL 6
REMARK VINA RESULT:      -7.0      4.164      9.294
REMARK  Name = 
REMARK  6 active torsions:
REMARK  status: ('A' for Active; 'I' for Inactive)
REMARK    1  A    between atoms: C_1  and  C_2
REMARK    2  A    between atoms: C_2  and  C_3
REMARK    3  A    between atoms: C_3  and  S_4
REMARK    4  A    between atoms: S_4  and  N_7
REMARK    5  A    between atoms: N_7  and  C_8
REMARK    6  A    between atoms: C_14  and  C_15
REMARK                            x       y       z     vdW  Elec       q    Type
REMARK                         _______ _______ _______ _____ _____    ______ ____
ROOT
ATOM      1  C   UNL     1       0.093   9.789  22.856  0.00  0.00    +0.000 C 
ATOM      2  C   UNL     1       1.548   9.322  22.950  0.00  0.00    +0.000 C 
ATOM      3  C   UNL     1       2.059   8.774  21.625  0.00  0.00    +0.000 C 
ATOM      4  N   UNL     1       1.156   7.726  21.167  0.00  0.00    +0.000 N 
ATOM      5  C   UNL     1       1.636   6.668  20.412  0.00  0.00    +0.000 A 
ATOM      6  C   UNL     1       2.828   6.768  19.717  0.00  0.00    +0.000 A 
ATOM      7  C   UNL     1       3.480   5.643  19.187  0.00  0.00    +0.000 A 
ATOM      8  C   UNL     1       2.820   4.390  19.325  0.00  0.00    +0.000 A 
ATOM      9  C   UNL     1       3.346   3.133  18.916  0.00  0.00    +0.000 A 
ATOM     10  C   UNL     1       2.606   1.954  19.003  0.00  0.00    +0.000 A 
ATOM     11  C   UNL     1       1.337   1.993  19.552  0.00  0.00    +0.000 A 
ATOM     12  C   UNL     1       0.830   3.206  20.025  0.00  0.00    +0.000 A 
ATOM     13  C   UNL     1       1.541   4.399  19.930  0.00  0.00    +0.000 A 
ATOM     14  N   UNL     1       0.978   5.501  20.455  0.00  0.00    +0.000 NA
ATOM     15  C   UNL     1      -0.229   8.125  20.941  0.00  0.00    +0.000 C 
ATOM     16  C   UNL     1      -0.785   8.688  22.246  0.00  0.00    +0.000 C 
ENDROOT
BRANCH   7  17
ATOM     17  C   UNL     1       4.806   5.869  18.543  0.00  0.00    +0.000 A 
ATOM     18  C   UNL     1       5.997   5.494  19.204  0.00  0.00    +0.000 A 
ATOM     19  C   UNL     1       7.256   5.748  18.660  0.00  0.00    +0.000 A 
ATOM     20  C   UNL     1       7.358   6.340  17.408  0.00  0.00    +0.000 A 
ATOM     21  C   UNL     1       6.204   6.712  16.724  0.00  0.00    +0.000 A 
ATOM     22  C   UNL     1       4.948   6.511  17.304  0.00  0.00    +0.000 A 
ENDBRANCH   7  17
BRANCH   1  23
ATOM     23  N   UNL     1       0.034  11.132  22.143  0.00  0.00    +0.000 NA
ATOM     24  H   UNL     1       0.940  11.600  22.264  0.00  0.00    +0.000 HD
BRANCH  23  25
ATOM     25  S   UNL     1      -1.190  12.162  22.706  0.00  0.00    +0.000 S 
ATOM     26  O   UNL     1      -0.508  13.294  23.293  0.00  0.00    +0.000 OA
ATOM     27  O   UNL     1      -2.126  11.359  23.459  0.00  0.00    +0.000 OA
BRANCH  25  28
ATOM     28  C   UNL     1      -2.036  12.724  21.220  0.00  0.00    +0.000 C 
BRANCH  28  30
ATOM     29  C   UNL     1      -1.057  12.692  18.854  0.00  0.00    +0.000 C 
ATOM     30  C   UNL     1      -1.514  11.884  20.051  0.00  0.00    +0.000 C 
ENDBRANCH  28  30
ENDBRANCH  25  28
ENDBRANCH  23  25
ENDBRANCH   1  23
TORSDOF 5
ENDMDL
MODEL 7
REMARK VINA RESULT:      -6.9      3.981      8.399
REMARK  Name = 
REMARK  6 active torsions:
REMARK  status: ('A' for Active; 'I' for Inactive)
REMARK    1  A    between atoms: C_1  and  C_2
REMARK    2  A    between atoms: C_2  and  C_3
REMARK    3  A    between atoms: C_3  and  S_4
REMARK    4  A    between atoms: S_4  and  N_7
REMARK    5  A    between atoms: N_7  and  C_8
REMARK    6  A    between atoms: C_14  and  C_15
REMARK                            x       y       z     vdW  Elec       q    Type
REMARK                         _______ _______ _______ _____ _____    ______ ____
ROOT
ATOM      1  C   UNL     1      -0.157  11.883  18.717  0.00  0.00    +0.000 C 
ATOM      2  C   UNL     1      -0.772  10.489  18.564  0.00  0.00    +0.000 C 
ATOM      3  C   UNL     1       0.106   9.406  19.174  0.00  0.00    +0.000 C 
ATOM      4  N   UNL     1       1.443   9.502  18.601  0.00  0.00    +0.000 N 
ATOM      5  C   UNL     1       2.225   8.368  18.455  0.00  0.00    +0.000 A 
ATOM      6  C   UNL     1       1.981   7.229  19.201  0.00  0.00    +0.000 A 
ATOM      7  C   UNL     1       2.556   5.989  18.881  0.00  0.00    +0.000 A 
ATOM      8  C   UNL     1       3.472   5.964  17.792  0.00  0.00    +0.000 A 
ATOM      9  C   UNL     1       4.103   4.798  17.274  0.00  0.00    +0.000 A 
ATOM     10  C   UNL     1       5.059   4.860  16.260  0.00  0.00    +0.000 A 
ATOM     11  C   UNL     1       5.369   6.086  15.699  0.00  0.00    +0.000 A 
ATOM     12  C   UNL     1       4.707   7.233  16.144  0.00  0.00    +0.000 A 
ATOM     13  C   UNL     1       3.766   7.199  17.169  0.00  0.00    +0.000 A 
ATOM     14  N   UNL     1       3.158   8.355  17.492  0.00  0.00    +0.000 NA
ATOM     15  C   UNL     1       2.141  10.765  18.809  0.00  0.00    +0.000 C 
ATOM     16  C   UNL     1       1.293  11.886  18.214  0.00  0.00    +0.000 C 
ENDROOT
BRANCH   7  17
ATOM     17  C   UNL     1       2.140   4.816  19.703  0.00  0.00    +0.000 A 
ATOM     18  C   UNL     1       1.245   3.856  19.182  0.00  0.00    +0.000 A 
ATOM     19  C   UNL     1       0.785   2.782  19.945  0.00  0.00    +0.000 A 
ATOM     20  C   UNL     1       1.253   2.609  21.241  0.00  0.00    +0.000 A 
ATOM     21  C   UNL     1       2.145   3.530  21.782  0.00  0.00    +0.000 A 
ATOM     22  C   UNL     1       2.552   4.639  21.032  0.00  0.00    +0.000 A 
ENDBRANCH   7  17
BRANCH   1  23
ATOM     23  N   UNL     1      -0.347  12.369  20.145  0.00  0.00    +0.000 NA
ATOM     24  H   UNL     1      -1.311  12.159  20.431  0.00  0.00    +0.000 HD
BRANCH  23  25
ATOM     25  S   UNL     1      -0.068  14.028  20.355  0.00  0.00    +0.000 S 
ATOM     26  O   UNL     1      -0.552  14.661  19.148  0.00  0.00    +0.000 OA
ATOM     27  O   UNL     1       1.294  14.188  20.809  0.00  0.00    +0.000 OA
BRANCH  25  28
ATOM     28  C   UNL     1      -1.148  14.507  21.713  0.00  0.00    +0.000 C 
BRANCH  28  30
ATOM     29  C   UNL     1      -2.347  12.766  23.159  0.00  0.00    +0.000 C 
ATOM     30  C   UNL     1      -1.034  13.426  22.792  0.00  0.00    +0.000 C 
ENDBRANCH  28  30
ENDBRANCH  25  28
ENDBRANCH  23  25
ENDBRANCH   1  23
TORSDOF 5
ENDMDL
MODEL 8
REMARK VINA RESULT:      -6.9      4.337      8.618
REMARK  Name = 
REMARK  6 active torsions:
REMARK  status: ('A' for Active; 'I' for Inactive)
REMARK    1  A    between atoms: C_1  and  C_2
REMARK    2  A    between atoms: C_2  and  C_3
REMARK    3  A    between atoms: C_3  and  S_4
REMARK    4  A    between atoms: S_4  and  N_7
REMARK    5  A    between atoms: N_7  and  C_8
REMARK    6  A    between atoms: C_14  and  C_15
REMARK                            x       y       z     vdW  Elec       q    Type
REMARK                         _______ _______ _______ _____ _____    ______ ____
ROOT
ATOM      1  C   UNL     1       0.086  11.860  18.641  0.00  0.00    +0.000 C 
ATOM      2  C   UNL     1      -0.570  10.485  18.487  0.00  0.00    +0.000 C 
ATOM      3  C   UNL     1       0.275   9.377  19.100  0.00  0.00    +0.000 C 
ATOM      4  N   UNL     1       1.615   9.433  18.529  0.00  0.00    +0.000 N 
ATOM      5  C   UNL     1       2.364   8.277  18.385  0.00  0.00    +0.000 A 
ATOM      6  C   UNL     1       2.085   7.145  19.132  0.00  0.00    +0.000 A 
ATOM      7  C   UNL     1       2.624   5.889  18.813  0.00  0.00    +0.000 A 
ATOM      8  C   UNL     1       3.540   5.836  17.726  0.00  0.00    +0.000 A 
ATOM      9  C   UNL     1       4.138   4.652  17.209  0.00  0.00    +0.000 A 
ATOM     10  C   UNL     1       5.097   4.685  16.197  0.00  0.00    +0.000 A 
ATOM     11  C   UNL     1       5.444   5.901  15.636  0.00  0.00    +0.000 A 
ATOM     12  C   UNL     1       4.816   7.067  16.080  0.00  0.00    +0.000 A 
ATOM     13  C   UNL     1       3.872   7.062  17.103  0.00  0.00    +0.000 A 
ATOM     14  N   UNL     1       3.298   8.235  17.424  0.00  0.00    +0.000 NA
ATOM     15  C   UNL     1       2.350  10.675  18.738  0.00  0.00    +0.000 C 
ATOM     16  C   UNL     1       1.537  11.821  18.141  0.00  0.00    +0.000 C 
ENDROOT
BRANCH   7  17
ATOM     17  C   UNL     1       2.172   4.729  19.635  0.00  0.00    +0.000 A 
ATOM     18  C   UNL     1       1.288   3.769  19.096  0.00  0.00    +0.000 A 
ATOM     19  C   UNL     1       0.796   2.708  19.856  0.00  0.00    +0.000 A 
ATOM     20  C   UNL     1       1.218   2.548  21.169  0.00  0.00    +0.000 A 
ATOM     21  C   UNL     1       2.097   3.470  21.729  0.00  0.00    +0.000 A 
ATOM     22  C   UNL     1       2.537   4.566  20.980  0.00  0.00    +0.000 A 
ENDBRANCH   7  17
BRANCH   1  23
ATOM     23  N   UNL     1      -0.092  12.353  20.069  0.00  0.00    +0.000 NA
ATOM     24  H   UNL     1      -0.960  11.950  20.442  0.00  0.00    +0.000 HD
BRANCH  23  25
ATOM     25  S   UNL     1      -0.170  14.040  20.215  0.00  0.00    +0.000 S 
ATOM     26  O   UNL     1      -0.877  14.293  21.451  0.00  0.00    +0.000 OA
ATOM     27  O   UNL     1      -0.629  14.568  18.950  0.00  0.00    +0.000 OA
BRANCH  25  28
ATOM     28  C   UNL     1       1.539  14.562  20.427  0.00  0.00    +0.000 C 
BRANCH  28  30
ATOM     29  C   UNL     1       3.025  15.243  18.455  0.00  0.00    +0.000 C 
ATOM     30  C   UNL     1       1.842  15.592  19.335  0.00  0.00    +0.000 C 
ENDBRANCH  28  30
ENDBRANCH  25  28
ENDBRANCH  23  25
ENDBRANCH   1  23
TORSDOF 5
ENDMDL
MODEL 9
REMARK VINA RESULT:      -6.9      4.274      8.665
REMARK  Name = 
REMARK  6 active torsions:
REMARK  status: ('A' for Active; 'I' for Inactive)
REMARK    1  A    between atoms: C_1  and  C_2
REMARK    2  A    between atoms: C_2  and  C_3
REMARK    3  A    between atoms: C_3  and  S_4
REMARK    4  A    between atoms: S_4  and  N_7
REMARK    5  A    between atoms: N_7  and  C_8
REMARK    6  A    between atoms: C_14  and  C_15
REMARK                            x       y       z     vdW  Elec       q    Type
REMARK                         _______ _______ _______ _____ _____    ______ ____
ROOT
ATOM      1  C   UNL     1       0.125  11.906  18.741  0.00  0.00    +0.000 C 
ATOM      2  C   UNL     1      -0.555  10.543  18.580  0.00  0.00    +0.000 C 
ATOM      3  C   UNL     1       0.271   9.418  19.188  0.00  0.00    +0.000 C 
ATOM      4  N   UNL     1       1.611   9.454  18.617  0.00  0.00    +0.000 N 
ATOM      5  C   UNL     1       2.341   8.285  18.468  0.00  0.00    +0.000 A 
ATOM      6  C   UNL     1       2.042   7.155  19.208  0.00  0.00    +0.000 A 
ATOM      7  C   UNL     1       2.559   5.891  18.883  0.00  0.00    +0.000 A 
ATOM      8  C   UNL     1       3.475   5.828  17.796  0.00  0.00    +0.000 A 
ATOM      9  C   UNL     1       4.052   4.637  17.274  0.00  0.00    +0.000 A 
ATOM     10  C   UNL     1       5.012   4.659  16.262  0.00  0.00    +0.000 A 
ATOM     11  C   UNL     1       5.381   5.871  15.708  0.00  0.00    +0.000 A 
ATOM     12  C   UNL     1       4.772   7.045  16.157  0.00  0.00    +0.000 A 
ATOM     13  C   UNL     1       3.828   7.051  17.180  0.00  0.00    +0.000 A 
ATOM     14  N   UNL     1       3.274   8.233  17.507  0.00  0.00    +0.000 NA
ATOM     15  C   UNL     1       2.368  10.682  18.833  0.00  0.00    +0.000 C 
ATOM     16  C   UNL     1       1.575  11.844  18.242  0.00  0.00    +0.000 C 
ENDROOT
BRANCH   7  17
ATOM     17  C   UNL     1       2.087   4.735  19.699  0.00  0.00    +0.000 A 
ATOM     18  C   UNL     1       2.512   4.581  21.037  0.00  0.00    +0.000 A 
ATOM     19  C   UNL     1       2.141   3.478  21.808  0.00  0.00    +0.000 A 
ATOM     20  C   UNL     1       1.289   2.522  21.275  0.00  0.00    +0.000 A 
ATOM     21  C   UNL     1       0.842   2.648  19.963  0.00  0.00    +0.000 A 
ATOM     22  C   UNL     1       1.268   3.723  19.176  0.00  0.00    +0.000 A 
ENDBRANCH   7  17
BRANCH   1  23
ATOM     23  N   UNL     1      -0.046  12.394  20.172  0.00  0.00    +0.000 NA
ATOM     24  H   UNL     1      -0.466  11.636  20.722  0.00  0.00    +0.000 HD
BRANCH  23  25
ATOM     25  S   UNL     1      -1.017  13.776  20.321  0.00  0.00    +0.000 S 
ATOM     26  O   UNL     1      -0.653  14.374  21.587  0.00  0.00    +0.000 OA
ATOM     27  O   UNL     1      -2.376  13.390  20.020  0.00  0.00    +0.000 OA
BRANCH  25  28
ATOM     28  C   UNL     1      -0.464  14.870  19.003  0.00  0.00    +0.000 C 
BRANCH  28  30
ATOM     29  C   UNL     1       2.023  15.390  19.327  0.00  0.00    +0.000 C 
ATOM     30  C   UNL     1       0.592  15.807  19.597  0.00  0.00    +0.000 C 
ENDBRANCH  28  30
ENDBRANCH  25  28
ENDBRANCH  23  25
ENDBRANCH   1  23
TORSDOF 5
ENDMDL
