MODEL 1
REMARK VINA RESULT:      -8.6      0.000      0.000
REMARK  Name = 
REMARK  6 active torsions:
REMARK  status: ('A' for Active; 'I' for Inactive)
REMARK    1  A    between atoms: C_1  and  C_2
REMARK    2  A    between atoms: C_5  and  C_7
REMARK    3  A    between atoms: C_11  and  S_12
REMARK    4  A    between atoms: S_12  and  N_15
REMARK    5  A    between atoms: N_15  and  C_16
REMARK    6  A    between atoms: C_25  and  C_26
REMARK                            x       y       z     vdW  Elec       q    Type
REMARK                         _______ _______ _______ _____ _____    ______ ____
ROOT
ATOM      1  C   UNL     1       3.391   6.065  18.850  0.00  0.00    +0.000 A 
ATOM      2  C   UNL     1       3.088   7.026  17.878  0.00  0.00    +0.000 A 
ATOM      3  C   UNL     1       4.114   7.633  17.157  0.00  0.00    +0.000 A 
ATOM      4  C   UNL     1       5.439   7.283  17.404  0.00  0.00    +0.000 A 
ATOM      5  C   UNL     1       5.743   6.291  18.339  0.00  0.00    +0.000 A 
ATOM      6  C   UNL     1       4.721   5.673  19.062  0.00  0.00    +0.000 A 
ENDROOT
BRANCH   1  11
ATOM      7  C   UNL     1       1.711   2.573  21.759  0.00  0.00    +0.000 C 
ATOM      8  C   UNL     1       0.978   2.362  20.439  0.00  0.00    +0.000 C 
ATOM      9  C   UNL     1       0.556   3.676  19.764  0.00  0.00    +0.000 C 
ATOM     10  N   UNL     1       1.672   4.281  19.046  0.00  0.00    +0.000 N 
ATOM     11  C   UNL     1       2.279   5.411  19.583  0.00  0.00    +0.000 C 
ATOM     12  O   UNL     1       1.921   5.926  20.643  0.00  0.00    +0.000 OA
ATOM     13  C   UNL     1       2.255   3.365  18.062  0.00  0.00    +0.000 C 
ATOM     14  C   UNL     1       2.692   2.046  18.710  0.00  0.00    +0.000 C 
ATOM     15  C   UNL     1       4.051   2.152  19.395  0.00  0.00    +0.000 C 
ATOM     16  O   UNL     1       1.690   1.471  19.558  0.00  0.00    +0.000 OA
ENDBRANCH   1  11
BRANCH   5  17
ATOM     17  S   UNL     1       7.456   5.920  18.649  0.00  0.00    +0.000 S 
ATOM     18  O   UNL     1       8.212   7.108  18.257  0.00  0.00    +0.000 OA
ATOM     19  O   UNL     1       7.541   5.397  19.984  0.00  0.00    +0.000 OA
BRANCH  17  20
ATOM     20  N   UNL     1       7.826   4.675  17.570  0.00  0.00    +0.000 N 
ATOM     21  H   UNL     1       8.363   3.887  17.930  0.00  0.00    +0.000 HD
BRANCH  20  22
ATOM     22  C   UNL     1       7.106   4.534  16.354  0.00  0.00    +0.000 A 
ATOM     23  C   UNL     1       5.964   3.728  16.334  0.00  0.00    +0.000 A 
ATOM     24  C   UNL     1       5.327   3.451  15.123  0.00  0.00    +0.000 A 
ATOM     25  C   UNL     1       5.822   4.001  13.948  0.00  0.00    +0.000 A 
ATOM     26  F   UNL     1       5.232   3.704  12.781  0.00  0.00    +0.000 F 
ATOM     27  C   UNL     1       6.925   4.844  13.965  0.00  0.00    +0.000 A 
ATOM     28  C   UNL     1       7.563   5.126  15.177  0.00  0.00    +0.000 A 
ENDBRANCH  20  22
ENDBRANCH  17  20
ENDBRANCH   5  17
TORSDOF 4
ENDMDL
MODEL 2
REMARK VINA RESULT:      -8.2      1.129      1.562
REMARK  Name = 
REMARK  6 active torsions:
REMARK  status: ('A' for Active; 'I' for Inactive)
REMARK    1  A    between atoms: C_1  and  C_2
REMARK    2  A    between atoms: C_5  and  C_7
REMARK    3  A    between atoms: C_11  and  S_12
REMARK    4  A    between atoms: S_12  and  N_15
REMARK    5  A    between atoms: N_15  and  C_16
REMARK    6  A    between atoms: C_25  and  C_26
REMARK                            x       y       z     vdW  Elec       q    Type
REMARK                         _______ _______ _______ _____ _____    ______ ____
ROOT
ATOM      1  C   UNL     1       3.381   6.118  18.672  0.00  0.00    +0.000 A 
ATOM      2  C   UNL     1       2.904   7.220  17.953  0.00  0.00    +0.000 A 
ATOM      3  C   UNL     1       3.711   7.824  16.991  0.00  0.00    +0.000 A 
ATOM      4  C   UNL     1       4.990   7.330  16.746  0.00  0.00    +0.000 A 
ATOM      5  C   UNL     1       5.452   6.203  17.427  0.00  0.00    +0.000 A 
ATOM      6  C   UNL     1       4.648   5.587  18.388  0.00  0.00    +0.000 A 
ENDROOT
BRANCH   1  11
ATOM      7  C   UNL     1       2.335   2.463  21.677  0.00  0.00    +0.000 C 
ATOM      8  C   UNL     1       1.206   2.456  20.652  0.00  0.00    +0.000 C 
ATOM      9  C   UNL     1       0.737   3.866  20.258  0.00  0.00    +0.000 C 
ATOM     10  N   UNL     1       1.630   4.459  19.269  0.00  0.00    +0.000 N 
ATOM     11  C   UNL     1       2.492   5.473  19.670  0.00  0.00    +0.000 C 
ATOM     12  O   UNL     1       2.543   5.893  20.827  0.00  0.00    +0.000 OA
ATOM     13  C   UNL     1       1.772   3.616  18.079  0.00  0.00    +0.000 C 
ATOM     14  C   UNL     1       2.246   2.204  18.442  0.00  0.00    +0.000 C 
ATOM     15  C   UNL     1       3.754   2.130  18.658  0.00  0.00    +0.000 C 
ATOM     16  O   UNL     1       1.505   1.617  19.519  0.00  0.00    +0.000 OA
ENDBRANCH   1  11
BRANCH   5  17
ATOM     17  S   UNL     1       7.112   5.646  17.109  0.00  0.00    +0.000 S 
ATOM     18  O   UNL     1       7.996   6.536  17.860  0.00  0.00    +0.000 OA
ATOM     19  O   UNL     1       7.132   4.227  17.329  0.00  0.00    +0.000 OA
BRANCH  17  20
ATOM     20  N   UNL     1       7.351   5.928  15.461  0.00  0.00    +0.000 N 
ATOM     21  H   UNL     1       8.073   6.597  15.200  0.00  0.00    +0.000 HD
BRANCH  20  22
ATOM     22  C   UNL     1       6.863   5.010  14.493  0.00  0.00    +0.000 A 
ATOM     23  C   UNL     1       7.601   4.807  13.323  0.00  0.00    +0.000 A 
ATOM     24  C   UNL     1       7.071   4.029  12.292  0.00  0.00    +0.000 A 
ATOM     25  C   UNL     1       5.822   3.442  12.448  0.00  0.00    +0.000 A 
ATOM     26  F   UNL     1       5.299   2.727  11.442  0.00  0.00    +0.000 F 
ATOM     27  C   UNL     1       5.105   3.597  13.628  0.00  0.00    +0.000 A 
ATOM     28  C   UNL     1       5.635   4.372  14.663  0.00  0.00    +0.000 A 
ENDBRANCH  20  22
ENDBRANCH  17  20
ENDBRANCH   5  17
TORSDOF 4
ENDMDL
MODEL 3
REMARK VINA RESULT:      -7.7      5.015      7.313
REMARK  Name = 
REMARK  6 active torsions:
REMARK  status: ('A' for Active; 'I' for Inactive)
REMARK    1  A    between atoms: C_1  and  C_2
REMARK    2  A    between atoms: C_5  and  C_7
REMARK    3  A    between atoms: C_11  and  S_12
REMARK    4  A    between atoms: S_12  and  N_15
REMARK    5  A    between atoms: N_15  and  C_16
REMARK    6  A    between atoms: C_25  and  C_26
REMARK                            x       y       z     vdW  Elec       q    Type
REMARK                         _______ _______ _______ _____ _____    ______ ____
ROOT
ATOM      1  C   UNL     1       2.096   6.631  19.552  0.00  0.00    +0.000 A 
ATOM      2  C   UNL     1       2.769   6.925  18.361  0.00  0.00    +0.000 A 
ATOM      3  C   UNL     1       2.728   8.217  17.840  0.00  0.00    +0.000 A 
ATOM      4  C   UNL     1       2.019   9.214  18.506  0.00  0.00    +0.000 A 
ATOM      5  C   UNL     1       1.387   8.936  19.720  0.00  0.00    +0.000 A 
ATOM      6  C   UNL     1       1.428   7.646  20.252  0.00  0.00    +0.000 A 
ENDROOT
BRANCH   1  11
ATOM      7  C   UNL     1       4.260   2.304  19.827  0.00  0.00    +0.000 C 
ATOM      8  C   UNL     1       2.872   2.007  19.271  0.00  0.00    +0.000 C 
ATOM      9  C   UNL     1       1.764   2.846  19.927  0.00  0.00    +0.000 C 
ATOM     10  N   UNL     1       1.707   4.185  19.352  0.00  0.00    +0.000 N 
ATOM     11  C   UNL     1       2.180   5.256  20.102  0.00  0.00    +0.000 C 
ATOM     12  O   UNL     1       2.651   5.127  21.233  0.00  0.00    +0.000 OA
ATOM     13  C   UNL     1       1.530   4.152  17.898  0.00  0.00    +0.000 C 
ATOM     14  C   UNL     1       2.627   3.327  17.215  0.00  0.00    +0.000 C 
ATOM     15  C   UNL     1       3.920   4.114  17.026  0.00  0.00    +0.000 C 
ATOM     16  O   UNL     1       2.843   2.051  17.831  0.00  0.00    +0.000 OA
ENDBRANCH   1  11
BRANCH   5  17
ATOM     17  S   UNL     1       0.455  10.236  20.502  0.00  0.00    +0.000 S 
ATOM     18  O   UNL     1      -0.713   9.598  21.106  0.00  0.00    +0.000 OA
ATOM     19  O   UNL     1       1.376  10.996  21.298  0.00  0.00    +0.000 OA
BRANCH  17  20
ATOM     20  N   UNL     1      -0.072  11.211  19.228  0.00  0.00    +0.000 N 
ATOM     21  H   UNL     1       0.638  11.710  18.695  0.00  0.00    +0.000 HD
BRANCH  20  22
ATOM     22  C   UNL     1      -1.371  11.042  18.678  0.00  0.00    +0.000 A 
ATOM     23  C   UNL     1      -1.550  10.130  17.634  0.00  0.00    +0.000 A 
ATOM     24  C   UNL     1      -2.779  10.056  16.976  0.00  0.00    +0.000 A 
ATOM     25  C   UNL     1      -3.824  10.875  17.383  0.00  0.00    +0.000 A 
ATOM     26  F   UNL     1      -4.991  10.829  16.725  0.00  0.00    +0.000 F 
ATOM     27  C   UNL     1      -3.671  11.747  18.452  0.00  0.00    +0.000 A 
ATOM     28  C   UNL     1      -2.442  11.822  19.115  0.00  0.00    +0.000 A 
ENDBRANCH  20  22
ENDBRANCH  17  20
ENDBRANCH   5  17
TORSDOF 4
ENDMDL
MODEL 4
REMARK VINA RESULT:      -7.6      4.844      7.062
REMARK  Name = 
REMARK  6 active torsions:
REMARK  status: ('A' for Active; 'I' for Inactive)
REMARK    1  A    between atoms: C_1  and  C_2
REMARK    2  A    between atoms: C_5  and  C_7
REMARK    3  A    between atoms: C_11  and  S_12
REMARK    4  A    between atoms: S_12  and  N_15
REMARK    5  A    between atoms: N_15  and  C_16
REMARK    6  A    between atoms: C_25  and  C_26
REMARK                            x       y       z     vdW  Elec       q    Type
REMARK                         _______ _______ _______ _____ _____    ______ ____
ROOT
ATOM      1  C   UNL     1       2.173   6.772  19.331  0.00  0.00    +0.000 A 
ATOM      2  C   UNL     1       2.894   6.937  18.143  0.00  0.00    +0.000 A 
ATOM      3  C   UNL     1       2.956   8.189  17.536  0.00  0.00    +0.000 A 
ATOM      4  C   UNL     1       2.301   9.275  18.112  0.00  0.00    +0.000 A 
ATOM      5  C   UNL     1       1.621   9.125  19.322  0.00  0.00    +0.000 A 
ATOM      6  C   UNL     1       1.559   7.875  19.941  0.00  0.00    +0.000 A 
ENDROOT
BRANCH   1  11
ATOM      7  C   UNL     1       4.053   2.355  19.997  0.00  0.00    +0.000 C 
ATOM      8  C   UNL     1       2.675   2.102  19.395  0.00  0.00    +0.000 C 
ATOM      9  C   UNL     1       1.592   3.047  19.940  0.00  0.00    +0.000 C 
ATOM     10  N   UNL     1       1.644   4.344  19.275  0.00  0.00    +0.000 N 
ATOM     11  C   UNL     1       2.148   5.435  19.975  0.00  0.00    +0.000 C 
ATOM     12  O   UNL     1       2.560   5.357  21.133  0.00  0.00    +0.000 OA
ATOM     13  C   UNL     1       1.529   4.222  17.820  0.00  0.00    +0.000 C 
ATOM     14  C   UNL     1       2.603   3.289  17.247  0.00  0.00    +0.000 C 
ATOM     15  C   UNL     1       3.948   3.984  17.068  0.00  0.00    +0.000 C 
ATOM     16  O   UNL     1       2.712   2.047  17.955  0.00  0.00    +0.000 OA
ENDBRANCH   1  11
BRANCH   5  17
ATOM     17  S   UNL     1       0.762  10.535  19.987  0.00  0.00    +0.000 S 
ATOM     18  O   UNL     1       1.118  10.604  21.403  0.00  0.00    +0.000 OA
ATOM     19  O   UNL     1       1.017  11.640  19.106  0.00  0.00    +0.000 OA
BRANCH  17  20
ATOM     20  N   UNL     1      -0.874  10.134  19.870  0.00  0.00    +0.000 N 
ATOM     21  H   UNL     1      -1.368   9.920  20.735  0.00  0.00    +0.000 HD
BRANCH  20  22
ATOM     22  C   UNL     1      -1.617  10.461  18.704  0.00  0.00    +0.000 A 
ATOM     23  C   UNL     1      -2.605  11.446  18.785  0.00  0.00    +0.000 A 
ATOM     24  C   UNL     1      -3.449  11.678  17.698  0.00  0.00    +0.000 A 
ATOM     25  C   UNL     1      -3.283  10.942  16.532  0.00  0.00    +0.000 A 
ATOM     26  F   UNL     1      -4.119  11.140  15.503  0.00  0.00    +0.000 F 
ATOM     27  C   UNL     1      -2.271   9.997  16.425  0.00  0.00    +0.000 A 
ATOM     28  C   UNL     1      -1.422   9.764  17.511  0.00  0.00    +0.000 A 
ENDBRANCH  20  22
ENDBRANCH  17  20
ENDBRANCH   5  17
TORSDOF 4
ENDMDL
MODEL 5
REMARK VINA RESULT:      -7.6      5.851      8.369
REMARK  Name = 
REMARK  6 active torsions:
REMARK  status: ('A' for Active; 'I' for Inactive)
REMARK    1  A    between atoms: C_1  and  C_2
REMARK    2  A    between atoms: C_5  and  C_7
REMARK    3  A    between atoms: C_11  and  S_12
REMARK    4  A    between atoms: S_12  and  N_15
REMARK    5  A    between atoms: N_15  and  C_16
REMARK    6  A    between atoms: C_25  and  C_26
REMARK                            x       y       z     vdW  Elec       q    Type
REMARK                         _______ _______ _______ _____ _____    ______ ____
ROOT
ATOM      1  C   UNL     1       2.660   6.801  19.483  0.00  0.00    +0.000 A 
ATOM      2  C   UNL     1       2.626   7.418  18.227  0.00  0.00    +0.000 A 
ATOM      3  C   UNL     1       1.951   8.626  18.064  0.00  0.00    +0.000 A 
ATOM      4  C   UNL     1       1.312   9.218  19.151  0.00  0.00    +0.000 A 
ATOM      5  C   UNL     1       1.384   8.630  20.415  0.00  0.00    +0.000 A 
ATOM      6  C   UNL     1       2.063   7.423  20.589  0.00  0.00    +0.000 A 
ENDROOT
BRANCH   1  11
ATOM      7  C   UNL     1       4.026   2.459  17.820  0.00  0.00    +0.000 C 
ATOM      8  C   UNL     1       3.234   2.155  19.087  0.00  0.00    +0.000 C 
ATOM      9  C   UNL     1       3.506   3.152  20.225  0.00  0.00    +0.000 C 
ATOM     10  N   UNL     1       2.742   4.380  20.042  0.00  0.00    +0.000 N 
ATOM     11  C   UNL     1       3.411   5.530  19.637  0.00  0.00    +0.000 C 
ATOM     12  O   UNL     1       4.623   5.560  19.420  0.00  0.00    +0.000 OA
ATOM     13  C   UNL     1       1.305   4.122  19.922  0.00  0.00    +0.000 C 
ATOM     14  C   UNL     1       1.003   3.136  18.788  0.00  0.00    +0.000 C 
ATOM     15  C   UNL     1       0.983   3.806  17.418  0.00  0.00    +0.000 C 
ATOM     16  O   UNL     1       1.831   1.966  18.819  0.00  0.00    +0.000 OA
ENDBRANCH   1  11
BRANCH   5  17
ATOM     17  S   UNL     1       0.507   9.405  21.756  0.00  0.00    +0.000 S 
ATOM     18  O   UNL     1      -0.771   8.704  21.873  0.00  0.00    +0.000 OA
ATOM     19  O   UNL     1       1.413   9.478  22.867  0.00  0.00    +0.000 OA
BRANCH  17  20
ATOM     20  N   UNL     1       0.203  10.976  21.219  0.00  0.00    +0.000 N 
ATOM     21  H   UNL     1       0.759  11.320  20.437  0.00  0.00    +0.000 HD
BRANCH  20  22
ATOM     22  C   UNL     1      -1.008  11.636  21.560  0.00  0.00    +0.000 A 
ATOM     23  C   UNL     1      -1.377  11.720  22.905  0.00  0.00    +0.000 A 
ATOM     24  C   UNL     1      -2.630  12.225  23.255  0.00  0.00    +0.000 A 
ATOM     25  C   UNL     1      -3.493  12.664  22.259  0.00  0.00    +0.000 A 
ATOM     26  F   UNL     1      -4.711  13.113  22.594  0.00  0.00    +0.000 F 
ATOM     27  C   UNL     1      -3.115  12.631  20.923  0.00  0.00    +0.000 A 
ATOM     28  C   UNL     1      -1.859  12.129  20.571  0.00  0.00    +0.000 A 
ENDBRANCH  20  22
ENDBRANCH  17  20
ENDBRANCH   5  17
TORSDOF 4
ENDMDL
MODEL 6
REMARK VINA RESULT:      -7.5      5.048      7.413
REMARK  Name = 
REMARK  6 active torsions:
REMARK  status: ('A' for Active; 'I' for Inactive)
REMARK    1  A    between atoms: C_1  and  C_2
REMARK    2  A    between atoms: C_5  and  C_7
REMARK    3  A    between atoms: C_11  and  S_12
REMARK    4  A    between atoms: S_12  and  N_15
REMARK    5  A    between atoms: N_15  and  C_16
REMARK    6  A    between atoms: C_25  and  C_26
REMARK                            x       y       z     vdW  Elec       q    Type
REMARK                         _______ _______ _______ _____ _____    ______ ____
ROOT
ATOM      1  C   UNL     1       2.735   6.807  19.364  0.00  0.00    +0.000 A 
ATOM      2  C   UNL     1       3.020   7.172  18.043  0.00  0.00    +0.000 A 
ATOM      3  C   UNL     1       2.511   8.361  17.525  0.00  0.00    +0.000 A 
ATOM      4  C   UNL     1       1.720   9.185  18.323  0.00  0.00    +0.000 A 
ATOM      5  C   UNL     1       1.473   8.848  19.655  0.00  0.00    +0.000 A 
ATOM      6  C   UNL     1       1.985   7.662  20.184  0.00  0.00    +0.000 A 
ENDROOT
BRANCH   1  11
ATOM      7  C   UNL     1       3.935   2.140  18.859  0.00  0.00    +0.000 C 
ATOM      8  C   UNL     1       2.901   2.153  19.979  0.00  0.00    +0.000 C 
ATOM      9  C   UNL     1       3.062   3.344  20.938  0.00  0.00    +0.000 C 
ATOM     10  N   UNL     1       2.471   4.554  20.378  0.00  0.00    +0.000 N 
ATOM     11  C   UNL     1       3.314   5.551  19.903  0.00  0.00    +0.000 C 
ATOM     12  O   UNL     1       4.542   5.460  19.926  0.00  0.00    +0.000 OA
ATOM     13  C   UNL     1       1.061   4.367  20.029  0.00  0.00    +0.000 C 
ATOM     14  C   UNL     1       0.870   3.189  19.066  0.00  0.00    +0.000 C 
ATOM     15  C   UNL     1       1.166   3.563  17.617  0.00  0.00    +0.000 C 
ATOM     16  O   UNL     1       1.557   2.001  19.481  0.00  0.00    +0.000 OA
ENDBRANCH   1  11
BRANCH   5  17
ATOM     17  S   UNL     1       0.416   9.914  20.612  0.00  0.00    +0.000 S 
ATOM     18  O   UNL     1      -0.768   9.126  20.947  0.00  0.00    +0.000 OA
ATOM     19  O   UNL     1       1.227  10.502  21.640  0.00  0.00    +0.000 OA
BRANCH  17  20
ATOM     20  N   UNL     1      -0.045  11.135  19.540  0.00  0.00    +0.000 N 
ATOM     21  H   UNL     1       0.692  11.716  19.145  0.00  0.00    +0.000 HD
BRANCH  20  22
ATOM     22  C   UNL     1      -1.322  11.105  18.916  0.00  0.00    +0.000 A 
ATOM     23  C   UNL     1      -2.320  11.967  19.378  0.00  0.00    +0.000 A 
ATOM     24  C   UNL     1      -3.622  11.852  18.888  0.00  0.00    +0.000 A 
ATOM     25  C   UNL     1      -3.909  10.895  17.923  0.00  0.00    +0.000 A 
ATOM     26  F   UNL     1      -5.167  10.762  17.481  0.00  0.00    +0.000 F 
ATOM     27  C   UNL     1      -2.912  10.069  17.421  0.00  0.00    +0.000 A 
ATOM     28  C   UNL     1      -1.606  10.183  17.909  0.00  0.00    +0.000 A 
ENDBRANCH  20  22
ENDBRANCH  17  20
ENDBRANCH   5  17
TORSDOF 4
ENDMDL
MODEL 7
REMARK VINA RESULT:      -7.5      5.951      8.503
REMARK  Name = 
REMARK  6 active torsions:
REMARK  status: ('A' for Active; 'I' for Inactive)
REMARK    1  A    between atoms: C_1  and  C_2
REMARK    2  A    between atoms: C_5  and  C_7
REMARK    3  A    between atoms: C_11  and  S_12
REMARK    4  A    between atoms: S_12  and  N_15
REMARK    5  A    between atoms: N_15  and  C_16
REMARK    6  A    between atoms: C_25  and  C_26
REMARK                            x       y       z     vdW  Elec       q    Type
REMARK                         _______ _______ _______ _____ _____    ______ ____
ROOT
ATOM      1  C   UNL     1       2.646   6.806  19.505  0.00  0.00    +0.000 A 
ATOM      2  C   UNL     1       2.710   7.466  18.272  0.00  0.00    +0.000 A 
ATOM      3  C   UNL     1       2.032   8.670  18.091  0.00  0.00    +0.000 A 
ATOM      4  C   UNL     1       1.293   9.216  19.138  0.00  0.00    +0.000 A 
ATOM      5  C   UNL     1       1.266   8.586  20.383  0.00  0.00    +0.000 A 
ATOM      6  C   UNL     1       1.947   7.383  20.575  0.00  0.00    +0.000 A 
ENDROOT
BRANCH   1  11
ATOM      7  C   UNL     1       4.074   2.466  17.893  0.00  0.00    +0.000 C 
ATOM      8  C   UNL     1       3.257   2.163  19.143  0.00  0.00    +0.000 C 
ATOM      9  C   UNL     1       3.498   3.167  20.283  0.00  0.00    +0.000 C 
ATOM     10  N   UNL     1       2.731   4.389  20.077  0.00  0.00    +0.000 N 
ATOM     11  C   UNL     1       3.401   5.541  19.682  0.00  0.00    +0.000 C 
ATOM     12  O   UNL     1       4.617   5.578  19.490  0.00  0.00    +0.000 OA
ATOM     13  C   UNL     1       1.298   4.122  19.927  0.00  0.00    +0.000 C 
ATOM     14  C   UNL     1       1.027   3.128  18.792  0.00  0.00    +0.000 C 
ATOM     15  C   UNL     1       1.032   3.792  17.419  0.00  0.00    +0.000 C 
ATOM     16  O   UNL     1       1.861   1.964  18.846  0.00  0.00    +0.000 OA
ENDBRANCH   1  11
BRANCH   5  17
ATOM     17  S   UNL     1       0.265   9.303  21.669  0.00  0.00    +0.000 S 
ATOM     18  O   UNL     1      -0.778   8.325  21.973  0.00  0.00    +0.000 OA
ATOM     19  O   UNL     1       1.160   9.770  22.690  0.00  0.00    +0.000 OA
BRANCH  17  20
ATOM     20  N   UNL     1      -0.460  10.647  20.949  0.00  0.00    +0.000 N 
ATOM     21  H   UNL     1      -0.903  10.511  20.041  0.00  0.00    +0.000 HD
BRANCH  20  22
ATOM     22  C   UNL     1      -0.788  11.793  21.722  0.00  0.00    +0.000 A 
ATOM     23  C   UNL     1      -0.040  12.961  21.549  0.00  0.00    +0.000 A 
ATOM     24  C   UNL     1      -0.240  14.049  22.400  0.00  0.00    +0.000 A 
ATOM     25  C   UNL     1      -1.203  13.970  23.398  0.00  0.00    +0.000 A 
ATOM     26  F   UNL     1      -1.367  15.002  24.238  0.00  0.00    +0.000 F 
ATOM     27  C   UNL     1      -1.986  12.832  23.544  0.00  0.00    +0.000 A 
ATOM     28  C   UNL     1      -1.789  11.742  22.692  0.00  0.00    +0.000 A 
ENDBRANCH  20  22
ENDBRANCH  17  20
ENDBRANCH   5  17
TORSDOF 4
ENDMDL
MODEL 8
REMARK VINA RESULT:      -7.4      5.796      8.269
REMARK  Name = 
REMARK  6 active torsions:
REMARK  status: ('A' for Active; 'I' for Inactive)
REMARK    1  A    between atoms: C_1  and  C_2
REMARK    2  A    between atoms: C_5  and  C_7
REMARK    3  A    between atoms: C_11  and  S_12
REMARK    4  A    between atoms: S_12  and  N_15
REMARK    5  A    between atoms: N_15  and  C_16
REMARK    6  A    between atoms: C_25  and  C_26
REMARK                            x       y       z     vdW  Elec       q    Type
REMARK                         _______ _______ _______ _____ _____    ______ ____
ROOT
ATOM      1  C   UNL     1       2.704   6.833  19.437  0.00  0.00    +0.000 A 
ATOM      2  C   UNL     1       2.768   7.534  18.227  0.00  0.00    +0.000 A 
ATOM      3  C   UNL     1       2.072   8.732  18.081  0.00  0.00    +0.000 A 
ATOM      4  C   UNL     1       1.316   9.232  19.139  0.00  0.00    +0.000 A 
ATOM      5  C   UNL     1       1.289   8.560  20.362  0.00  0.00    +0.000 A 
ATOM      6  C   UNL     1       1.987   7.362  20.520  0.00  0.00    +0.000 A 
ENDROOT
BRANCH   1  11
ATOM      7  C   UNL     1       4.100   2.508  17.757  0.00  0.00    +0.000 C 
ATOM      8  C   UNL     1       3.341   2.196  19.042  0.00  0.00    +0.000 C 
ATOM      9  C   UNL     1       3.623   3.201  20.171  0.00  0.00    +0.000 C 
ATOM     10  N   UNL     1       2.836   4.416  20.002  0.00  0.00    +0.000 N 
ATOM     11  C   UNL     1       3.478   5.575  19.579  0.00  0.00    +0.000 C 
ATOM     12  O   UNL     1       4.684   5.623  19.334  0.00  0.00    +0.000 OA
ATOM     13  C   UNL     1       1.401   4.136  19.915  0.00  0.00    +0.000 C 
ATOM     14  C   UNL     1       1.089   3.141  18.791  0.00  0.00    +0.000 C 
ATOM     15  C   UNL     1       1.028   3.806  17.420  0.00  0.00    +0.000 C 
ATOM     16  O   UNL     1       1.935   1.984  18.806  0.00  0.00    +0.000 OA
ENDBRANCH   1  11
BRANCH   5  17
ATOM     17  S   UNL     1       0.266   9.219  21.663  0.00  0.00    +0.000 S 
ATOM     18  O   UNL     1      -0.768   8.218  21.920  0.00  0.00    +0.000 OA
ATOM     19  O   UNL     1       1.144   9.660  22.709  0.00  0.00    +0.000 OA
BRANCH  17  20
ATOM     20  N   UNL     1      -0.469  10.578  20.983  0.00  0.00    +0.000 N 
ATOM     21  H   UNL     1      -1.198  10.420  20.289  0.00  0.00    +0.000 HD
BRANCH  20  22
ATOM     22  C   UNL     1      -0.370  11.846  21.616  0.00  0.00    +0.000 A 
ATOM     23  C   UNL     1      -1.254  12.155  22.654  0.00  0.00    +0.000 A 
ATOM     24  C   UNL     1      -1.279  13.444  23.188  0.00  0.00    +0.000 A 
ATOM     25  C   UNL     1      -0.404  14.405  22.699  0.00  0.00    +0.000 A 
ATOM     26  F   UNL     1      -0.455  15.653  23.187  0.00  0.00    +0.000 F 
ATOM     27  C   UNL     1       0.513  14.093  21.704  0.00  0.00    +0.000 A 
ATOM     28  C   UNL     1       0.542  12.802  21.169  0.00  0.00    +0.000 A 
ENDBRANCH  20  22
ENDBRANCH  17  20
ENDBRANCH   5  17
TORSDOF 4
ENDMDL
MODEL 9
REMARK VINA RESULT:      -7.4      5.637      8.132
REMARK  Name = 
REMARK  6 active torsions:
REMARK  status: ('A' for Active; 'I' for Inactive)
REMARK    1  A    between atoms: C_1  and  C_2
REMARK    2  A    between atoms: C_5  and  C_7
REMARK    3  A    between atoms: C_11  and  S_12
REMARK    4  A    between atoms: S_12  and  N_15
REMARK    5  A    between atoms: N_15  and  C_16
REMARK    6  A    between atoms: C_25  and  C_26
REMARK                            x       y       z     vdW  Elec       q    Type
REMARK                         _______ _______ _______ _____ _____    ______ ____
ROOT
ATOM      1  C   UNL     1       2.650   6.788  19.501  0.00  0.00    +0.000 A 
ATOM      2  C   UNL     1       2.606   7.389  18.238  0.00  0.00    +0.000 A 
ATOM      3  C   UNL     1       1.945   8.604  18.069  0.00  0.00    +0.000 A 
ATOM      4  C   UNL     1       1.330   9.219  19.157  0.00  0.00    +0.000 A 
ATOM      5  C   UNL     1       1.413   8.646  20.428  0.00  0.00    +0.000 A 
ATOM      6  C   UNL     1       2.079   7.433  20.608  0.00  0.00    +0.000 A 
ENDROOT
BRANCH   1  11
ATOM      7  C   UNL     1       4.018   2.450  17.830  0.00  0.00    +0.000 C 
ATOM      8  C   UNL     1       3.193   2.141  19.075  0.00  0.00    +0.000 C 
ATOM      9  C   UNL     1       3.447   3.125  20.229  0.00  0.00    +0.000 C 
ATOM     10  N   UNL     1       2.698   4.362  20.040  0.00  0.00    +0.000 N 
ATOM     11  C   UNL     1       3.386   5.509  19.661  0.00  0.00    +0.000 C 
ATOM     12  O   UNL     1       4.603   5.530  19.473  0.00  0.00    +0.000 OA
ATOM     13  C   UNL     1       1.262   4.118  19.883  0.00  0.00    +0.000 C 
ATOM     14  C   UNL     1       0.978   3.144  18.733  0.00  0.00    +0.000 C 
ATOM     15  C   UNL     1       0.997   3.827  17.369  0.00  0.00    +0.000 C 
ATOM     16  O   UNL     1       1.795   1.967  18.772  0.00  0.00    +0.000 OA
ENDBRANCH   1  11
BRANCH   5  17
ATOM     17  S   UNL     1       0.567   9.451  21.772  0.00  0.00    +0.000 S 
ATOM     18  O   UNL     1      -0.730   8.790  21.896  0.00  0.00    +0.000 OA
ATOM     19  O   UNL     1       1.481   9.499  22.878  0.00  0.00    +0.000 OA
BRANCH  17  20
ATOM     20  N   UNL     1       0.309  11.029  21.232  0.00  0.00    +0.000 N 
ATOM     21  H   UNL     1       1.080  11.495  20.755  0.00  0.00    +0.000 HD
BRANCH  20  22
ATOM     22  C   UNL     1      -1.010  11.538  21.089  0.00  0.00    +0.000 A 
ATOM     23  C   UNL     1      -1.563  11.634  19.808  0.00  0.00    +0.000 A 
ATOM     24  C   UNL     1      -2.792  12.269  19.625  0.00  0.00    +0.000 A 
ATOM     25  C   UNL     1      -3.470  12.779  20.725  0.00  0.00    +0.000 A 
ATOM     26  F   UNL     1      -4.633  13.421  20.543  0.00  0.00    +0.000 F 
ATOM     27  C   UNL     1      -2.953  12.642  22.007  0.00  0.00    +0.000 A 
ATOM     28  C   UNL     1      -1.723  12.004  22.193  0.00  0.00    +0.000 A 
ENDBRANCH  20  22
ENDBRANCH  17  20
ENDBRANCH   5  17
TORSDOF 4
ENDMDL
