MODEL 1
REMARK VINA RESULT:      -8.8      0.000      0.000
REMARK  Name = 
REMARK  6 active torsions:
REMARK  status: ('A' for Active; 'I' for Inactive)
REMARK    1  A    between atoms: N_1  and  C_2
REMARK    2  A    between atoms: C_2  and  C_3
REMARK    3  A    between atoms: C_3  and  O_4
REMARK    4  A    between atoms: C_3  and  C_21
REMARK    5  A    between atoms: O_4  and  C_5
REMARK    6  A    between atoms: C_11  and  C_12
REMARK                            x       y       z     vdW  Elec       q    Type
REMARK                         _______ _______ _______ _____ _____    ______ ____
ROOT
ATOM      1  C   UNL     1       4.805   3.768  19.539  0.00  0.00    +0.000 A 
ATOM      2  N   UNL     1       4.640   2.440  19.633  0.00  0.00    +0.000 NA
ATOM      3  O   UNL     1       3.288   2.256  19.904  0.00  0.00    +0.000 OA
ATOM      4  C   UNL     1       2.680   3.467  20.002  0.00  0.00    +0.000 A 
ATOM      5  C   UNL     1       1.367   3.725  20.347  0.00  0.00    +0.000 A 
ATOM      6  C   UNL     1       1.047   5.085  20.437  0.00  0.00    +0.000 A 
ATOM      7  C   UNL     1       1.995   6.079  20.131  0.00  0.00    +0.000 A 
ATOM      8  N   UNL     1       3.255   5.784  19.750  0.00  0.00    +0.000 NA
ATOM      9  C   UNL     1       3.591   4.468  19.733  0.00  0.00    +0.000 A 
ENDROOT
BRANCH   7  10
ATOM     10  C   UNL     1       1.653   7.523  20.190  0.00  0.00    +0.000 A 
ATOM     11  C   UNL     1       1.196   8.075  21.410  0.00  0.00    +0.000 A 
ATOM     12  C   UNL     1       0.903   9.434  21.551  0.00  0.00    +0.000 A 
ATOM     13  C   UNL     1       1.030  10.287  20.463  0.00  0.00    +0.000 A 
ATOM     14  C   UNL     1       1.443   9.776  19.237  0.00  0.00    +0.000 A 
ATOM     15  C   UNL     1       1.757   8.413  19.097  0.00  0.00    +0.000 A 
ATOM     16 CL   UNL     1       2.322   7.945  17.527  0.00  0.00    +0.000 Cl
ENDBRANCH   7  10
BRANCH   1  17
ATOM     17  O   UNL     1       6.086   4.169  19.373  0.00  0.00    +0.000 OA
BRANCH  17  18
ATOM     18  C   UNL     1       6.258   5.477  18.813  0.00  0.00    +0.000 C 
BRANCH  18  19
ATOM     19  C   UNL     1       6.148   5.358  17.301  0.00  0.00    +0.000 A 
ATOM     20  C   UNL     1       5.283   6.202  16.593  0.00  0.00    +0.000 A 
ATOM     21  C   UNL     1       5.155   6.082  15.206  0.00  0.00    +0.000 A 
ATOM     22  C   UNL     1       5.890   5.116  14.518  0.00  0.00    +0.000 A 
ATOM     23  C   UNL     1       6.747   4.268  15.210  0.00  0.00    +0.000 A 
ATOM     24  C   UNL     1       6.873   4.383  16.597  0.00  0.00    +0.000 A 
ENDBRANCH  18  19
BRANCH  18  25
ATOM     25  C   UNL     1       7.650   6.013  19.242  0.00  0.00    +0.000 C 
BRANCH  25  26
ATOM     26  N   UNL     1       8.132   5.417  20.499  0.00  0.00    +0.000 NA
ATOM     27  H   UNL     1       9.001   4.915  20.324  0.00  0.00    +0.000 HD
ATOM     28  H   UNL     1       7.451   4.724  20.813  0.00  0.00    +0.000 HD
ENDBRANCH  25  26
ENDBRANCH  18  25
ENDBRANCH  17  18
ENDBRANCH   1  17
TORSDOF 6
ENDMDL
MODEL 2
REMARK VINA RESULT:      -8.6      1.160      1.545
REMARK  Name = 
REMARK  6 active torsions:
REMARK  status: ('A' for Active; 'I' for Inactive)
REMARK    1  A    between atoms: N_1  and  C_2
REMARK    2  A    between atoms: C_2  and  C_3
REMARK    3  A    between atoms: C_3  and  O_4
REMARK    4  A    between atoms: C_3  and  C_21
REMARK    5  A    between atoms: O_4  and  C_5
REMARK    6  A    between atoms: C_11  and  C_12
REMARK                            x       y       z     vdW  Elec       q    Type
REMARK                         _______ _______ _______ _____ _____    ______ ____
ROOT
ATOM      1  C   UNL     1       4.829   3.772  19.600  0.00  0.00    +0.000 A 
ATOM      2  N   UNL     1       4.648   2.549  20.117  0.00  0.00    +0.000 NA
ATOM      3  O   UNL     1       3.343   2.542  20.599  0.00  0.00    +0.000 OA
ATOM      4  C   UNL     1       2.783   3.763  20.395  0.00  0.00    +0.000 A 
ATOM      5  C   UNL     1       1.537   4.199  20.806  0.00  0.00    +0.000 A 
ATOM      6  C   UNL     1       1.265   5.539  20.513  0.00  0.00    +0.000 A 
ATOM      7  C   UNL     1       2.184   6.331  19.800  0.00  0.00    +0.000 A 
ATOM      8  N   UNL     1       3.371   5.854  19.373  0.00  0.00    +0.000 NA
ATOM      9  C   UNL     1       3.670   4.576  19.720  0.00  0.00    +0.000 A 
ENDROOT
BRANCH   7  10
ATOM     10  C   UNL     1       1.887   7.745  19.454  0.00  0.00    +0.000 A 
ATOM     11  C   UNL     1       2.149   8.203  18.141  0.00  0.00    +0.000 A 
ATOM     12  C   UNL     1       1.849   9.505  17.732  0.00  0.00    +0.000 A 
ATOM     13  C   UNL     1       1.301  10.407  18.634  0.00  0.00    +0.000 A 
ATOM     14  C   UNL     1       1.062  10.005  19.944  0.00  0.00    +0.000 A 
ATOM     15  C   UNL     1       1.343   8.690  20.354  0.00  0.00    +0.000 A 
ATOM     16 CL   UNL     1       0.925   8.324  21.994  0.00  0.00    +0.000 Cl
ENDBRANCH   7  10
BRANCH   1  17
ATOM     17  O   UNL     1       6.084   4.020  19.159  0.00  0.00    +0.000 OA
BRANCH  17  18
ATOM     18  C   UNL     1       6.283   5.302  18.548  0.00  0.00    +0.000 C 
BRANCH  18  19
ATOM     19  C   UNL     1       6.247   5.112  17.039  0.00  0.00    +0.000 A 
ATOM     20  C   UNL     1       5.032   5.214  16.350  0.00  0.00    +0.000 A 
ATOM     21  C   UNL     1       4.984   5.014  14.967  0.00  0.00    +0.000 A 
ATOM     22  C   UNL     1       6.150   4.709  14.265  0.00  0.00    +0.000 A 
ATOM     23  C   UNL     1       7.361   4.599  14.939  0.00  0.00    +0.000 A 
ATOM     24  C   UNL     1       7.410   4.793  16.321  0.00  0.00    +0.000 A 
ENDBRANCH  18  19
BRANCH  18  25
ATOM     25  C   UNL     1       7.653   5.859  19.018  0.00  0.00    +0.000 C 
BRANCH  25  26
ATOM     26  N   UNL     1       8.040   5.378  20.354  0.00  0.00    +0.000 NA
ATOM     27  H   UNL     1       8.237   6.175  20.957  0.00  0.00    +0.000 HD
ATOM     28  H   UNL     1       8.911   4.851  20.272  0.00  0.00    +0.000 HD
ENDBRANCH  25  26
ENDBRANCH  18  25
ENDBRANCH  17  18
ENDBRANCH   1  17
TORSDOF 6
ENDMDL
MODEL 3
REMARK VINA RESULT:      -8.4      1.197      1.835
REMARK  Name = 
REMARK  6 active torsions:
REMARK  status: ('A' for Active; 'I' for Inactive)
REMARK    1  A    between atoms: N_1  and  C_2
REMARK    2  A    between atoms: C_2  and  C_3
REMARK    3  A    between atoms: C_3  and  O_4
REMARK    4  A    between atoms: C_3  and  C_21
REMARK    5  A    between atoms: O_4  and  C_5
REMARK    6  A    between atoms: C_11  and  C_12
REMARK                            x       y       z     vdW  Elec       q    Type
REMARK                         _______ _______ _______ _____ _____    ______ ____
ROOT
ATOM      1  C   UNL     1       4.867   3.812  19.666  0.00  0.00    +0.000 A 
ATOM      2  N   UNL     1       4.665   2.574  20.140  0.00  0.00    +0.000 NA
ATOM      3  O   UNL     1       3.332   2.547  20.541  0.00  0.00    +0.000 OA
ATOM      4  C   UNL     1       2.776   3.769  20.334  0.00  0.00    +0.000 A 
ATOM      5  C   UNL     1       1.504   4.186  20.679  0.00  0.00    +0.000 A 
ATOM      6  C   UNL     1       1.240   5.532  20.403  0.00  0.00    +0.000 A 
ATOM      7  C   UNL     1       2.194   6.348  19.769  0.00  0.00    +0.000 A 
ATOM      8  N   UNL     1       3.409   5.890  19.404  0.00  0.00    +0.000 NA
ATOM      9  C   UNL     1       3.697   4.605  19.735  0.00  0.00    +0.000 A 
ENDROOT
BRANCH   7  10
ATOM     10  C   UNL     1       1.908   7.769  19.441  0.00  0.00    +0.000 A 
ATOM     11  C   UNL     1       2.205   8.250  18.144  0.00  0.00    +0.000 A 
ATOM     12  C   UNL     1       1.918   9.561  17.751  0.00  0.00    +0.000 A 
ATOM     13  C   UNL     1       1.346  10.446  18.655  0.00  0.00    +0.000 A 
ATOM     14  C   UNL     1       1.071  10.019  19.950  0.00  0.00    +0.000 A 
ATOM     15  C   UNL     1       1.341   8.697  20.343  0.00  0.00    +0.000 A 
ATOM     16 CL   UNL     1       0.878   8.301  21.965  0.00  0.00    +0.000 Cl
ENDBRANCH   7  10
BRANCH   1  17
ATOM     17  O   UNL     1       6.144   4.080  19.310  0.00  0.00    +0.000 OA
BRANCH  17  18
ATOM     18  C   UNL     1       6.381   5.397  18.796  0.00  0.00    +0.000 C 
BRANCH  18  19
ATOM     19  C   UNL     1       6.226   5.345  17.284  0.00  0.00    +0.000 A 
ATOM     20  C   UNL     1       6.994   4.447  16.532  0.00  0.00    +0.000 A 
ATOM     21  C   UNL     1       6.878   4.410  15.139  0.00  0.00    +0.000 A 
ATOM     22  C   UNL     1       5.995   5.273  14.489  0.00  0.00    +0.000 A 
ATOM     23  C   UNL     1       5.233   6.174  15.224  0.00  0.00    +0.000 A 
ATOM     24  C   UNL     1       5.350   6.215  16.615  0.00  0.00    +0.000 A 
ENDBRANCH  18  19
BRANCH  18  25
ATOM     25  C   UNL     1       7.814   5.831  19.205  0.00  0.00    +0.000 C 
BRANCH  25  26
ATOM     26  N   UNL     1       8.181   7.158  18.682  0.00  0.00    +0.000 NA
ATOM     27  H   UNL     1       9.174   7.168  18.453  0.00  0.00    +0.000 HD
ATOM     28  H   UNL     1       8.044   7.849  19.421  0.00  0.00    +0.000 HD
ENDBRANCH  25  26
ENDBRANCH  18  25
ENDBRANCH  17  18
ENDBRANCH   1  17
TORSDOF 6
ENDMDL
MODEL 4
REMARK VINA RESULT:      -8.2      1.013      1.013
REMARK  Name = 
REMARK  6 active torsions:
REMARK  status: ('A' for Active; 'I' for Inactive)
REMARK    1  A    between atoms: N_1  and  C_2
REMARK    2  A    between atoms: C_2  and  C_3
REMARK    3  A    between atoms: C_3  and  O_4
REMARK    4  A    between atoms: C_3  and  C_21
REMARK    5  A    between atoms: O_4  and  C_5
REMARK    6  A    between atoms: C_11  and  C_12
REMARK                            x       y       z     vdW  Elec       q    Type
REMARK                         _______ _______ _______ _____ _____    ______ ____
ROOT
ATOM      1  C   UNL     1       5.176   4.493  19.379  0.00  0.00    +0.000 A 
ATOM      2  N   UNL     1       5.181   3.155  19.469  0.00  0.00    +0.000 NA
ATOM      3  O   UNL     1       3.877   2.805  19.809  0.00  0.00    +0.000 OA
ATOM      4  C   UNL     1       3.132   3.932  19.950  0.00  0.00    +0.000 A 
ATOM      5  C   UNL     1       1.817   4.026  20.368  0.00  0.00    +0.000 A 
ATOM      6  C   UNL     1       1.339   5.336  20.487  0.00  0.00    +0.000 A 
ATOM      7  C   UNL     1       2.141   6.439  20.142  0.00  0.00    +0.000 A 
ATOM      8  N   UNL     1       3.405   6.303  19.692  0.00  0.00    +0.000 NA
ATOM      9  C   UNL     1       3.898   5.039  19.644  0.00  0.00    +0.000 A 
ENDROOT
BRANCH   7  10
ATOM     10  C   UNL     1       1.628   7.831  20.233  0.00  0.00    +0.000 A 
ATOM     11  C   UNL     1       1.152   8.310  21.477  0.00  0.00    +0.000 A 
ATOM     12  C   UNL     1       0.701   9.622  21.647  0.00  0.00    +0.000 A 
ATOM     13  C   UNL     1       0.685  10.495  20.568  0.00  0.00    +0.000 A 
ATOM     14  C   UNL     1       1.112  10.051  19.321  0.00  0.00    +0.000 A 
ATOM     15  C   UNL     1       1.585   8.738  19.150  0.00  0.00    +0.000 A 
ATOM     16 CL   UNL     1       2.145   8.359  17.556  0.00  0.00    +0.000 Cl
ENDBRANCH   7  10
BRANCH   1  17
ATOM     17  O   UNL     1       6.388   5.049  19.150  0.00  0.00    +0.000 OA
BRANCH  17  18
ATOM     18  C   UNL     1       6.407   6.121  18.199  0.00  0.00    +0.000 C 
BRANCH  18  19
ATOM     19  C   UNL     1       6.230   5.522  16.812  0.00  0.00    +0.000 A 
ATOM     20  C   UNL     1       5.230   6.010  15.961  0.00  0.00    +0.000 A 
ATOM     21  C   UNL     1       5.041   5.447  14.696  0.00  0.00    +0.000 A 
ATOM     22  C   UNL     1       5.849   4.391  14.274  0.00  0.00    +0.000 A 
ATOM     23  C   UNL     1       6.840   3.893  15.112  0.00  0.00    +0.000 A 
ATOM     24  C   UNL     1       7.027   4.451  16.379  0.00  0.00    +0.000 A 
ENDBRANCH  18  19
BRANCH  18  25
ATOM     25  C   UNL     1       7.764   6.864  18.327  0.00  0.00    +0.000 C 
BRANCH  25  26
ATOM     26  N   UNL     1       7.875   8.016  17.416  0.00  0.00    +0.000 NA
ATOM     27  H   UNL     1       6.946   8.289  17.100  0.00  0.00    +0.000 HD
ATOM     28  H   UNL     1       8.393   7.726  16.585  0.00  0.00    +0.000 HD
ENDBRANCH  25  26
ENDBRANCH  18  25
ENDBRANCH  17  18
ENDBRANCH   1  17
TORSDOF 6
ENDMDL
MODEL 5
REMARK VINA RESULT:      -8.1      2.135      3.108
REMARK  Name = 
REMARK  6 active torsions:
REMARK  status: ('A' for Active; 'I' for Inactive)
REMARK    1  A    between atoms: N_1  and  C_2
REMARK    2  A    between atoms: C_2  and  C_3
REMARK    3  A    between atoms: C_3  and  O_4
REMARK    4  A    between atoms: C_3  and  C_21
REMARK    5  A    between atoms: O_4  and  C_5
REMARK    6  A    between atoms: C_11  and  C_12
REMARK                            x       y       z     vdW  Elec       q    Type
REMARK                         _______ _______ _______ _____ _____    ______ ____
ROOT
ATOM      1  C   UNL     1       4.107   4.285  17.084  0.00  0.00    +0.000 A 
ATOM      2  N   UNL     1       4.287   3.042  17.550  0.00  0.00    +0.000 NA
ATOM      3  O   UNL     1       3.642   3.015  18.783  0.00  0.00    +0.000 OA
ATOM      4  C   UNL     1       3.124   4.243  19.046  0.00  0.00    +0.000 A 
ATOM      5  C   UNL     1       2.488   4.661  20.200  0.00  0.00    +0.000 A 
ATOM      6  C   UNL     1       2.127   6.013  20.207  0.00  0.00    +0.000 A 
ATOM      7  C   UNL     1       2.352   6.834  19.086  0.00  0.00    +0.000 A 
ATOM      8  N   UNL     1       2.933   6.375  17.959  0.00  0.00    +0.000 NA
ATOM      9  C   UNL     1       3.351   5.083  17.975  0.00  0.00    +0.000 A 
ENDROOT
BRANCH   7  10
ATOM     10  C   UNL     1       1.939   8.261  19.073  0.00  0.00    +0.000 A 
ATOM     11  C   UNL     1       2.300   9.073  17.971  0.00  0.00    +0.000 A 
ATOM     12  C   UNL     1       1.905  10.409  17.869  0.00  0.00    +0.000 A 
ATOM     13  C   UNL     1       1.155  10.990  18.882  0.00  0.00    +0.000 A 
ATOM     14  C   UNL     1       0.810  10.234  19.998  0.00  0.00    +0.000 A 
ATOM     15  C   UNL     1       1.189   8.884  20.096  0.00  0.00    +0.000 A 
ATOM     16 CL   UNL     1       0.624   8.061  21.511  0.00  0.00    +0.000 Cl
ENDBRANCH   7  10
BRANCH   1  17
ATOM     17  O   UNL     1       4.749   4.552  15.922  0.00  0.00    +0.000 OA
BRANCH  17  18
ATOM     18  C   UNL     1       6.155   4.274  15.914  0.00  0.00    +0.000 C 
BRANCH  18  19
ATOM     19  C   UNL     1       6.824   5.214  16.905  0.00  0.00    +0.000 A 
ATOM     20  C   UNL     1       6.827   6.595  16.668  0.00  0.00    +0.000 A 
ATOM     21  C   UNL     1       7.462   7.464  17.559  0.00  0.00    +0.000 A 
ATOM     22  C   UNL     1       8.102   6.959  18.692  0.00  0.00    +0.000 A 
ATOM     23  C   UNL     1       8.112   5.590  18.934  0.00  0.00    +0.000 A 
ATOM     24  C   UNL     1       7.481   4.719  18.042  0.00  0.00    +0.000 A 
ENDBRANCH  18  19
BRANCH  18  25
ATOM     25  C   UNL     1       6.688   4.495  14.473  0.00  0.00    +0.000 C 
BRANCH  25  26
ATOM     26  N   UNL     1       6.365   3.382  13.565  0.00  0.00    +0.000 NA
ATOM     27  H   UNL     1       6.220   2.533  14.109  0.00  0.00    +0.000 HD
ATOM     28  H   UNL     1       7.170   3.209  12.961  0.00  0.00    +0.000 HD
ENDBRANCH  25  26
ENDBRANCH  18  25
ENDBRANCH  17  18
ENDBRANCH   1  17
TORSDOF 6
ENDMDL
MODEL 6
REMARK VINA RESULT:      -8.1      1.779      2.779
REMARK  Name = 
REMARK  6 active torsions:
REMARK  status: ('A' for Active; 'I' for Inactive)
REMARK    1  A    between atoms: N_1  and  C_2
REMARK    2  A    between atoms: C_2  and  C_3
REMARK    3  A    between atoms: C_3  and  O_4
REMARK    4  A    between atoms: C_3  and  C_21
REMARK    5  A    between atoms: O_4  and  C_5
REMARK    6  A    between atoms: C_11  and  C_12
REMARK                            x       y       z     vdW  Elec       q    Type
REMARK                         _______ _______ _______ _____ _____    ______ ____
ROOT
ATOM      1  C   UNL     1       4.089   4.159  17.314  0.00  0.00    +0.000 A 
ATOM      2  N   UNL     1       4.339   2.859  17.526  0.00  0.00    +0.000 NA
ATOM      3  O   UNL     1       3.703   2.553  18.726  0.00  0.00    +0.000 OA
ATOM      4  C   UNL     1       3.121   3.675  19.224  0.00  0.00    +0.000 A 
ATOM      5  C   UNL     1       2.469   3.820  20.435  0.00  0.00    +0.000 A 
ATOM      6  C   UNL     1       2.035   5.122  20.708  0.00  0.00    +0.000 A 
ATOM      7  C   UNL     1       2.208   6.159  19.774  0.00  0.00    +0.000 A 
ATOM      8  N   UNL     1       2.806   5.966  18.581  0.00  0.00    +0.000 NA
ATOM      9  C   UNL     1       3.295   4.722  18.342  0.00  0.00    +0.000 A 
ENDROOT
BRANCH   7  10
ATOM     10  C   UNL     1       1.717   7.536  20.041  0.00  0.00    +0.000 A 
ATOM     11  C   UNL     1       1.197   7.846  21.321  0.00  0.00    +0.000 A 
ATOM     12  C   UNL     1       0.764   9.131  21.658  0.00  0.00    +0.000 A 
ATOM     13  C   UNL     1       0.810  10.148  20.714  0.00  0.00    +0.000 A 
ATOM     14  C   UNL     1       1.282   9.874  19.435  0.00  0.00    +0.000 A 
ATOM     15  C   UNL     1       1.737   8.588  19.098  0.00  0.00    +0.000 A 
ATOM     16 CL   UNL     1       2.358   8.424  17.489  0.00  0.00    +0.000 Cl
ENDBRANCH   7  10
BRANCH   1  17
ATOM     17  O   UNL     1       4.708   4.686  16.233  0.00  0.00    +0.000 OA
BRANCH  17  18
ATOM     18  C   UNL     1       6.109   4.403  16.122  0.00  0.00    +0.000 C 
BRANCH  18  19
ATOM     19  C   UNL     1       6.854   5.365  17.035  0.00  0.00    +0.000 A 
ATOM     20  C   UNL     1       7.412   4.902  18.233  0.00  0.00    +0.000 A 
ATOM     21  C   UNL     1       8.075   5.784  19.092  0.00  0.00    +0.000 A 
ATOM     22  C   UNL     1       8.183   7.134  18.758  0.00  0.00    +0.000 A 
ATOM     23  C   UNL     1       7.628   7.607  17.575  0.00  0.00    +0.000 A 
ATOM     24  C   UNL     1       6.960   6.728  16.718  0.00  0.00    +0.000 A 
ENDBRANCH  18  19
BRANCH  18  25
ATOM     25  C   UNL     1       6.529   4.586  14.639  0.00  0.00    +0.000 C 
BRANCH  25  26
ATOM     26  N   UNL     1       6.188   3.425  13.799  0.00  0.00    +0.000 NA
ATOM     27  H   UNL     1       5.675   2.743  14.356  0.00  0.00    +0.000 HD
ATOM     28  H   UNL     1       7.053   2.971  13.504  0.00  0.00    +0.000 HD
ENDBRANCH  25  26
ENDBRANCH  18  25
ENDBRANCH  17  18
ENDBRANCH   1  17
TORSDOF 6
ENDMDL
MODEL 7
REMARK VINA RESULT:      -7.6      3.174      7.382
REMARK  Name = 
REMARK  6 active torsions:
REMARK  status: ('A' for Active; 'I' for Inactive)
REMARK    1  A    between atoms: N_1  and  C_2
REMARK    2  A    between atoms: C_2  and  C_3
REMARK    3  A    between atoms: C_3  and  O_4
REMARK    4  A    between atoms: C_3  and  C_21
REMARK    5  A    between atoms: O_4  and  C_5
REMARK    6  A    between atoms: C_11  and  C_12
REMARK                            x       y       z     vdW  Elec       q    Type
REMARK                         _______ _______ _______ _____ _____    ______ ____
ROOT
ATOM      1  C   UNL     1       1.904   8.337  19.002  0.00  0.00    +0.000 A 
ATOM      2  N   UNL     1       1.207   8.213  20.140  0.00  0.00    +0.000 NA
ATOM      3  O   UNL     1       1.634   7.014  20.704  0.00  0.00    +0.000 OA
ATOM      4  C   UNL     1       2.544   6.431  19.882  0.00  0.00    +0.000 A 
ATOM      5  C   UNL     1       3.143   5.193  20.030  0.00  0.00    +0.000 A 
ATOM      6  C   UNL     1       3.989   4.828  18.977  0.00  0.00    +0.000 A 
ATOM      7  C   UNL     1       4.236   5.702  17.903  0.00  0.00    +0.000 A 
ATOM      8  N   UNL     1       3.669   6.923  17.819  0.00  0.00    +0.000 NA
ATOM      9  C   UNL     1       2.790   7.252  18.801  0.00  0.00    +0.000 A 
ENDROOT
BRANCH   7  10
ATOM     10  C   UNL     1       5.160   5.336  16.799  0.00  0.00    +0.000 A 
ATOM     11  C   UNL     1       4.682   4.531  15.737  0.00  0.00    +0.000 A 
ATOM     12  C   UNL     1       5.482   4.189  14.643  0.00  0.00    +0.000 A 
ATOM     13  C   UNL     1       6.800   4.619  14.586  0.00  0.00    +0.000 A 
ATOM     14  C   UNL     1       7.317   5.382  15.628  0.00  0.00    +0.000 A 
ATOM     15  C   UNL     1       6.511   5.745  16.721  0.00  0.00    +0.000 A 
ATOM     16 CL   UNL     1       7.279   6.754  17.900  0.00  0.00    +0.000 Cl
ENDBRANCH   7  10
BRANCH   1  17
ATOM     17  O   UNL     1       1.563   9.404  18.244  0.00  0.00    +0.000 OA
BRANCH  17  18
ATOM     18  C   UNL     1       1.002  10.515  18.954  0.00  0.00    +0.000 C 
BRANCH  18  19
ATOM     19  C   UNL     1      -0.458  10.644  18.545  0.00  0.00    +0.000 A 
ATOM     20  C   UNL     1      -0.975   9.826  17.532  0.00  0.00    +0.000 A 
ATOM     21  C   UNL     1      -2.308   9.956  17.130  0.00  0.00    +0.000 A 
ATOM     22  C   UNL     1      -3.131  10.905  17.736  0.00  0.00    +0.000 A 
ATOM     23  C   UNL     1      -2.627  11.727  18.737  0.00  0.00    +0.000 A 
ATOM     24  C   UNL     1      -1.294  11.603  19.137  0.00  0.00    +0.000 A 
ENDBRANCH  18  19
BRANCH  18  25
ATOM     25  C   UNL     1       1.809  11.789  18.587  0.00  0.00    +0.000 C 
BRANCH  25  26
ATOM     26  N   UNL     1       2.597  11.632  17.353  0.00  0.00    +0.000 NA
ATOM     27  H   UNL     1       3.589  11.687  17.576  0.00  0.00    +0.000 HD
ATOM     28  H   UNL     1       2.392  12.417  16.733  0.00  0.00    +0.000 HD
ENDBRANCH  25  26
ENDBRANCH  18  25
ENDBRANCH  17  18
ENDBRANCH   1  17
TORSDOF 6
ENDMDL
MODEL 8
REMARK VINA RESULT:      -7.6      1.853      4.235
REMARK  Name = 
REMARK  6 active torsions:
REMARK  status: ('A' for Active; 'I' for Inactive)
REMARK    1  A    between atoms: N_1  and  C_2
REMARK    2  A    between atoms: C_2  and  C_3
REMARK    3  A    between atoms: C_3  and  O_4
REMARK    4  A    between atoms: C_3  and  C_21
REMARK    5  A    between atoms: O_4  and  C_5
REMARK    6  A    between atoms: C_11  and  C_12
REMARK                            x       y       z     vdW  Elec       q    Type
REMARK                         _______ _______ _______ _____ _____    ______ ____
ROOT
ATOM      1  C   UNL     1       5.334   4.249  18.800  0.00  0.00    +0.000 A 
ATOM      2  N   UNL     1       6.158   4.009  17.770  0.00  0.00    +0.000 NA
ATOM      3  O   UNL     1       5.960   5.065  16.886  0.00  0.00    +0.000 OA
ATOM      4  C   UNL     1       5.003   5.892  17.382  0.00  0.00    +0.000 A 
ATOM      5  C   UNL     1       4.450   7.003  16.772  0.00  0.00    +0.000 A 
ATOM      6  C   UNL     1       3.425   7.615  17.502  0.00  0.00    +0.000 A 
ATOM      7  C   UNL     1       3.056   7.147  18.776  0.00  0.00    +0.000 A 
ATOM      8  N   UNL     1       3.654   6.087  19.358  0.00  0.00    +0.000 NA
ATOM      9  C   UNL     1       4.598   5.445  18.624  0.00  0.00    +0.000 A 
ENDROOT
BRANCH   7  10
ATOM     10  C   UNL     1       1.993   7.814  19.572  0.00  0.00    +0.000 A 
ATOM     11  C   UNL     1       1.520   7.189  20.751  0.00  0.00    +0.000 A 
ATOM     12  C   UNL     1       0.558   7.781  21.573  0.00  0.00    +0.000 A 
ATOM     13  C   UNL     1       0.012   9.010  21.228  0.00  0.00    +0.000 A 
ATOM     14  C   UNL     1       0.425   9.639  20.058  0.00  0.00    +0.000 A 
ATOM     15  C   UNL     1       1.408   9.056  19.238  0.00  0.00    +0.000 A 
ATOM     16 CL   UNL     1       1.864   9.994  17.856  0.00  0.00    +0.000 Cl
ENDBRANCH   7  10
BRANCH   1  17
ATOM     17  O   UNL     1       5.302   3.275  19.739  0.00  0.00    +0.000 OA
BRANCH  17  18
ATOM     18  C   UNL     1       4.510   2.126  19.412  0.00  0.00    +0.000 C 
BRANCH  18  19
ATOM     19  C   UNL     1       3.050   2.483  19.642  0.00  0.00    +0.000 A 
ATOM     20  C   UNL     1       2.111   2.287  18.621  0.00  0.00    +0.000 A 
ATOM     21  C   UNL     1       0.772   2.638  18.814  0.00  0.00    +0.000 A 
ATOM     22  C   UNL     1       0.362   3.188  20.028  0.00  0.00    +0.000 A 
ATOM     23  C   UNL     1       1.285   3.394  21.047  0.00  0.00    +0.000 A 
ATOM     24  C   UNL     1       2.625   3.048  20.855  0.00  0.00    +0.000 A 
ENDBRANCH  18  19
BRANCH  18  25
ATOM     25  C   UNL     1       4.958   0.950  20.320  0.00  0.00    +0.000 C 
BRANCH  25  26
ATOM     26  N   UNL     1       5.537   1.400  21.597  0.00  0.00    +0.000 NA
ATOM     27  H   UNL     1       6.317   0.794  21.847  0.00  0.00    +0.000 HD
ATOM     28  H   UNL     1       4.835   1.290  22.330  0.00  0.00    +0.000 HD
ENDBRANCH  25  26
ENDBRANCH  18  25
ENDBRANCH  17  18
ENDBRANCH   1  17
TORSDOF 6
ENDMDL
MODEL 9
REMARK VINA RESULT:      -7.5      1.348      2.198
REMARK  Name = 
REMARK  6 active torsions:
REMARK  status: ('A' for Active; 'I' for Inactive)
REMARK    1  A    between atoms: N_1  and  C_2
REMARK    2  A    between atoms: C_2  and  C_3
REMARK    3  A    between atoms: C_3  and  O_4
REMARK    4  A    between atoms: C_3  and  C_21
REMARK    5  A    between atoms: O_4  and  C_5
REMARK    6  A    between atoms: C_11  and  C_12
REMARK                            x       y       z     vdW  Elec       q    Type
REMARK                         _______ _______ _______ _____ _____    ______ ____
ROOT
ATOM      1  C   UNL     1       4.940   3.885  19.570  0.00  0.00    +0.000 A 
ATOM      2  N   UNL     1       4.825   2.554  19.678  0.00  0.00    +0.000 NA
ATOM      3  O   UNL     1       3.477   2.322  19.936  0.00  0.00    +0.000 OA
ATOM      4  C   UNL     1       2.824   3.510  20.013  0.00  0.00    +0.000 A 
ATOM      5  C   UNL     1       1.497   3.723  20.342  0.00  0.00    +0.000 A 
ATOM      6  C   UNL     1       1.126   5.070  20.412  0.00  0.00    +0.000 A 
ATOM      7  C   UNL     1       2.040   6.096  20.105  0.00  0.00    +0.000 A 
ATOM      8  N   UNL     1       3.314   5.844  19.741  0.00  0.00    +0.000 NA
ATOM      9  C   UNL     1       3.699   4.542  19.743  0.00  0.00    +0.000 A 
ENDROOT
BRANCH   7  10
ATOM     10  C   UNL     1       1.643   7.527  20.143  0.00  0.00    +0.000 A 
ATOM     11  C   UNL     1       1.059   8.050  21.321  0.00  0.00    +0.000 A 
ATOM     12  C   UNL     1       0.707   9.396  21.445  0.00  0.00    +0.000 A 
ATOM     13  C   UNL     1       0.902  10.265  20.380  0.00  0.00    +0.000 A 
ATOM     14  C   UNL     1       1.441   9.781  19.192  0.00  0.00    +0.000 A 
ATOM     15  C   UNL     1       1.815   8.431  19.071  0.00  0.00    +0.000 A 
ATOM     16 CL   UNL     1       2.535   8.000  17.555  0.00  0.00    +0.000 Cl
ENDBRANCH   7  10
BRANCH   1  17
ATOM     17  O   UNL     1       6.208   4.332  19.413  0.00  0.00    +0.000 OA
BRANCH  17  18
ATOM     18  C   UNL     1       6.601   4.617  18.065  0.00  0.00    +0.000 C 
BRANCH  18  19
ATOM     19  C   UNL     1       7.025   6.077  17.999  0.00  0.00    +0.000 A 
ATOM     20  C   UNL     1       6.353   6.964  17.150  0.00  0.00    +0.000 A 
ATOM     21  C   UNL     1       6.753   8.300  17.062  0.00  0.00    +0.000 A 
ATOM     22  C   UNL     1       7.829   8.758  17.822  0.00  0.00    +0.000 A 
ATOM     23  C   UNL     1       8.510   7.886  18.664  0.00  0.00    +0.000 A 
ATOM     24  C   UNL     1       8.114   6.549  18.749  0.00  0.00    +0.000 A 
ENDBRANCH  18  19
BRANCH  18  25
ATOM     25  C   UNL     1       5.393   4.335  17.133  0.00  0.00    +0.000 C 
BRANCH  25  26
ATOM     26  N   UNL     1       5.720   3.409  16.036  0.00  0.00    +0.000 NA
ATOM     27  H   UNL     1       5.561   3.872  15.142  0.00  0.00    +0.000 HD
ATOM     28  H   UNL     1       5.075   2.618  16.073  0.00  0.00    +0.000 HD
ENDBRANCH  25  26
ENDBRANCH  18  25
ENDBRANCH  17  18
ENDBRANCH   1  17
TORSDOF 6
ENDMDL
