MODEL 1
REMARK VINA RESULT:      -6.8      0.000      0.000
REMARK  Name = 
REMARK  8 active torsions:
REMARK  status: ('A' for Active; 'I' for Inactive)
REMARK    1  A    between atoms: O_1  and  C_2
REMARK    2  A    between atoms: C_2  and  C_3
REMARK    3  A    between atoms: C_5  and  O_6
REMARK    4  A    between atoms: O_6  and  N_7
REMARK    5  A    between atoms: C_8  and  C_9
REMARK    6  A    between atoms: C_16  and  O_17
REMARK    7  A    between atoms: C_18  and  O_19
REMARK    8  A    between atoms: C_20  and  O_21
REMARK                            x       y       z     vdW  Elec       q    Type
REMARK                         _______ _______ _______ _____ _____    ______ ____
ROOT
ATOM      1  C   UNL     1       6.442   4.427  16.302  0.00  0.00    +0.000 C 
ATOM      2  O   UNL     1       7.609   4.755  17.085  0.00  0.00    +0.000 OA
ATOM      3  C   UNL     1       7.547   6.029  17.758  0.00  0.00    +0.000 C 
ATOM      4  C   UNL     1       6.369   6.015  18.761  0.00  0.00    +0.000 C 
ATOM      5  C   UNL     1       5.039   5.650  18.069  0.00  0.00    +0.000 C 
ATOM      6  C   UNL     1       5.164   4.408  17.169  0.00  0.00    +0.000 C 
ENDROOT
BRANCH   4   7
ATOM      7  O   UNL     1       6.637   5.067  19.817  0.00  0.00    +0.000 OA
ATOM      8  H   UNL     1       6.430   5.490  20.668  0.00  0.00    +0.000 HD
ENDBRANCH   4   7
BRANCH   5   9
ATOM      9  O   UNL     1       4.508   6.746  17.312  0.00  0.00    +0.000 OA
ATOM     10  H   UNL     1       3.601   6.926  17.632  0.00  0.00    +0.000 HD
ENDBRANCH   5   9
BRANCH   6  11
ATOM     11  O   UNL     1       5.173   3.219  17.983  0.00  0.00    +0.000 OA
ATOM     12  H   UNL     1       4.562   2.577  17.590  0.00  0.00    +0.000 HD
ENDBRANCH   6  11
BRANCH   1  13
ATOM     13  C   UNL     1       6.326   5.273  15.023  0.00  0.00    +0.000 C 
BRANCH  13  14
ATOM     14  O   UNL     1       7.579   5.383  14.362  0.00  0.00    +0.000 OA
ATOM     15  H   UNL     1       8.037   6.150  14.751  0.00  0.00    +0.000 HD
ENDBRANCH  13  14
ENDBRANCH   1  13
BRANCH   3  16
ATOM     16  O   UNL     1       7.647   7.117  16.830  0.00  0.00    +0.000 OA
BRANCH  16  17
ATOM     17  N   UNL     1       7.515   8.365  17.456  0.00  0.00    +0.000 NA
ATOM     18  C   UNL     1       8.691   8.813  17.764  0.00  0.00    +0.000 C 
BRANCH  18  19
ATOM     19  C   UNL     1       8.862  10.105  18.451  0.00  0.00    +0.000 A 
ATOM     20  C   UNL     1       8.689  11.287  17.722  0.00  0.00    +0.000 A 
ATOM     21  C   UNL     1       8.903  12.519  18.346  0.00  0.00    +0.000 A 
ATOM     22  C   UNL     1       9.267  12.563  19.692  0.00  0.00    +0.000 A 
ATOM     23 BR   UNL     1       9.573  14.230  20.527  0.00  0.00    +0.000 Br
ATOM     24  C   UNL     1       9.413  11.385  20.427  0.00  0.00    +0.000 A 
ATOM     25  C   UNL     1       9.217  10.153  19.803  0.00  0.00    +0.000 A 
ENDBRANCH  18  19
ENDBRANCH  16  17
ENDBRANCH   3  16
TORSDOF 8
ENDMDL
MODEL 2
REMARK VINA RESULT:      -6.8      1.352      2.009
REMARK  Name = 
REMARK  8 active torsions:
REMARK  status: ('A' for Active; 'I' for Inactive)
REMARK    1  A    between atoms: O_1  and  C_2
REMARK    2  A    between atoms: C_2  and  C_3
REMARK    3  A    between atoms: C_5  and  O_6
REMARK    4  A    between atoms: O_6  and  N_7
REMARK    5  A    between atoms: C_8  and  C_9
REMARK    6  A    between atoms: C_16  and  O_17
REMARK    7  A    between atoms: C_18  and  O_19
REMARK    8  A    between atoms: C_20  and  O_21
REMARK                            x       y       z     vdW  Elec       q    Type
REMARK                         _______ _______ _______ _____ _____    ______ ____
ROOT
ATOM      1  C   UNL     1       5.391   5.652  16.253  0.00  0.00    +0.000 C 
ATOM      2  O   UNL     1       6.779   5.977  16.023  0.00  0.00    +0.000 OA
ATOM      3  C   UNL     1       7.519   6.336  17.207  0.00  0.00    +0.000 C 
ATOM      4  C   UNL     1       7.533   5.133  18.180  0.00  0.00    +0.000 C 
ATOM      5  C   UNL     1       6.104   4.650  18.505  0.00  0.00    +0.000 C 
ATOM      6  C   UNL     1       5.239   4.478  17.244  0.00  0.00    +0.000 C 
ENDROOT
BRANCH   4   7
ATOM      7  O   UNL     1       8.289   4.046  17.604  0.00  0.00    +0.000 OA
ATOM      8  H   UNL     1       7.669   3.443  17.160  0.00  0.00    +0.000 HD
ENDBRANCH   4   7
BRANCH   5   9
ATOM      9  O   UNL     1       5.441   5.517  19.434  0.00  0.00    +0.000 OA
ATOM     10  H   UNL     1       5.849   5.392  20.314  0.00  0.00    +0.000 HD
ENDBRANCH   5   9
BRANCH   6  11
ATOM     11  O   UNL     1       5.600   3.255  16.573  0.00  0.00    +0.000 OA
ATOM     12  H   UNL     1       5.514   3.396  15.617  0.00  0.00    +0.000 HD
ENDBRANCH   6  11
BRANCH   1  13
ATOM     13  C   UNL     1       4.541   6.886  16.600  0.00  0.00    +0.000 C 
BRANCH  13  14
ATOM     14  O   UNL     1       3.544   6.572  17.562  0.00  0.00    +0.000 OA
ATOM     15  H   UNL     1       3.998   6.144  18.310  0.00  0.00    +0.000 HD
ENDBRANCH  13  14
ENDBRANCH   1  13
BRANCH   3  16
ATOM     16  O   UNL     1       7.120   7.619  17.705  0.00  0.00    +0.000 OA
BRANCH  16  17
ATOM     17  N   UNL     1       8.210   8.379  18.153  0.00  0.00    +0.000 NA
ATOM     18  C   UNL     1       7.951   9.637  17.980  0.00  0.00    +0.000 C 
BRANCH  18  19
ATOM     19  C   UNL     1       8.928  10.677  18.348  0.00  0.00    +0.000 A 
ATOM     20  C   UNL     1       8.909  11.896  17.662  0.00  0.00    +0.000 A 
ATOM     21  C   UNL     1       9.866  12.870  17.961  0.00  0.00    +0.000 A 
ATOM     22  C   UNL     1      10.816  12.630  18.953  0.00  0.00    +0.000 A 
ATOM     23 BR   UNL     1      12.118  13.942  19.343  0.00  0.00    +0.000 Br
ATOM     24  C   UNL     1      10.818  11.424  19.657  0.00  0.00    +0.000 A 
ATOM     25  C   UNL     1       9.876  10.443  19.349  0.00  0.00    +0.000 A 
ENDBRANCH  18  19
ENDBRANCH  16  17
ENDBRANCH   3  16
TORSDOF 8
ENDMDL
MODEL 3
REMARK VINA RESULT:      -6.7      1.454      2.317
REMARK  Name = 
REMARK  8 active torsions:
REMARK  status: ('A' for Active; 'I' for Inactive)
REMARK    1  A    between atoms: O_1  and  C_2
REMARK    2  A    between atoms: C_2  and  C_3
REMARK    3  A    between atoms: C_5  and  O_6
REMARK    4  A    between atoms: O_6  and  N_7
REMARK    5  A    between atoms: C_8  and  C_9
REMARK    6  A    between atoms: C_16  and  O_17
REMARK    7  A    between atoms: C_18  and  O_19
REMARK    8  A    between atoms: C_20  and  O_21
REMARK                            x       y       z     vdW  Elec       q    Type
REMARK                         _______ _______ _______ _____ _____    ______ ____
ROOT
ATOM      1  C   UNL     1       5.416   5.800  16.257  0.00  0.00    +0.000 C 
ATOM      2  O   UNL     1       6.809   6.137  16.086  0.00  0.00    +0.000 OA
ATOM      3  C   UNL     1       7.519   6.411  17.311  0.00  0.00    +0.000 C 
ATOM      4  C   UNL     1       7.507   5.142  18.197  0.00  0.00    +0.000 C 
ATOM      5  C   UNL     1       6.070   4.640  18.451  0.00  0.00    +0.000 C 
ATOM      6  C   UNL     1       5.238   4.560  17.159  0.00  0.00    +0.000 C 
ENDROOT
BRANCH   4   7
ATOM      7  O   UNL     1       8.278   4.097  17.565  0.00  0.00    +0.000 OA
ATOM      8  H   UNL     1       9.208   4.201  17.827  0.00  0.00    +0.000 HD
ENDBRANCH   4   7
BRANCH   5   9
ATOM      9  O   UNL     1       5.383   5.441  19.420  0.00  0.00    +0.000 OA
ATOM     10  H   UNL     1       5.946   5.505  20.218  0.00  0.00    +0.000 HD
ENDBRANCH   5   9
BRANCH   6  11
ATOM     11  O   UNL     1       5.616   3.386  16.412  0.00  0.00    +0.000 OA
ATOM     12  H   UNL     1       6.177   3.665  15.671  0.00  0.00    +0.000 HD
ENDBRANCH   6  11
BRANCH   1  13
ATOM     13  C   UNL     1       4.557   7.008  16.667  0.00  0.00    +0.000 C 
BRANCH  13  14
ATOM     14  O   UNL     1       3.519   6.624  17.559  0.00  0.00    +0.000 OA
ATOM     15  H   UNL     1       3.583   7.209  18.335  0.00  0.00    +0.000 HD
ENDBRANCH  13  14
ENDBRANCH   1  13
BRANCH   3  16
ATOM     16  O   UNL     1       7.107   7.656  17.888  0.00  0.00    +0.000 OA
BRANCH  16  17
ATOM     17  N   UNL     1       8.046   8.677  17.681  0.00  0.00    +0.000 NA
ATOM     18  C   UNL     1       8.412   9.157  18.827  0.00  0.00    +0.000 C 
BRANCH  18  19
ATOM     19  C   UNL     1       9.387  10.259  18.919  0.00  0.00    +0.000 A 
ATOM     20  C   UNL     1       9.755  10.733  20.182  0.00  0.00    +0.000 A 
ATOM     21  C   UNL     1      10.635  11.815  20.283  0.00  0.00    +0.000 A 
ATOM     22  C   UNL     1      11.154  12.399  19.127  0.00  0.00    +0.000 A 
ATOM     23 BR   UNL     1      12.329  13.871  19.267  0.00  0.00    +0.000 Br
ATOM     24  C   UNL     1      10.809  11.908  17.867  0.00  0.00    +0.000 A 
ATOM     25  C   UNL     1       9.917  10.840  17.762  0.00  0.00    +0.000 A 
ENDBRANCH  18  19
ENDBRANCH  16  17
ENDBRANCH   3  16
TORSDOF 8
ENDMDL
MODEL 4
REMARK VINA RESULT:      -6.6      1.609      2.508
REMARK  Name = 
REMARK  8 active torsions:
REMARK  status: ('A' for Active; 'I' for Inactive)
REMARK    1  A    between atoms: O_1  and  C_2
REMARK    2  A    between atoms: C_2  and  C_3
REMARK    3  A    between atoms: C_5  and  O_6
REMARK    4  A    between atoms: O_6  and  N_7
REMARK    5  A    between atoms: C_8  and  C_9
REMARK    6  A    between atoms: C_16  and  O_17
REMARK    7  A    between atoms: C_18  and  O_19
REMARK    8  A    between atoms: C_20  and  O_21
REMARK                            x       y       z     vdW  Elec       q    Type
REMARK                         _______ _______ _______ _____ _____    ______ ____
ROOT
ATOM      1  C   UNL     1       5.135   5.932  16.550  0.00  0.00    +0.000 C 
ATOM      2  O   UNL     1       6.474   6.281  16.139  0.00  0.00    +0.000 OA
ATOM      3  C   UNL     1       7.414   6.444  17.219  0.00  0.00    +0.000 C 
ATOM      4  C   UNL     1       7.553   5.103  17.978  0.00  0.00    +0.000 C 
ATOM      5  C   UNL     1       6.183   4.583  18.465  0.00  0.00    +0.000 C 
ATOM      6  C   UNL     1       5.113   4.618  17.359  0.00  0.00    +0.000 C 
ENDROOT
BRANCH   4   7
ATOM      7  O   UNL     1       8.165   4.116  17.120  0.00  0.00    +0.000 OA
ATOM      8  H   UNL     1       7.595   3.328  17.104  0.00  0.00    +0.000 HD
ENDBRANCH   4   7
BRANCH   5   9
ATOM      9  O   UNL     1       5.714   5.297  19.615  0.00  0.00    +0.000 OA
ATOM     10  H   UNL     1       5.606   6.238  19.369  0.00  0.00    +0.000 HD
ENDBRANCH   5   9
BRANCH   6  11
ATOM     11  O   UNL     1       5.316   3.514  16.455  0.00  0.00    +0.000 OA
ATOM     12  H   UNL     1       4.448   3.142  16.230  0.00  0.00    +0.000 HD
ENDBRANCH   6  11
BRANCH   1  13
ATOM     13  C   UNL     1       4.396   7.101  17.223  0.00  0.00    +0.000 C 
BRANCH  13  14
ATOM     14  O   UNL     1       3.417   6.633  18.140  0.00  0.00    +0.000 OA
ATOM     15  H   UNL     1       3.092   5.782  17.796  0.00  0.00    +0.000 HD
ENDBRANCH  13  14
ENDBRANCH   1  13
BRANCH   3  16
ATOM     16  O   UNL     1       7.147   7.635  17.971  0.00  0.00    +0.000 OA
BRANCH  16  17
ATOM     17  N   UNL     1       7.793   8.759  17.436  0.00  0.00    +0.000 NA
ATOM     18  C   UNL     1       8.346   9.429  18.397  0.00  0.00    +0.000 C 
BRANCH  18  19
ATOM     19  C   UNL     1       9.087  10.676  18.134  0.00  0.00    +0.000 A 
ATOM     20  C   UNL     1      10.469  10.699  18.348  0.00  0.00    +0.000 A 
ATOM     21  C   UNL     1      11.176  11.890  18.157  0.00  0.00    +0.000 A 
ATOM     22  C   UNL     1      10.504  13.037  17.734  0.00  0.00    +0.000 A 
ATOM     23 BR   UNL     1      11.460  14.649  17.493  0.00  0.00    +0.000 Br
ATOM     24  C   UNL     1       9.130  13.007  17.493  0.00  0.00    +0.000 A 
ATOM     25  C   UNL     1       8.418  11.825  17.700  0.00  0.00    +0.000 A 
ENDBRANCH  18  19
ENDBRANCH  16  17
ENDBRANCH   3  16
TORSDOF 8
ENDMDL
MODEL 5
REMARK VINA RESULT:      -6.6      0.197      1.076
REMARK  Name = 
REMARK  8 active torsions:
REMARK  status: ('A' for Active; 'I' for Inactive)
REMARK    1  A    between atoms: O_1  and  C_2
REMARK    2  A    between atoms: C_2  and  C_3
REMARK    3  A    between atoms: C_5  and  O_6
REMARK    4  A    between atoms: O_6  and  N_7
REMARK    5  A    between atoms: C_8  and  C_9
REMARK    6  A    between atoms: C_16  and  O_17
REMARK    7  A    between atoms: C_18  and  O_19
REMARK    8  A    between atoms: C_20  and  O_21
REMARK                            x       y       z     vdW  Elec       q    Type
REMARK                         _______ _______ _______ _____ _____    ______ ____
ROOT
ATOM      1  C   UNL     1       6.221   4.470  16.295  0.00  0.00    +0.000 C 
ATOM      2  O   UNL     1       7.463   4.782  16.962  0.00  0.00    +0.000 OA
ATOM      3  C   UNL     1       7.469   6.035  17.675  0.00  0.00    +0.000 C 
ATOM      4  C   UNL     1       6.401   5.986  18.794  0.00  0.00    +0.000 C 
ATOM      5  C   UNL     1       5.007   5.635  18.233  0.00  0.00    +0.000 C 
ATOM      6  C   UNL     1       5.040   4.421  17.289  0.00  0.00    +0.000 C 
ENDROOT
BRANCH   4   7
ATOM      7  O   UNL     1       6.779   5.009  19.788  0.00  0.00    +0.000 OA
ATOM      8  H   UNL     1       6.187   4.242  19.705  0.00  0.00    +0.000 HD
ENDBRANCH   4   7
BRANCH   5   9
ATOM      9  O   UNL     1       4.398   6.749  17.568  0.00  0.00    +0.000 OA
ATOM     10  H   UNL     1       4.826   7.568  17.890  0.00  0.00    +0.000 HD
ENDBRANCH   5   9
BRANCH   6  11
ATOM     11  O   UNL     1       5.136   3.208  18.062  0.00  0.00    +0.000 OA
ATOM     12  H   UNL     1       4.618   3.324  18.875  0.00  0.00    +0.000 HD
ENDBRANCH   6  11
BRANCH   1  13
ATOM     13  C   UNL     1       5.971   5.352  15.060  0.00  0.00    +0.000 C 
BRANCH  13  14
ATOM     14  O   UNL     1       7.142   5.466  14.262  0.00  0.00    +0.000 OA
ATOM     15  H   UNL     1       7.331   4.578  13.910  0.00  0.00    +0.000 HD
ENDBRANCH  13  14
ENDBRANCH   1  13
BRANCH   3  16
ATOM     16  O   UNL     1       7.470   7.149  16.774  0.00  0.00    +0.000 OA
BRANCH  16  17
ATOM     17  N   UNL     1       7.412   8.378  17.447  0.00  0.00    +0.000 NA
ATOM     18  C   UNL     1       8.618   8.804  17.659  0.00  0.00    +0.000 C 
BRANCH  18  19
ATOM     19  C   UNL     1       8.868  10.072  18.366  0.00  0.00    +0.000 A 
ATOM     20  C   UNL     1       9.229  10.034  19.717  0.00  0.00    +0.000 A 
ATOM     21  C   UNL     1       9.415  11.231  20.415  0.00  0.00    +0.000 A 
ATOM     22  C   UNL     1       9.260  12.451  19.756  0.00  0.00    +0.000 A 
ATOM     23 BR   UNL     1       9.495  14.067  20.707  0.00  0.00    +0.000 Br
ATOM     24  C   UNL     1       8.927  12.489  18.401  0.00  0.00    +0.000 A 
ATOM     25  C   UNL     1       8.724  11.297  17.706  0.00  0.00    +0.000 A 
ENDBRANCH  18  19
ENDBRANCH  16  17
ENDBRANCH   3  16
TORSDOF 8
ENDMDL
MODEL 6
REMARK VINA RESULT:      -6.6      4.748      6.237
REMARK  Name = 
REMARK  8 active torsions:
REMARK  status: ('A' for Active; 'I' for Inactive)
REMARK    1  A    between atoms: O_1  and  C_2
REMARK    2  A    between atoms: C_2  and  C_3
REMARK    3  A    between atoms: C_5  and  O_6
REMARK    4  A    between atoms: O_6  and  N_7
REMARK    5  A    between atoms: C_8  and  C_9
REMARK    6  A    between atoms: C_16  and  O_17
REMARK    7  A    between atoms: C_18  and  O_19
REMARK    8  A    between atoms: C_20  and  O_21
REMARK                            x       y       z     vdW  Elec       q    Type
REMARK                         _______ _______ _______ _____ _____    ______ ____
ROOT
ATOM      1  C   UNL     1       6.108   6.014  18.038  0.00  0.00    +0.000 C 
ATOM      2  O   UNL     1       5.478   5.784  19.315  0.00  0.00    +0.000 OA
ATOM      3  C   UNL     1       4.236   5.056  19.255  0.00  0.00    +0.000 C 
ATOM      4  C   UNL     1       4.502   3.648  18.668  0.00  0.00    +0.000 C 
ATOM      5  C   UNL     1       5.204   3.730  17.295  0.00  0.00    +0.000 C 
ATOM      6  C   UNL     1       6.408   4.688  17.305  0.00  0.00    +0.000 C 
ENDROOT
BRANCH   4   7
ATOM      7  O   UNL     1       5.319   2.884  19.581  0.00  0.00    +0.000 OA
ATOM      8  H   UNL     1       4.894   2.021  19.723  0.00  0.00    +0.000 HD
ENDBRANCH   4   7
BRANCH   5   9
ATOM      9  O   UNL     1       4.298   4.101  16.249  0.00  0.00    +0.000 OA
ATOM     10  H   UNL     1       4.766   4.706  15.639  0.00  0.00    +0.000 HD
ENDBRANCH   5   9
BRANCH   6  11
ATOM     11  O   UNL     1       7.530   4.049  17.945  0.00  0.00    +0.000 OA
ATOM     12  H   UNL     1       8.303   4.139  17.365  0.00  0.00    +0.000 HD
ENDBRANCH   6  11
BRANCH   1  13
ATOM     13  C   UNL     1       5.361   7.052  17.184  0.00  0.00    +0.000 C 
BRANCH  13  14
ATOM     14  O   UNL     1       5.446   6.740  15.800  0.00  0.00    +0.000 OA
ATOM     15  H   UNL     1       6.271   7.137  15.471  0.00  0.00    +0.000 HD
ENDBRANCH  13  14
ENDBRANCH   1  13
BRANCH   3  16
ATOM     16  O   UNL     1       3.189   5.851  18.684  0.00  0.00    +0.000 OA
BRANCH  16  17
ATOM     17  N   UNL     1       2.410   6.487  19.662  0.00  0.00    +0.000 NA
ATOM     18  C   UNL     1       2.171   7.705  19.290  0.00  0.00    +0.000 C 
BRANCH  18  19
ATOM     19  C   UNL     1       1.383   8.622  20.133  0.00  0.00    +0.000 A 
ATOM     20  C   UNL     1       1.274   8.357  21.502  0.00  0.00    +0.000 A 
ATOM     21  C   UNL     1       0.483   9.186  22.303  0.00  0.00    +0.000 A 
ATOM     22  C   UNL     1      -0.172  10.280  21.738  0.00  0.00    +0.000 A 
ATOM     23 BR   UNL     1      -1.254  11.387  22.821  0.00  0.00    +0.000 Br
ATOM     24  C   UNL     1      -0.041  10.560  20.377  0.00  0.00    +0.000 A 
ATOM     25  C   UNL     1       0.733   9.725  19.571  0.00  0.00    +0.000 A 
ENDBRANCH  18  19
ENDBRANCH  16  17
ENDBRANCH   3  16
TORSDOF 8
ENDMDL
MODEL 7
REMARK VINA RESULT:      -6.5      5.799      7.074
REMARK  Name = 
REMARK  8 active torsions:
REMARK  status: ('A' for Active; 'I' for Inactive)
REMARK    1  A    between atoms: O_1  and  C_2
REMARK    2  A    between atoms: C_2  and  C_3
REMARK    3  A    between atoms: C_5  and  O_6
REMARK    4  A    between atoms: O_6  and  N_7
REMARK    5  A    between atoms: C_8  and  C_9
REMARK    6  A    between atoms: C_16  and  O_17
REMARK    7  A    between atoms: C_18  and  O_19
REMARK    8  A    between atoms: C_20  and  O_21
REMARK                            x       y       z     vdW  Elec       q    Type
REMARK                         _______ _______ _______ _____ _____    ______ ____
ROOT
ATOM      1  C   UNL     1       4.054   3.529  18.520  0.00  0.00    +0.000 C 
ATOM      2  O   UNL     1       3.849   3.769  19.929  0.00  0.00    +0.000 OA
ATOM      3  C   UNL     1       2.600   4.411  20.257  0.00  0.00    +0.000 C 
ATOM      4  C   UNL     1       1.430   3.497  19.821  0.00  0.00    +0.000 C 
ATOM      5  C   UNL     1       1.526   3.128  18.325  0.00  0.00    +0.000 C 
ATOM      6  C   UNL     1       2.933   2.649  17.925  0.00  0.00    +0.000 C 
ENDROOT
BRANCH   4   7
ATOM      7  O   UNL     1       1.430   2.291  20.614  0.00  0.00    +0.000 OA
ATOM      8  H   UNL     1       2.301   1.868  20.530  0.00  0.00    +0.000 HD
ENDBRANCH   4   7
BRANCH   5   9
ATOM      9  O   UNL     1       1.124   4.211  17.477  0.00  0.00    +0.000 OA
ATOM     10  H   UNL     1       1.911   4.762  17.291  0.00  0.00    +0.000 HD
ENDBRANCH   5   9
BRANCH   6  11
ATOM     11  O   UNL     1       3.125   1.291  18.368  0.00  0.00    +0.000 OA
ATOM     12  H   UNL     1       2.342   0.776  18.119  0.00  0.00    +0.000 HD
ENDBRANCH   6  11
BRANCH   1  13
ATOM     13  C   UNL     1       4.331   4.819  17.731  0.00  0.00    +0.000 C 
BRANCH  13  14
ATOM     14  O   UNL     1       5.252   5.656  18.417  0.00  0.00    +0.000 OA
ATOM     15  H   UNL     1       5.015   6.575  18.199  0.00  0.00    +0.000 HD
ENDBRANCH  13  14
ENDBRANCH   1  13
BRANCH   3  16
ATOM     16  O   UNL     1       2.592   5.783  19.842  0.00  0.00    +0.000 OA
BRANCH  16  17
ATOM     17  N   UNL     1       1.646   6.546  20.541  0.00  0.00    +0.000 NA
ATOM     18  C   UNL     1       1.830   7.801  20.276  0.00  0.00    +0.000 C 
BRANCH  18  19
ATOM     19  C   UNL     1       0.986   8.844  20.886  0.00  0.00    +0.000 A 
ATOM     20  C   UNL     1       0.897   8.913  22.281  0.00  0.00    +0.000 A 
ATOM     21  C   UNL     1       0.057   9.861  22.871  0.00  0.00    +0.000 A 
ATOM     22  C   UNL     1      -0.668  10.742  22.070  0.00  0.00    +0.000 A 
ATOM     23 BR   UNL     1      -1.817  12.011  22.872  0.00  0.00    +0.000 Br
ATOM     24  C   UNL     1      -0.559  10.692  20.679  0.00  0.00    +0.000 A 
ATOM     25  C   UNL     1       0.266   9.736  20.085  0.00  0.00    +0.000 A 
ENDBRANCH  18  19
ENDBRANCH  16  17
ENDBRANCH   3  16
TORSDOF 8
ENDMDL
MODEL 8
REMARK VINA RESULT:      -6.5      4.302      5.999
REMARK  Name = 
REMARK  8 active torsions:
REMARK  status: ('A' for Active; 'I' for Inactive)
REMARK    1  A    between atoms: O_1  and  C_2
REMARK    2  A    between atoms: C_2  and  C_3
REMARK    3  A    between atoms: C_5  and  O_6
REMARK    4  A    between atoms: O_6  and  N_7
REMARK    5  A    between atoms: C_8  and  C_9
REMARK    6  A    between atoms: C_16  and  O_17
REMARK    7  A    between atoms: C_18  and  O_19
REMARK    8  A    between atoms: C_20  and  O_21
REMARK                            x       y       z     vdW  Elec       q    Type
REMARK                         _______ _______ _______ _____ _____    ______ ____
ROOT
ATOM      1  C   UNL     1       5.527   4.317  16.406  0.00  0.00    +0.000 C 
ATOM      2  O   UNL     1       5.180   5.584  15.808  0.00  0.00    +0.000 OA
ATOM      3  C   UNL     1       4.925   6.647  16.748  0.00  0.00    +0.000 C 
ATOM      4  C   UNL     1       6.209   6.916  17.569  0.00  0.00    +0.000 C 
ATOM      5  C   UNL     1       6.722   5.634  18.257  0.00  0.00    +0.000 C 
ATOM      6  C   UNL     1       6.784   4.434  17.295  0.00  0.00    +0.000 C 
ENDROOT
BRANCH   4   7
ATOM      7  O   UNL     1       7.239   7.445  16.706  0.00  0.00    +0.000 OA
ATOM      8  H   UNL     1       7.822   6.713  16.441  0.00  0.00    +0.000 HD
ENDBRANCH   4   7
BRANCH   5   9
ATOM      9  O   UNL     1       5.941   5.292  19.409  0.00  0.00    +0.000 OA
ATOM     10  H   UNL     1       6.118   4.355  19.631  0.00  0.00    +0.000 HD
ENDBRANCH   5   9
BRANCH   6  11
ATOM     11  O   UNL     1       7.942   4.553  16.446  0.00  0.00    +0.000 OA
ATOM     12  H   UNL     1       8.156   3.673  16.098  0.00  0.00    +0.000 HD
ENDBRANCH   6  11
BRANCH   1  13
ATOM     13  C   UNL     1       4.330   3.635  17.090  0.00  0.00    +0.000 C 
BRANCH  13  14
ATOM     14  O   UNL     1       4.747   2.859  18.206  0.00  0.00    +0.000 OA
ATOM     15  H   UNL     1       3.960   2.389  18.533  0.00  0.00    +0.000 HD
ENDBRANCH  13  14
ENDBRANCH   1  13
BRANCH   3  16
ATOM     16  O   UNL     1       3.691   6.441  17.449  0.00  0.00    +0.000 OA
BRANCH  16  17
ATOM     17  N   UNL     1       3.222   7.614  18.057  0.00  0.00    +0.000 NA
ATOM     18  C   UNL     1       2.309   7.308  18.924  0.00  0.00    +0.000 C 
BRANCH  18  19
ATOM     19  C   UNL     1       1.621   8.347  19.711  0.00  0.00    +0.000 A 
ATOM     20  C   UNL     1       1.411   8.134  21.077  0.00  0.00    +0.000 A 
ATOM     21  C   UNL     1       0.710   9.085  21.824  0.00  0.00    +0.000 A 
ATOM     22  C   UNL     1       0.245  10.247  21.208  0.00  0.00    +0.000 A 
ATOM     23 BR   UNL     1      -0.717  11.522  22.216  0.00  0.00    +0.000 Br
ATOM     24  C   UNL     1       0.478  10.473  19.850  0.00  0.00    +0.000 A 
ATOM     25  C   UNL     1       1.161   9.517  19.098  0.00  0.00    +0.000 A 
ENDBRANCH  18  19
ENDBRANCH  16  17
ENDBRANCH   3  16
TORSDOF 8
ENDMDL
MODEL 9
REMARK VINA RESULT:      -6.5      4.464      6.023
REMARK  Name = 
REMARK  8 active torsions:
REMARK  status: ('A' for Active; 'I' for Inactive)
REMARK    1  A    between atoms: O_1  and  C_2
REMARK    2  A    between atoms: C_2  and  C_3
REMARK    3  A    between atoms: C_5  and  O_6
REMARK    4  A    between atoms: O_6  and  N_7
REMARK    5  A    between atoms: C_8  and  C_9
REMARK    6  A    between atoms: C_16  and  O_17
REMARK    7  A    between atoms: C_18  and  O_19
REMARK    8  A    between atoms: C_20  and  O_21
REMARK                            x       y       z     vdW  Elec       q    Type
REMARK                         _______ _______ _______ _____ _____    ______ ____
ROOT
ATOM      1  C   UNL     1       5.415   4.596  16.024  0.00  0.00    +0.000 C 
ATOM      2  O   UNL     1       5.174   6.000  15.788  0.00  0.00    +0.000 OA
ATOM      3  C   UNL     1       5.176   6.821  16.973  0.00  0.00    +0.000 C 
ATOM      4  C   UNL     1       6.571   6.748  17.639  0.00  0.00    +0.000 C 
ATOM      5  C   UNL     1       6.984   5.291  17.933  0.00  0.00    +0.000 C 
ATOM      6  C   UNL     1       6.771   4.362  16.724  0.00  0.00    +0.000 C 
ENDROOT
BRANCH   4   7
ATOM      7  O   UNL     1       7.555   7.363  16.779  0.00  0.00    +0.000 OA
ATOM      8  H   UNL     1       8.371   7.493  17.292  0.00  0.00    +0.000 HD
ENDBRANCH   4   7
BRANCH   5   9
ATOM      9  O   UNL     1       6.304   4.759  19.077  0.00  0.00    +0.000 OA
ATOM     10  H   UNL     1       6.968   4.337  19.659  0.00  0.00    +0.000 HD
ENDBRANCH   5   9
BRANCH   6  11
ATOM     11  O   UNL     1       7.828   4.566  15.766  0.00  0.00    +0.000 OA
ATOM     12  H   UNL     1       7.838   5.504  15.519  0.00  0.00    +0.000 HD
ENDBRANCH   6  11
BRANCH   1  13
ATOM     13  C   UNL     1       4.225   3.895  16.701  0.00  0.00    +0.000 C 
BRANCH  13  14
ATOM     14  O   UNL     1       4.665   2.874  17.587  0.00  0.00    +0.000 OA
ATOM     15  H   UNL     1       3.867   2.429  17.923  0.00  0.00    +0.000 HD
ENDBRANCH  13  14
ENDBRANCH   1  13
BRANCH   3  16
ATOM     16  O   UNL     1       4.016   6.578  17.780  0.00  0.00    +0.000 OA
BRANCH  16  17
ATOM     17  N   UNL     1       3.149   7.680  17.812  0.00  0.00    +0.000 NA
ATOM     18  C   UNL     1       2.468   7.654  18.914  0.00  0.00    +0.000 C 
BRANCH  18  19
ATOM     19  C   UNL     1       1.461   8.686  19.216  0.00  0.00    +0.000 A 
ATOM     20  C   UNL     1       1.015   9.519  18.185  0.00  0.00    +0.000 A 
ATOM     21  C   UNL     1       0.102  10.539  18.468  0.00  0.00    +0.000 A 
ATOM     22  C   UNL     1      -0.373  10.705  19.769  0.00  0.00    +0.000 A 
ATOM     23 BR   UNL     1      -1.593  12.096  20.151  0.00  0.00    +0.000 Br
ATOM     24  C   UNL     1       0.050   9.857  20.793  0.00  0.00    +0.000 A 
ATOM     25  C   UNL     1       0.975   8.849  20.518  0.00  0.00    +0.000 A 
ENDBRANCH  18  19
ENDBRANCH  16  17
ENDBRANCH   3  16
TORSDOF 8
ENDMDL
