MODEL 1
REMARK VINA RESULT:      -6.6      0.000      0.000
REMARK  Name = 
REMARK  10 active torsions:
REMARK  status: ('A' for Active; 'I' for Inactive)
REMARK    1  A    between atoms: C_1  and  C_2
REMARK    2  A    between atoms: C_2  and  O_3
REMARK    3  A    between atoms: O_3  and  C_4
REMARK    4  A    between atoms: C_4  and  C_6
REMARK    5  A    between atoms: C_7  and  C_8
REMARK    6  A    between atoms: C_9  and  C_10
REMARK    7  A    between atoms: N_12  and  C_13
REMARK    8  A    between atoms: C_19  and  C_20
REMARK    9  A    between atoms: N_21  and  C_22
REMARK   10  A    between atoms: C_22  and  C_23
REMARK                            x       y       z     vdW  Elec       q    Type
REMARK                         _______ _______ _______ _____ _____    ______ ____
ROOT
ATOM      1  C   UNL     1       3.598   5.350  18.977  0.00  0.00    +0.000 A 
ATOM      2  C   UNL     1       3.528   6.530  18.232  0.00  0.00    +0.000 A 
ATOM      3  C   UNL     1       4.350   6.918  17.041  0.00  0.00    +0.000 C 
ATOM      4  C   UNL     1       2.501   7.373  18.805  0.00  0.00    +0.000 A 
ATOM      5  C   UNL     1       2.042   6.713  19.943  0.00  0.00    +0.000 A 
ATOM      6  C   UNL     1       1.057   7.138  20.985  0.00  0.00    +0.000 C 
ATOM      7  N   UNL     1       2.726   5.510  20.044  0.00  0.00    +0.000 N 
ENDROOT
BRANCH   4   8
ATOM      8  C   UNL     1       2.103   8.703  18.298  0.00  0.00    +0.000 C 
ATOM      9  O   UNL     1       2.206   9.008  17.115  0.00  0.00    +0.000 OA
ATOM     10  N   UNL     1       1.570   9.564  19.236  0.00  0.00    +0.000 N 
ATOM     11  H   UNL     1       1.298   9.157  20.120  0.00  0.00    +0.000 HD
BRANCH  10  12
ATOM     12  C   UNL     1       1.111  10.911  18.903  0.00  0.00    +0.000 C 
ATOM     13  C   UNL     1      -0.342  10.924  18.411  0.00  0.00    +0.000 C 
ATOM     14  C   UNL     1      -1.344  10.627  19.527  0.00  0.00    +0.000 C 
ATOM     15  C   UNL     1      -1.148  11.528  20.743  0.00  0.00    +0.000 C 
ATOM     16  C   UNL     1       0.298  11.535  21.232  0.00  0.00    +0.000 C 
ATOM     17  C   UNL     1       1.272  11.860  20.100  0.00  0.00    +0.000 C 
ENDBRANCH  10  12
ENDBRANCH   4   8
BRANCH   1  18
ATOM     18  C   UNL     1       4.424   4.165  18.768  0.00  0.00    +0.000 C 
ATOM     19  O   UNL     1       4.078   3.148  18.176  0.00  0.00    +0.000 OA
BRANCH  18  20
ATOM     20  O   UNL     1       5.672   4.351  19.285  0.00  0.00    +0.000 OA
BRANCH  20  22
ATOM     21  C   UNL     1       7.646   5.720  18.961  0.00  0.00    +0.000 C 
ATOM     22  C   UNL     1       6.714   4.684  18.358  0.00  0.00    +0.000 C 
ENDBRANCH  20  22
ENDBRANCH  18  20
ENDBRANCH   1  18
BRANCH   7  23
ATOM     23  C   UNL     1       2.495   4.525  21.105  0.00  0.00    +0.000 C 
ATOM     24  C   UNL     1       1.351   3.566  20.810  0.00  0.00    +0.000 C 
ENDBRANCH   7  23
TORSDOF 6
ENDMDL
MODEL 2
REMARK VINA RESULT:      -6.4      0.945      1.749
REMARK  Name = 
REMARK  10 active torsions:
REMARK  status: ('A' for Active; 'I' for Inactive)
REMARK    1  A    between atoms: C_1  and  C_2
REMARK    2  A    between atoms: C_2  and  O_3
REMARK    3  A    between atoms: O_3  and  C_4
REMARK    4  A    between atoms: C_4  and  C_6
REMARK    5  A    between atoms: C_7  and  C_8
REMARK    6  A    between atoms: C_9  and  C_10
REMARK    7  A    between atoms: N_12  and  C_13
REMARK    8  A    between atoms: C_19  and  C_20
REMARK    9  A    between atoms: N_21  and  C_22
REMARK   10  A    between atoms: C_22  and  C_23
REMARK                            x       y       z     vdW  Elec       q    Type
REMARK                         _______ _______ _______ _____ _____    ______ ____
ROOT
ATOM      1  C   UNL     1       3.716   5.384  18.897  0.00  0.00    +0.000 A 
ATOM      2  C   UNL     1       3.596   6.549  18.136  0.00  0.00    +0.000 A 
ATOM      3  C   UNL     1       4.399   6.952  16.937  0.00  0.00    +0.000 C 
ATOM      4  C   UNL     1       2.539   7.358  18.699  0.00  0.00    +0.000 A 
ATOM      5  C   UNL     1       2.108   6.697  19.848  0.00  0.00    +0.000 A 
ATOM      6  C   UNL     1       1.110   7.097  20.887  0.00  0.00    +0.000 C 
ATOM      7  N   UNL     1       2.840   5.524  19.965  0.00  0.00    +0.000 N 
ENDROOT
BRANCH   4   8
ATOM      8  C   UNL     1       2.087   8.665  18.175  0.00  0.00    +0.000 C 
ATOM      9  O   UNL     1       2.436   9.083  17.076  0.00  0.00    +0.000 OA
ATOM     10  N   UNL     1       1.214   9.363  18.984  0.00  0.00    +0.000 N 
ATOM     11  H   UNL     1       0.793   8.848  19.746  0.00  0.00    +0.000 HD
BRANCH  10  12
ATOM     12  C   UNL     1       0.658  10.663  18.613  0.00  0.00    +0.000 C 
ATOM     13  C   UNL     1      -0.811  10.806  19.030  0.00  0.00    +0.000 C 
ATOM     14  C   UNL     1      -0.985  10.925  20.545  0.00  0.00    +0.000 C 
ATOM     15  C   UNL     1      -0.112  12.024  21.148  0.00  0.00    +0.000 C 
ATOM     16  C   UNL     1       1.349  11.900  20.727  0.00  0.00    +0.000 C 
ATOM     17  C   UNL     1       1.490  11.809  19.208  0.00  0.00    +0.000 C 
ENDBRANCH  10  12
ENDBRANCH   4   8
BRANCH   1  18
ATOM     18  C   UNL     1       4.587   4.230  18.703  0.00  0.00    +0.000 C 
ATOM     19  O   UNL     1       5.500   3.890  19.449  0.00  0.00    +0.000 OA
BRANCH  18  20
ATOM     20  O   UNL     1       4.223   3.534  17.588  0.00  0.00    +0.000 OA
BRANCH  20  22
ATOM     21  C   UNL     1       3.426   1.442  18.516  0.00  0.00    +0.000 C 
ATOM     22  C   UNL     1       3.080   2.678  17.704  0.00  0.00    +0.000 C 
ENDBRANCH  20  22
ENDBRANCH  18  20
ENDBRANCH   1  18
BRANCH   7  23
ATOM     23  C   UNL     1       2.651   4.546  21.039  0.00  0.00    +0.000 C 
ATOM     24  C   UNL     1       1.446   3.640  20.836  0.00  0.00    +0.000 C 
ENDBRANCH   7  23
TORSDOF 6
ENDMDL
MODEL 3
REMARK VINA RESULT:      -6.3      1.594      3.502
REMARK  Name = 
REMARK  10 active torsions:
REMARK  status: ('A' for Active; 'I' for Inactive)
REMARK    1  A    between atoms: C_1  and  C_2
REMARK    2  A    between atoms: C_2  and  O_3
REMARK    3  A    between atoms: O_3  and  C_4
REMARK    4  A    between atoms: C_4  and  C_6
REMARK    5  A    between atoms: C_7  and  C_8
REMARK    6  A    between atoms: C_9  and  C_10
REMARK    7  A    between atoms: N_12  and  C_13
REMARK    8  A    between atoms: C_19  and  C_20
REMARK    9  A    between atoms: N_21  and  C_22
REMARK   10  A    between atoms: C_22  and  C_23
REMARK                            x       y       z     vdW  Elec       q    Type
REMARK                         _______ _______ _______ _____ _____    ______ ____
ROOT
ATOM      1  C   UNL     1       3.657   5.153  18.975  0.00  0.00    +0.000 A 
ATOM      2  C   UNL     1       2.744   5.596  19.935  0.00  0.00    +0.000 A 
ATOM      3  C   UNL     1       2.200   4.838  21.107  0.00  0.00    +0.000 C 
ATOM      4  C   UNL     1       2.372   6.957  19.620  0.00  0.00    +0.000 A 
ATOM      5  C   UNL     1       3.005   7.269  18.418  0.00  0.00    +0.000 A 
ATOM      6  C   UNL     1       2.921   8.491  17.561  0.00  0.00    +0.000 C 
ATOM      7  N   UNL     1       3.756   6.168  18.033  0.00  0.00    +0.000 N 
ENDROOT
BRANCH   4   8
ATOM      8  C   UNL     1       1.438   7.793  20.404  0.00  0.00    +0.000 C 
ATOM      9  O   UNL     1       0.825   7.356  21.371  0.00  0.00    +0.000 OA
ATOM     10  N   UNL     1       1.333   9.109  20.000  0.00  0.00    +0.000 N 
ATOM     11  H   UNL     1       2.041   9.444  19.362  0.00  0.00    +0.000 HD
BRANCH  10  12
ATOM     12  C   UNL     1       0.467  10.076  20.672  0.00  0.00    +0.000 C 
ATOM     13  C   UNL     1       1.078  11.483  20.696  0.00  0.00    +0.000 C 
ATOM     14  C   UNL     1       1.100  12.140  19.315  0.00  0.00    +0.000 C 
ATOM     15  C   UNL     1      -0.270  12.126  18.641  0.00  0.00    +0.000 C 
ATOM     16  C   UNL     1      -0.894  10.734  18.625  0.00  0.00    +0.000 C 
ATOM     17  C   UNL     1      -0.924  10.116  20.022  0.00  0.00    +0.000 C 
ENDBRANCH  10  12
ENDBRANCH   4   8
BRANCH   1  18
ATOM     18  C   UNL     1       4.372   3.884  18.884  0.00  0.00    +0.000 C 
ATOM     19  O   UNL     1       5.416   3.609  19.467  0.00  0.00    +0.000 OA
BRANCH  18  20
ATOM     20  O   UNL     1       3.695   3.007  18.090  0.00  0.00    +0.000 OA
BRANCH  20  22
ATOM     21  C   UNL     1       1.475   2.189  18.616  0.00  0.00    +0.000 C 
ATOM     22  C   UNL     1       2.970   1.961  18.751  0.00  0.00    +0.000 C 
ENDBRANCH  20  22
ENDBRANCH  18  20
ENDBRANCH   1  18
BRANCH   7  23
ATOM     23  C   UNL     1       4.585   6.126  16.826  0.00  0.00    +0.000 C 
ATOM     24  C   UNL     1       6.010   6.611  17.047  0.00  0.00    +0.000 C 
ENDBRANCH   7  23
TORSDOF 6
ENDMDL
MODEL 4
REMARK VINA RESULT:      -6.3      1.798      3.560
REMARK  Name = 
REMARK  10 active torsions:
REMARK  status: ('A' for Active; 'I' for Inactive)
REMARK    1  A    between atoms: C_1  and  C_2
REMARK    2  A    between atoms: C_2  and  O_3
REMARK    3  A    between atoms: O_3  and  C_4
REMARK    4  A    between atoms: C_4  and  C_6
REMARK    5  A    between atoms: C_7  and  C_8
REMARK    6  A    between atoms: C_9  and  C_10
REMARK    7  A    between atoms: N_12  and  C_13
REMARK    8  A    between atoms: C_19  and  C_20
REMARK    9  A    between atoms: N_21  and  C_22
REMARK   10  A    between atoms: C_22  and  C_23
REMARK                            x       y       z     vdW  Elec       q    Type
REMARK                         _______ _______ _______ _____ _____    ______ ____
ROOT
ATOM      1  C   UNL     1       3.773   4.470  19.141  0.00  0.00    +0.000 A 
ATOM      2  C   UNL     1       2.823   5.438  19.476  0.00  0.00    +0.000 A 
ATOM      3  C   UNL     1       1.756   5.358  20.525  0.00  0.00    +0.000 C 
ATOM      4  C   UNL     1       3.019   6.587  18.620  0.00  0.00    +0.000 A 
ATOM      5  C   UNL     1       4.029   6.241  17.724  0.00  0.00    +0.000 A 
ATOM      6  C   UNL     1       4.592   6.985  16.555  0.00  0.00    +0.000 C 
ATOM      7  N   UNL     1       4.456   4.959  18.037  0.00  0.00    +0.000 N 
ENDROOT
BRANCH   4   8
ATOM      8  C   UNL     1       2.228   7.835  18.666  0.00  0.00    +0.000 C 
ATOM      9  O   UNL     1       1.887   8.430  17.649  0.00  0.00    +0.000 OA
ATOM     10  N   UNL     1       1.863   8.264  19.926  0.00  0.00    +0.000 N 
ATOM     11  H   UNL     1       1.972   7.599  20.679  0.00  0.00    +0.000 HD
BRANCH  10  12
ATOM     12  C   UNL     1       1.067   9.469  20.152  0.00  0.00    +0.000 C 
ATOM     13  C   UNL     1      -0.425   9.155  20.321  0.00  0.00    +0.000 C 
ATOM     14  C   UNL     1      -0.733   8.446  21.641  0.00  0.00    +0.000 C 
ATOM     15  C   UNL     1      -0.167   9.190  22.848  0.00  0.00    +0.000 C 
ATOM     16  C   UNL     1       1.313   9.521  22.684  0.00  0.00    +0.000 C 
ATOM     17  C   UNL     1       1.583  10.251  21.369  0.00  0.00    +0.000 C 
ENDBRANCH  10  12
ENDBRANCH   4   8
BRANCH   1  18
ATOM     18  C   UNL     1       4.029   3.168  19.750  0.00  0.00    +0.000 C 
ATOM     19  O   UNL     1       5.128   2.747  20.099  0.00  0.00    +0.000 OA
BRANCH  18  20
ATOM     20  O   UNL     1       2.865   2.482  19.927  0.00  0.00    +0.000 OA
BRANCH  20  22
ATOM     21  C   UNL     1       0.784   2.258  18.704  0.00  0.00    +0.000 C 
ATOM     22  C   UNL     1       2.263   1.915  18.756  0.00  0.00    +0.000 C 
ENDBRANCH  20  22
ENDBRANCH  18  20
ENDBRANCH   1  18
BRANCH   7  23
ATOM     23  C   UNL     1       5.530   4.259  17.328  0.00  0.00    +0.000 C 
ATOM     24  C   UNL     1       6.925   4.636  17.806  0.00  0.00    +0.000 C 
ENDBRANCH   7  23
TORSDOF 6
ENDMDL
MODEL 5
REMARK VINA RESULT:      -6.3      1.954      2.431
REMARK  Name = 
REMARK  10 active torsions:
REMARK  status: ('A' for Active; 'I' for Inactive)
REMARK    1  A    between atoms: C_1  and  C_2
REMARK    2  A    between atoms: C_2  and  O_3
REMARK    3  A    between atoms: O_3  and  C_4
REMARK    4  A    between atoms: C_4  and  C_6
REMARK    5  A    between atoms: C_7  and  C_8
REMARK    6  A    between atoms: C_9  and  C_10
REMARK    7  A    between atoms: N_12  and  C_13
REMARK    8  A    between atoms: C_19  and  C_20
REMARK    9  A    between atoms: N_21  and  C_22
REMARK   10  A    between atoms: C_22  and  C_23
REMARK                            x       y       z     vdW  Elec       q    Type
REMARK                         _______ _______ _______ _____ _____    ______ ____
ROOT
ATOM      1  C   UNL     1       4.620   5.038  18.170  0.00  0.00    +0.000 A 
ATOM      2  C   UNL     1       4.166   6.341  17.953  0.00  0.00    +0.000 A 
ATOM      3  C   UNL     1       4.798   7.409  17.114  0.00  0.00    +0.000 C 
ATOM      4  C   UNL     1       2.939   6.529  18.695  0.00  0.00    +0.000 A 
ATOM      5  C   UNL     1       2.735   5.355  19.419  0.00  0.00    +0.000 A 
ATOM      6  C   UNL     1       1.689   5.001  20.428  0.00  0.00    +0.000 C 
ATOM      7  N   UNL     1       3.764   4.478  19.109  0.00  0.00    +0.000 N 
ENDROOT
BRANCH   4   8
ATOM      8  C   UNL     1       2.132   7.767  18.719  0.00  0.00    +0.000 C 
ATOM      9  O   UNL     1       1.745   8.313  17.691  0.00  0.00    +0.000 OA
ATOM     10  N   UNL     1       1.808   8.245  19.973  0.00  0.00    +0.000 N 
ATOM     11  H   UNL     1       1.956   7.614  20.748  0.00  0.00    +0.000 HD
BRANCH  10  12
ATOM     12  C   UNL     1       1.005   9.448  20.177  0.00  0.00    +0.000 C 
ATOM     13  C   UNL     1      -0.480   9.125  20.390  0.00  0.00    +0.000 C 
ATOM     14  C   UNL     1      -0.750   8.456  21.738  0.00  0.00    +0.000 C 
ATOM     15  C   UNL     1      -0.166   9.244  22.908  0.00  0.00    +0.000 C 
ATOM     16  C   UNL     1       1.306   9.584  22.701  0.00  0.00    +0.000 C 
ATOM     17  C   UNL     1       1.539  10.275  21.357  0.00  0.00    +0.000 C 
ENDBRANCH  10  12
ENDBRANCH   4   8
BRANCH   1  18
ATOM     18  C   UNL     1       5.772   4.346  17.601  0.00  0.00    +0.000 C 
ATOM     19  O   UNL     1       6.904   4.335  18.073  0.00  0.00    +0.000 OA
BRANCH  18  20
ATOM     20  O   UNL     1       5.414   3.660  16.478  0.00  0.00    +0.000 OA
BRANCH  20  22
ATOM     21  C   UNL     1       6.464   4.042  14.327  0.00  0.00    +0.000 C 
ATOM     22  C   UNL     1       5.325   4.412  15.261  0.00  0.00    +0.000 C 
ENDBRANCH  20  22
ENDBRANCH  18  20
ENDBRANCH   1  18
BRANCH   7  23
ATOM     23  C   UNL     1       3.878   3.124  19.657  0.00  0.00    +0.000 C 
ATOM     24  C   UNL     1       3.200   2.061  18.806  0.00  0.00    +0.000 C 
ENDBRANCH   7  23
TORSDOF 6
ENDMDL
MODEL 6
REMARK VINA RESULT:      -6.2      1.717      2.011
REMARK  Name = 
REMARK  10 active torsions:
REMARK  status: ('A' for Active; 'I' for Inactive)
REMARK    1  A    between atoms: C_1  and  C_2
REMARK    2  A    between atoms: C_2  and  O_3
REMARK    3  A    between atoms: O_3  and  C_4
REMARK    4  A    between atoms: C_4  and  C_6
REMARK    5  A    between atoms: C_7  and  C_8
REMARK    6  A    between atoms: C_9  and  C_10
REMARK    7  A    between atoms: N_12  and  C_13
REMARK    8  A    between atoms: C_19  and  C_20
REMARK    9  A    between atoms: N_21  and  C_22
REMARK   10  A    between atoms: C_22  and  C_23
REMARK                            x       y       z     vdW  Elec       q    Type
REMARK                         _______ _______ _______ _____ _____    ______ ____
ROOT
ATOM      1  C   UNL     1       4.264   4.843  17.933  0.00  0.00    +0.000 A 
ATOM      2  C   UNL     1       3.957   6.202  17.832  0.00  0.00    +0.000 A 
ATOM      3  C   UNL     1       4.743   7.275  17.143  0.00  0.00    +0.000 C 
ATOM      4  C   UNL     1       2.712   6.443  18.526  0.00  0.00    +0.000 A 
ATOM      5  C   UNL     1       2.347   5.231  19.110  0.00  0.00    +0.000 A 
ATOM      6  C   UNL     1       1.212   4.890  20.022  0.00  0.00    +0.000 C 
ATOM      7  N   UNL     1       3.301   4.285  18.762  0.00  0.00    +0.000 N 
ENDROOT
BRANCH   4   8
ATOM      8  C   UNL     1       2.032   7.751  18.639  0.00  0.00    +0.000 C 
ATOM      9  O   UNL     1       1.694   8.398  17.654  0.00  0.00    +0.000 OA
ATOM     10  N   UNL     1       1.767   8.176  19.925  0.00  0.00    +0.000 N 
ATOM     11  H   UNL     1       1.855   7.485  20.657  0.00  0.00    +0.000 HD
BRANCH  10  12
ATOM     12  C   UNL     1       1.089   9.437  20.217  0.00  0.00    +0.000 C 
ATOM     13  C   UNL     1      -0.417   9.247  20.442  0.00  0.00    +0.000 C 
ATOM     14  C   UNL     1      -0.731   8.528  21.754  0.00  0.00    +0.000 C 
ATOM     15  C   UNL     1      -0.055   9.183  22.956  0.00  0.00    +0.000 C 
ATOM     16  C   UNL     1       1.441   9.391  22.737  0.00  0.00    +0.000 C 
ATOM     17  C   UNL     1       1.719  10.135  21.432  0.00  0.00    +0.000 C 
ENDBRANCH  10  12
ENDBRANCH   4   8
BRANCH   1  18
ATOM     18  C   UNL     1       5.374   4.093  17.352  0.00  0.00    +0.000 C 
ATOM     19  O   UNL     1       5.386   3.584  16.236  0.00  0.00    +0.000 OA
BRANCH  18  20
ATOM     20  O   UNL     1       6.436   4.068  18.206  0.00  0.00    +0.000 OA
BRANCH  20  22
ATOM     21  C   UNL     1       7.840   5.801  19.156  0.00  0.00    +0.000 C 
ATOM     22  C   UNL     1       7.514   4.971  17.926  0.00  0.00    +0.000 C 
ENDBRANCH  20  22
ENDBRANCH  18  20
ENDBRANCH   1  18
BRANCH   7  23
ATOM     23  C   UNL     1       3.245   2.879  19.169  0.00  0.00    +0.000 C 
ATOM     24  C   UNL     1       4.126   2.555  20.367  0.00  0.00    +0.000 C 
ENDBRANCH   7  23
TORSDOF 6
ENDMDL
MODEL 7
REMARK VINA RESULT:      -6.1      2.658      7.729
REMARK  Name = 
REMARK  10 active torsions:
REMARK  status: ('A' for Active; 'I' for Inactive)
REMARK    1  A    between atoms: C_1  and  C_2
REMARK    2  A    between atoms: C_2  and  O_3
REMARK    3  A    between atoms: O_3  and  C_4
REMARK    4  A    between atoms: C_4  and  C_6
REMARK    5  A    between atoms: C_7  and  C_8
REMARK    6  A    between atoms: C_9  and  C_10
REMARK    7  A    between atoms: N_12  and  C_13
REMARK    8  A    between atoms: C_19  and  C_20
REMARK    9  A    between atoms: N_21  and  C_22
REMARK   10  A    between atoms: C_22  and  C_23
REMARK                            x       y       z     vdW  Elec       q    Type
REMARK                         _______ _______ _______ _____ _____    ______ ____
ROOT
ATOM      1  C   UNL     1       0.489  11.011  20.741  0.00  0.00    +0.000 A 
ATOM      2  C   UNL     1       0.688   9.766  21.344  0.00  0.00    +0.000 A 
ATOM      3  C   UNL     1       0.478   9.394  22.780  0.00  0.00    +0.000 C 
ATOM      4  C   UNL     1       1.157   8.840  20.337  0.00  0.00    +0.000 A 
ATOM      5  C   UNL     1       1.317   9.579  19.167  0.00  0.00    +0.000 A 
ATOM      6  C   UNL     1       1.859   9.185  17.831  0.00  0.00    +0.000 C 
ATOM      7  N   UNL     1       0.931  10.886  19.432  0.00  0.00    +0.000 N 
ENDROOT
BRANCH   4   8
ATOM      8  C   UNL     1       1.470   7.413  20.565  0.00  0.00    +0.000 C 
ATOM      9  O   UNL     1       0.757   6.689  21.251  0.00  0.00    +0.000 OA
ATOM     10  N   UNL     1       2.595   6.939  19.921  0.00  0.00    +0.000 N 
ATOM     11  H   UNL     1       2.980   7.526  19.194  0.00  0.00    +0.000 HD
BRANCH  10  12
ATOM     12  C   UNL     1       3.040   5.551  20.025  0.00  0.00    +0.000 C 
ATOM     13  C   UNL     1       2.063   4.577  19.353  0.00  0.00    +0.000 C 
ATOM     14  C   UNL     1       2.074   4.691  17.828  0.00  0.00    +0.000 C 
ATOM     15  C   UNL     1       3.480   4.580  17.243  0.00  0.00    +0.000 C 
ATOM     16  C   UNL     1       4.463   5.534  17.915  0.00  0.00    +0.000 C 
ATOM     17  C   UNL     1       4.448   5.377  19.435  0.00  0.00    +0.000 C 
ENDBRANCH  10  12
ENDBRANCH   4   8
BRANCH   1  18
ATOM     18  C   UNL     1      -0.033  12.248  21.312  0.00  0.00    +0.000 C 
ATOM     19  O   UNL     1       0.634  13.115  21.869  0.00  0.00    +0.000 OA
BRANCH  18  20
ATOM     20  O   UNL     1      -1.377  12.345  21.105  0.00  0.00    +0.000 OA
BRANCH  20  22
ATOM     21  C   UNL     1      -2.518  12.102  23.230  0.00  0.00    +0.000 C 
ATOM     22  C   UNL     1      -2.137  13.043  22.101  0.00  0.00    +0.000 C 
ENDBRANCH  20  22
ENDBRANCH  18  20
ENDBRANCH   1  18
BRANCH   7  23
ATOM     23  C   UNL     1       0.936  11.958  18.434  0.00  0.00    +0.000 C 
ATOM     24  C   UNL     1       2.207  12.794  18.441  0.00  0.00    +0.000 C 
ENDBRANCH   7  23
TORSDOF 6
ENDMDL
MODEL 8
REMARK VINA RESULT:      -6.0      2.344      7.070
REMARK  Name = 
REMARK  10 active torsions:
REMARK  status: ('A' for Active; 'I' for Inactive)
REMARK    1  A    between atoms: C_1  and  C_2
REMARK    2  A    between atoms: C_2  and  O_3
REMARK    3  A    between atoms: O_3  and  C_4
REMARK    4  A    between atoms: C_4  and  C_6
REMARK    5  A    between atoms: C_7  and  C_8
REMARK    6  A    between atoms: C_9  and  C_10
REMARK    7  A    between atoms: N_12  and  C_13
REMARK    8  A    between atoms: C_19  and  C_20
REMARK    9  A    between atoms: N_21  and  C_22
REMARK   10  A    between atoms: C_22  and  C_23
REMARK                            x       y       z     vdW  Elec       q    Type
REMARK                         _______ _______ _______ _____ _____    ______ ____
ROOT
ATOM      1  C   UNL     1       1.394   8.540  20.828  0.00  0.00    +0.000 A 
ATOM      2  C   UNL     1       1.854   7.290  20.409  0.00  0.00    +0.000 A 
ATOM      3  C   UNL     1       2.094   6.069  21.244  0.00  0.00    +0.000 C 
ATOM      4  C   UNL     1       2.087   7.342  18.982  0.00  0.00    +0.000 A 
ATOM      5  C   UNL     1       1.847   8.658  18.593  0.00  0.00    +0.000 A 
ATOM      6  C   UNL     1       2.014   9.328  17.267  0.00  0.00    +0.000 C 
ATOM      7  N   UNL     1       1.452   9.370  19.717  0.00  0.00    +0.000 N 
ENDROOT
BRANCH   4   8
ATOM      8  C   UNL     1       2.564   6.216  18.150  0.00  0.00    +0.000 C 
ATOM      9  O   UNL     1       1.830   5.291  17.821  0.00  0.00    +0.000 OA
ATOM     10  N   UNL     1       3.877   6.297  17.734  0.00  0.00    +0.000 N 
ATOM     11  H   UNL     1       4.331   7.193  17.842  0.00  0.00    +0.000 HD
BRANCH  10  12
ATOM     12  C   UNL     1       4.505   5.279  16.894  0.00  0.00    +0.000 C 
ATOM     13  C   UNL     1       5.612   5.862  16.006  0.00  0.00    +0.000 C 
ATOM     14  C   UNL     1       6.850   6.274  16.802  0.00  0.00    +0.000 C 
ATOM     15  C   UNL     1       7.370   5.151  17.696  0.00  0.00    +0.000 C 
ATOM     16  C   UNL     1       6.274   4.553  18.573  0.00  0.00    +0.000 C 
ATOM     17  C   UNL     1       5.062   4.128  17.745  0.00  0.00    +0.000 C 
ENDBRANCH  10  12
ENDBRANCH   4   8
BRANCH   1  18
ATOM     18  C   UNL     1       0.962   8.978  22.151  0.00  0.00    +0.000 C 
ATOM     19  O   UNL     1       1.703   9.276  23.082  0.00  0.00    +0.000 OA
BRANCH  18  20
ATOM     20  O   UNL     1      -0.398   9.060  22.211  0.00  0.00    +0.000 OA
BRANCH  20  22
ATOM     21  C   UNL     1      -1.045  11.333  22.748  0.00  0.00    +0.000 C 
ATOM     22  C   UNL     1      -0.952   9.898  23.234  0.00  0.00    +0.000 C 
ENDBRANCH  20  22
ENDBRANCH  18  20
ENDBRANCH   1  18
BRANCH   7  23
ATOM     23  C   UNL     1       1.086  10.789  19.699  0.00  0.00    +0.000 C 
ATOM     24  C   UNL     1      -0.344  11.045  19.246  0.00  0.00    +0.000 C 
ENDBRANCH   7  23
TORSDOF 6
ENDMDL
MODEL 9
REMARK VINA RESULT:      -6.0      2.148      7.043
REMARK  Name = 
REMARK  10 active torsions:
REMARK  status: ('A' for Active; 'I' for Inactive)
REMARK    1  A    between atoms: C_1  and  C_2
REMARK    2  A    between atoms: C_2  and  O_3
REMARK    3  A    between atoms: O_3  and  C_4
REMARK    4  A    between atoms: C_4  and  C_6
REMARK    5  A    between atoms: C_7  and  C_8
REMARK    6  A    between atoms: C_9  and  C_10
REMARK    7  A    between atoms: N_12  and  C_13
REMARK    8  A    between atoms: C_19  and  C_20
REMARK    9  A    between atoms: N_21  and  C_22
REMARK   10  A    between atoms: C_22  and  C_23
REMARK                            x       y       z     vdW  Elec       q    Type
REMARK                         _______ _______ _______ _____ _____    ______ ____
ROOT
ATOM      1  C   UNL     1       0.868   9.548  19.795  0.00  0.00    +0.000 A 
ATOM      2  C   UNL     1       1.695   9.086  18.768  0.00  0.00    +0.000 A 
ATOM      3  C   UNL     1       2.070   9.791  17.500  0.00  0.00    +0.000 C 
ATOM      4  C   UNL     1       2.158   7.760  19.113  0.00  0.00    +0.000 A 
ATOM      5  C   UNL     1       1.519   7.419  20.303  0.00  0.00    +0.000 A 
ATOM      6  C   UNL     1       1.531   6.145  21.086  0.00  0.00    +0.000 C 
ATOM      7  N   UNL     1       0.731   8.495  20.689  0.00  0.00    +0.000 N 
ENDROOT
BRANCH   4   8
ATOM      8  C   UNL     1       3.068   6.930  18.295  0.00  0.00    +0.000 C 
ATOM      9  O   UNL     1       4.056   7.399  17.739  0.00  0.00    +0.000 OA
ATOM     10  N   UNL     1       2.757   5.587  18.234  0.00  0.00    +0.000 N 
ATOM     11  H   UNL     1       2.082   5.248  18.906  0.00  0.00    +0.000 HD
BRANCH  10  12
ATOM     12  C   UNL     1       3.559   4.623  17.483  0.00  0.00    +0.000 C 
ATOM     13  C   UNL     1       4.764   4.120  18.288  0.00  0.00    +0.000 C 
ATOM     14  C   UNL     1       4.358   3.205  19.445  0.00  0.00    +0.000 C 
ATOM     15  C   UNL     1       3.456   2.059  18.995  0.00  0.00    +0.000 C 
ATOM     16  C   UNL     1       2.262   2.547  18.180  0.00  0.00    +0.000 C 
ATOM     17  C   UNL     1       2.702   3.436  17.017  0.00  0.00    +0.000 C 
ENDBRANCH  10  12
ENDBRANCH   4   8
BRANCH   1  18
ATOM     18  C   UNL     1       0.209  10.840  19.950  0.00  0.00    +0.000 C 
ATOM     19  O   UNL     1       0.741  11.870  20.354  0.00  0.00    +0.000 OA
BRANCH  18  20
ATOM     20  O   UNL     1      -1.089  10.772  19.537  0.00  0.00    +0.000 OA
BRANCH  20  22
ATOM     21  C   UNL     1      -2.045  11.104  17.335  0.00  0.00    +0.000 C 
ATOM     22  C   UNL     1      -1.523  11.765  18.599  0.00  0.00    +0.000 C 
ENDBRANCH  20  22
ENDBRANCH  18  20
ENDBRANCH   1  18
BRANCH   7  23
ATOM     23  C   UNL     1      -0.076   8.521  21.911  0.00  0.00    +0.000 C 
ATOM     24  C   UNL     1       0.512   9.391  23.013  0.00  0.00    +0.000 C 
ENDBRANCH   7  23
TORSDOF 6
ENDMDL
