MODEL 1
REMARK VINA RESULT:      -7.4      0.000      0.000
REMARK  Name = 
REMARK  5 active torsions:
REMARK  status: ('A' for Active; 'I' for Inactive)
REMARK    1  A    between atoms: C_1  and  C_2
REMARK    2  A    between atoms: C_2  and  C_3
REMARK    3  A    between atoms: N_6  and  C_7
REMARK    4  A    between atoms: C_7  and  C_8
REMARK    5  A    between atoms: C_17  and  C_18
REMARK                            x       y       z     vdW  Elec       q    Type
REMARK                         _______ _______ _______ _____ _____    ______ ____
ROOT
ATOM      1  C   UNL     1       2.911   3.143  20.845  0.00  0.00    +0.000 C 
ATOM      2  C   UNL     1       2.402   4.167  19.812  0.00  0.00    +0.000 C 
ATOM      3  C   UNL     1       1.090   3.604  19.225  0.00  0.00    +0.000 C 
ATOM      4  N   UNL     1       2.035   5.388  20.589  0.00  0.00    +0.000 NA
ATOM      5  C   UNL     1       2.291   6.463  19.932  0.00  0.00    +0.000 C 
ATOM      6  N   UNL     1       2.088   7.746  20.310  0.00  0.00    +0.000 N 
ATOM      7  S   UNL     1       3.020   6.293  18.365  0.00  0.00    +0.000 S 
ATOM      8  C   UNL     1       3.481   4.554  18.729  0.00  0.00    +0.000 C 
ATOM      9  C   UNL     1       3.423   3.737  17.420  0.00  0.00    +0.000 C 
ATOM     10  C   UNL     1       4.475   4.153  16.383  0.00  0.00    +0.000 C 
ATOM     11  C   UNL     1       5.897   4.129  16.954  0.00  0.00    +0.000 C 
ATOM     12  C   UNL     1       6.900   4.659  15.929  0.00  0.00    +0.000 C 
ATOM     13  C   UNL     1       5.999   4.932  18.254  0.00  0.00    +0.000 C 
ATOM     14  C   UNL     1       4.931   4.522  19.272  0.00  0.00    +0.000 C 
ATOM     15  H   UNL     1       2.211   8.423  19.565  0.00  0.00    +0.000 HD
ENDROOT
BRANCH   6  16
ATOM     16  C   UNL     1       1.096   8.128  21.290  0.00  0.00    +0.000 C 
BRANCH  16  17
ATOM     17  C   UNL     1       0.461   9.450  21.026  0.00  0.00    +0.000 A 
ATOM     18  C   UNL     1      -0.360   9.927  20.024  0.00  0.00    +0.000 A 
ATOM     19  C   UNL     1      -0.656  11.273  20.352  0.00  0.00    +0.000 A 
ATOM     20  C   UNL     1       0.018  11.539  21.523  0.00  0.00    +0.000 A 
ATOM     21  O   UNL     1       0.701  10.440  21.937  0.00  0.00    +0.000 OA
ENDBRANCH  16  17
ENDBRANCH   6  16
TORSDOF 2
ENDMDL
MODEL 2
REMARK VINA RESULT:      -7.0      1.198      1.381
REMARK  Name = 
REMARK  5 active torsions:
REMARK  status: ('A' for Active; 'I' for Inactive)
REMARK    1  A    between atoms: C_1  and  C_2
REMARK    2  A    between atoms: C_2  and  C_3
REMARK    3  A    between atoms: N_6  and  C_7
REMARK    4  A    between atoms: C_7  and  C_8
REMARK    5  A    between atoms: C_17  and  C_18
REMARK                            x       y       z     vdW  Elec       q    Type
REMARK                         _______ _______ _______ _____ _____    ______ ____
ROOT
ATOM      1  C   UNL     1       4.286   2.583  20.196  0.00  0.00    +0.000 C 
ATOM      2  C   UNL     1       3.471   3.506  19.270  0.00  0.00    +0.000 C 
ATOM      3  C   UNL     1       2.259   2.690  18.771  0.00  0.00    +0.000 C 
ATOM      4  N   UNL     1       2.928   4.589  20.143  0.00  0.00    +0.000 NA
ATOM      5  C   UNL     1       2.883   5.716  19.526  0.00  0.00    +0.000 C 
ATOM      6  N   UNL     1       2.447   6.910  19.990  0.00  0.00    +0.000 N 
ATOM      7  S   UNL     1       3.475   5.764  17.894  0.00  0.00    +0.000 S 
ATOM      8  C   UNL     1       4.331   4.156  18.119  0.00  0.00    +0.000 C 
ATOM      9  C   UNL     1       4.321   3.391  16.778  0.00  0.00    +0.000 C 
ATOM     10  C   UNL     1       5.154   4.064  15.677  0.00  0.00    +0.000 C 
ATOM     11  C   UNL     1       6.596   4.331  16.118  0.00  0.00    +0.000 C 
ATOM     12  C   UNL     1       7.357   5.103  15.040  0.00  0.00    +0.000 C 
ATOM     13  C   UNL     1       6.650   5.092  17.447  0.00  0.00    +0.000 C 
ATOM     14  C   UNL     1       5.800   4.424  18.531  0.00  0.00    +0.000 C 
ATOM     15  H   UNL     1       2.349   7.623  19.276  0.00  0.00    +0.000 HD
ENDROOT
BRANCH   6  16
ATOM     16  C   UNL     1       1.497   7.032  21.073  0.00  0.00    +0.000 C 
BRANCH  16  17
ATOM     17  C   UNL     1       0.883   8.385  21.192  0.00  0.00    +0.000 A 
ATOM     18  C   UNL     1       0.076   8.981  22.140  0.00  0.00    +0.000 A 
ATOM     19  C   UNL     1      -0.153  10.307  21.697  0.00  0.00    +0.000 A 
ATOM     20  C   UNL     1       0.512  10.431  20.498  0.00  0.00    +0.000 A 
ATOM     21  O   UNL     1       1.141   9.268  20.183  0.00  0.00    +0.000 OA
ENDBRANCH  16  17
ENDBRANCH   6  16
TORSDOF 2
ENDMDL
MODEL 3
REMARK VINA RESULT:      -6.6      3.471      7.196
REMARK  Name = 
REMARK  5 active torsions:
REMARK  status: ('A' for Active; 'I' for Inactive)
REMARK    1  A    between atoms: C_1  and  C_2
REMARK    2  A    between atoms: C_2  and  C_3
REMARK    3  A    between atoms: N_6  and  C_7
REMARK    4  A    between atoms: C_7  and  C_8
REMARK    5  A    between atoms: C_17  and  C_18
REMARK                            x       y       z     vdW  Elec       q    Type
REMARK                         _______ _______ _______ _____ _____    ______ ____
ROOT
ATOM      1  C   UNL     1       2.282   3.288  17.171  0.00  0.00    +0.000 C 
ATOM      2  C   UNL     1       3.392   3.619  18.187  0.00  0.00    +0.000 C 
ATOM      3  C   UNL     1       3.613   2.354  19.044  0.00  0.00    +0.000 C 
ATOM      4  N   UNL     1       4.637   3.818  17.387  0.00  0.00    +0.000 NA
ATOM      5  C   UNL     1       5.385   4.732  17.894  0.00  0.00    +0.000 C 
ATOM      6  N   UNL     1       6.584   5.177  17.451  0.00  0.00    +0.000 N 
ATOM      7  S   UNL     1       4.808   5.547  19.316  0.00  0.00    +0.000 S 
ATOM      8  C   UNL     1       3.106   4.924  19.024  0.00  0.00    +0.000 C 
ATOM      9  C   UNL     1       2.417   4.695  20.387  0.00  0.00    +0.000 C 
ATOM     10  C   UNL     1       2.172   5.986  21.181  0.00  0.00    +0.000 C 
ATOM     11  C   UNL     1       1.397   7.030  20.371  0.00  0.00    +0.000 C 
ATOM     12  C   UNL     1       1.274   8.339  21.152  0.00  0.00    +0.000 C 
ATOM     13  C   UNL     1       2.050   7.289  19.009  0.00  0.00    +0.000 C 
ATOM     14  C   UNL     1       2.309   5.993  18.236  0.00  0.00    +0.000 C 
ATOM     15  H   UNL     1       7.067   5.786  18.102  0.00  0.00    +0.000 HD
ENDROOT
BRANCH   6  16
ATOM     16  C   UNL     1       7.466   4.375  16.635  0.00  0.00    +0.000 C 
BRANCH  16  17
ATOM     17  C   UNL     1       7.164   4.433  15.177  0.00  0.00    +0.000 A 
ATOM     18  C   UNL     1       6.259   3.776  14.368  0.00  0.00    +0.000 A 
ATOM     19  C   UNL     1       6.439   4.292  13.060  0.00  0.00    +0.000 A 
ATOM     20  C   UNL     1       7.456   5.216  13.150  0.00  0.00    +0.000 A 
ATOM     21  O   UNL     1       7.903   5.305  14.430  0.00  0.00    +0.000 OA
ENDBRANCH  16  17
ENDBRANCH   6  16
TORSDOF 2
ENDMDL
MODEL 4
REMARK VINA RESULT:      -6.5      4.791      8.575
REMARK  Name = 
REMARK  5 active torsions:
REMARK  status: ('A' for Active; 'I' for Inactive)
REMARK    1  A    between atoms: C_1  and  C_2
REMARK    2  A    between atoms: C_2  and  C_3
REMARK    3  A    between atoms: N_6  and  C_7
REMARK    4  A    between atoms: C_7  and  C_8
REMARK    5  A    between atoms: C_17  and  C_18
REMARK                            x       y       z     vdW  Elec       q    Type
REMARK                         _______ _______ _______ _____ _____    ______ ____
ROOT
ATOM      1  C   UNL     1       7.886   4.823  18.433  0.00  0.00    +0.000 C 
ATOM      2  C   UNL     1       6.810   5.467  17.537  0.00  0.00    +0.000 C 
ATOM      3  C   UNL     1       7.145   6.971  17.440  0.00  0.00    +0.000 C 
ATOM      4  N   UNL     1       7.013   4.894  16.174  0.00  0.00    +0.000 NA
ATOM      5  C   UNL     1       5.896   4.732  15.558  0.00  0.00    +0.000 C 
ATOM      6  N   UNL     1       5.689   4.247  14.311  0.00  0.00    +0.000 N 
ATOM      7  S   UNL     1       4.441   5.150  16.407  0.00  0.00    +0.000 S 
ATOM      8  C   UNL     1       5.337   5.162  18.009  0.00  0.00    +0.000 C 
ATOM      9  C   UNL     1       4.704   6.229  18.928  0.00  0.00    +0.000 C 
ATOM     10  C   UNL     1       3.264   5.906  19.351  0.00  0.00    +0.000 C 
ATOM     11  C   UNL     1       3.142   4.521  19.995  0.00  0.00    +0.000 C 
ATOM     12  C   UNL     1       1.680   4.192  20.295  0.00  0.00    +0.000 C 
ATOM     13  C   UNL     1       3.757   3.430  19.111  0.00  0.00    +0.000 C 
ATOM     14  C   UNL     1       5.185   3.773  18.679  0.00  0.00    +0.000 C 
ATOM     15  H   UNL     1       4.740   4.365  13.972  0.00  0.00    +0.000 HD
ENDROOT
BRANCH   6  16
ATOM     16  C   UNL     1       6.692   4.297  13.272  0.00  0.00    +0.000 C 
BRANCH  16  17
ATOM     17  C   UNL     1       6.611   3.174  12.296  0.00  0.00    +0.000 A 
ATOM     18  C   UNL     1       7.546   2.524  11.517  0.00  0.00    +0.000 A 
ATOM     19  C   UNL     1       6.850   1.510  10.812  0.00  0.00    +0.000 A 
ATOM     20  C   UNL     1       5.531   1.618  11.192  0.00  0.00    +0.000 A 
ATOM     21  O   UNL     1       5.377   2.627  12.089  0.00  0.00    +0.000 OA
ENDBRANCH  16  17
ENDBRANCH   6  16
TORSDOF 2
ENDMDL
MODEL 5
REMARK VINA RESULT:      -6.5      4.516      8.028
REMARK  Name = 
REMARK  5 active torsions:
REMARK  status: ('A' for Active; 'I' for Inactive)
REMARK    1  A    between atoms: C_1  and  C_2
REMARK    2  A    between atoms: C_2  and  C_3
REMARK    3  A    between atoms: N_6  and  C_7
REMARK    4  A    between atoms: C_7  and  C_8
REMARK    5  A    between atoms: C_17  and  C_18
REMARK                            x       y       z     vdW  Elec       q    Type
REMARK                         _______ _______ _______ _____ _____    ______ ____
ROOT
ATOM      1  C   UNL     1       7.037   5.487  19.205  0.00  0.00    +0.000 C 
ATOM      2  C   UNL     1       5.844   5.646  18.243  0.00  0.00    +0.000 C 
ATOM      3  C   UNL     1       5.678   7.157  17.974  0.00  0.00    +0.000 C 
ATOM      4  N   UNL     1       6.269   5.025  16.954  0.00  0.00    +0.000 NA
ATOM      5  C   UNL     1       5.286   4.444  16.362  0.00  0.00    +0.000 C 
ATOM      6  N   UNL     1       5.290   3.785  15.179  0.00  0.00    +0.000 N 
ATOM      7  S   UNL     1       3.745   4.456  17.161  0.00  0.00    +0.000 S 
ATOM      8  C   UNL     1       4.532   4.932  18.749  0.00  0.00    +0.000 C 
ATOM      9  C   UNL     1       3.557   5.830  19.542  0.00  0.00    +0.000 C 
ATOM     10  C   UNL     1       2.284   5.105  20.002  0.00  0.00    +0.000 C 
ATOM     11  C   UNL     1       2.593   3.834  20.800  0.00  0.00    +0.000 C 
ATOM     12  C   UNL     1       1.306   3.082  21.139  0.00  0.00    +0.000 C 
ATOM     13  C   UNL     1       3.557   2.912  20.045  0.00  0.00    +0.000 C 
ATOM     14  C   UNL     1       4.813   3.651  19.574  0.00  0.00    +0.000 C 
ATOM     15  H   UNL     1       4.367   3.552  14.831  0.00  0.00    +0.000 HD
ENDROOT
BRANCH   6  16
ATOM     16  C   UNL     1       6.259   4.045  14.139  0.00  0.00    +0.000 C 
BRANCH  16  17
ATOM     17  C   UNL     1       5.949   3.382  12.841  0.00  0.00    +0.000 A 
ATOM     18  C   UNL     1       6.685   2.602  11.974  0.00  0.00    +0.000 A 
ATOM     19  C   UNL     1       5.814   2.246  10.914  0.00  0.00    +0.000 A 
ATOM     20  C   UNL     1       4.607   2.847  11.192  0.00  0.00    +0.000 A 
ATOM     21  O   UNL     1       4.682   3.541  12.358  0.00  0.00    +0.000 OA
ENDBRANCH  16  17
ENDBRANCH   6  16
TORSDOF 2
ENDMDL
MODEL 6
REMARK VINA RESULT:      -6.4      3.241      7.143
REMARK  Name = 
REMARK  5 active torsions:
REMARK  status: ('A' for Active; 'I' for Inactive)
REMARK    1  A    between atoms: C_1  and  C_2
REMARK    2  A    between atoms: C_2  and  C_3
REMARK    3  A    between atoms: N_6  and  C_7
REMARK    4  A    between atoms: C_7  and  C_8
REMARK    5  A    between atoms: C_17  and  C_18
REMARK                            x       y       z     vdW  Elec       q    Type
REMARK                         _______ _______ _______ _____ _____    ______ ____
ROOT
ATOM      1  C   UNL     1       1.688   4.111  17.444  0.00  0.00    +0.000 C 
ATOM      2  C   UNL     1       2.792   4.517  18.439  0.00  0.00    +0.000 C 
ATOM      3  C   UNL     1       2.839   3.429  19.533  0.00  0.00    +0.000 C 
ATOM      4  N   UNL     1       4.078   4.424  17.687  0.00  0.00    +0.000 NA
ATOM      5  C   UNL     1       4.907   5.337  18.051  0.00  0.00    +0.000 C 
ATOM      6  N   UNL     1       6.164   5.558  17.598  0.00  0.00    +0.000 N 
ATOM      7  S   UNL     1       4.378   6.470  19.255  0.00  0.00    +0.000 S 
ATOM      8  C   UNL     1       2.627   5.984  18.994  0.00  0.00    +0.000 C 
ATOM      9  C   UNL     1       1.870   6.100  20.335  0.00  0.00    +0.000 C 
ATOM     10  C   UNL     1       1.746   7.541  20.852  0.00  0.00    +0.000 C 
ATOM     11  C   UNL     1       1.123   8.481  19.815  0.00  0.00    +0.000 C 
ATOM     12  C   UNL     1       1.123   9.922  20.323  0.00  0.00    +0.000 C 
ATOM     13  C   UNL     1       1.848   8.398  18.467  0.00  0.00    +0.000 C 
ATOM     14  C   UNL     1       1.985   6.955  17.972  0.00  0.00    +0.000 C 
ATOM     15  H   UNL     1       6.690   6.229  18.147  0.00  0.00    +0.000 HD
ENDROOT
BRANCH   6  16
ATOM     16  C   UNL     1       6.977   4.524  17.001  0.00  0.00    +0.000 C 
BRANCH  16  17
ATOM     17  C   UNL     1       6.858   4.438  15.518  0.00  0.00    +0.000 A 
ATOM     18  C   UNL     1       6.043   3.712  14.672  0.00  0.00    +0.000 A 
ATOM     19  C   UNL     1       6.395   4.092  13.353  0.00  0.00    +0.000 A 
ATOM     20  C   UNL     1       7.414   5.010  13.476  0.00  0.00    +0.000 A 
ATOM     21  O   UNL     1       7.703   5.222  14.787  0.00  0.00    +0.000 OA
ENDBRANCH  16  17
ENDBRANCH   6  16
TORSDOF 2
ENDMDL
MODEL 7
REMARK VINA RESULT:      -6.3      4.466      6.446
REMARK  Name = 
REMARK  5 active torsions:
REMARK  status: ('A' for Active; 'I' for Inactive)
REMARK    1  A    between atoms: C_1  and  C_2
REMARK    2  A    between atoms: C_2  and  C_3
REMARK    3  A    between atoms: N_6  and  C_7
REMARK    4  A    between atoms: C_7  and  C_8
REMARK    5  A    between atoms: C_17  and  C_18
REMARK                            x       y       z     vdW  Elec       q    Type
REMARK                         _______ _______ _______ _____ _____    ______ ____
ROOT
ATOM      1  C   UNL     1       5.236   5.373  14.887  0.00  0.00    +0.000 C 
ATOM      2  C   UNL     1       6.011   5.263  16.214  0.00  0.00    +0.000 C 
ATOM      3  C   UNL     1       7.111   4.200  16.008  0.00  0.00    +0.000 C 
ATOM      4  N   UNL     1       6.707   6.572  16.393  0.00  0.00    +0.000 NA
ATOM      5  C   UNL     1       6.762   6.913  17.631  0.00  0.00    +0.000 C 
ATOM      6  N   UNL     1       7.319   8.022  18.172  0.00  0.00    +0.000 N 
ATOM      7  S   UNL     1       6.014   5.858  18.790  0.00  0.00    +0.000 S 
ATOM      8  C   UNL     1       5.083   5.000  17.461  0.00  0.00    +0.000 C 
ATOM      9  C   UNL     1       4.908   3.516  17.851  0.00  0.00    +0.000 C 
ATOM     10  C   UNL     1       4.014   3.301  19.080  0.00  0.00    +0.000 C 
ATOM     11  C   UNL     1       2.643   3.968  18.928  0.00  0.00    +0.000 C 
ATOM     12  C   UNL     1       1.829   3.830  20.215  0.00  0.00    +0.000 C 
ATOM     13  C   UNL     1       2.773   5.446  18.544  0.00  0.00    +0.000 C 
ATOM     14  C   UNL     1       3.683   5.650  17.330  0.00  0.00    +0.000 C 
ATOM     15  H   UNL     1       7.390   7.999  19.184  0.00  0.00    +0.000 HD
ENDROOT
BRANCH   6  16
ATOM     16  C   UNL     1       8.379   8.763  17.527  0.00  0.00    +0.000 C 
BRANCH  16  17
ATOM     17  C   UNL     1       8.812   9.977  18.275  0.00  0.00    +0.000 A 
ATOM     18  C   UNL     1       8.875  11.318  17.953  0.00  0.00    +0.000 A 
ATOM     19  C   UNL     1       9.351  11.987  19.108  0.00  0.00    +0.000 A 
ATOM     20  C   UNL     1       9.567  11.011  20.055  0.00  0.00    +0.000 A 
ATOM     21  O   UNL     1       9.246   9.788  19.556  0.00  0.00    +0.000 OA
ENDBRANCH  16  17
ENDBRANCH   6  16
TORSDOF 2
ENDMDL
MODEL 8
REMARK VINA RESULT:      -6.2      1.529      1.817
REMARK  Name = 
REMARK  5 active torsions:
REMARK  status: ('A' for Active; 'I' for Inactive)
REMARK    1  A    between atoms: C_1  and  C_2
REMARK    2  A    between atoms: C_2  and  C_3
REMARK    3  A    between atoms: N_6  and  C_7
REMARK    4  A    between atoms: C_7  and  C_8
REMARK    5  A    between atoms: C_17  and  C_18
REMARK                            x       y       z     vdW  Elec       q    Type
REMARK                         _______ _______ _______ _____ _____    ______ ____
ROOT
ATOM      1  C   UNL     1       1.963   4.523  19.928  0.00  0.00    +0.000 C 
ATOM      2  C   UNL     1       2.234   5.227  18.584  0.00  0.00    +0.000 C 
ATOM      3  C   UNL     1       1.344   4.540  17.526  0.00  0.00    +0.000 C 
ATOM      4  N   UNL     1       1.720   6.620  18.738  0.00  0.00    +0.000 NA
ATOM      5  C   UNL     1       2.449   7.466  18.102  0.00  0.00    +0.000 C 
ATOM      6  N   UNL     1       2.289   8.808  18.007  0.00  0.00    +0.000 N 
ATOM      7  S   UNL     1       3.845   6.858  17.267  0.00  0.00    +0.000 S 
ATOM      8  C   UNL     1       3.764   5.283  18.204  0.00  0.00    +0.000 C 
ATOM      9  C   UNL     1       4.260   4.135  17.298  0.00  0.00    +0.000 C 
ATOM     10  C   UNL     1       5.748   4.234  16.935  0.00  0.00    +0.000 C 
ATOM     11  C   UNL     1       6.644   4.349  18.172  0.00  0.00    +0.000 C 
ATOM     12  C   UNL     1       8.102   4.561  17.766  0.00  0.00    +0.000 C 
ATOM     13  C   UNL     1       6.186   5.481  19.098  0.00  0.00    +0.000 C 
ATOM     14  C   UNL     1       4.696   5.384  19.437  0.00  0.00    +0.000 C 
ATOM     15  H   UNL     1       2.887   9.249  17.318  0.00  0.00    +0.000 HD
ENDROOT
BRANCH   6  16
ATOM     16  C   UNL     1       1.011   9.460  18.177  0.00  0.00    +0.000 C 
BRANCH  16  17
ATOM     17  C   UNL     1       0.759   9.952  19.561  0.00  0.00    +0.000 A 
ATOM     18  C   UNL     1       0.427   9.326  20.745  0.00  0.00    +0.000 A 
ATOM     19  C   UNL     1       0.354  10.342  21.730  0.00  0.00    +0.000 A 
ATOM     20  C   UNL     1       0.627  11.525  21.082  0.00  0.00    +0.000 A 
ATOM     21  O   UNL     1       0.871  11.298  19.764  0.00  0.00    +0.000 OA
ENDBRANCH  16  17
ENDBRANCH   6  16
TORSDOF 2
ENDMDL
MODEL 9
REMARK VINA RESULT:      -6.1      2.145      3.607
REMARK  Name = 
REMARK  5 active torsions:
REMARK  status: ('A' for Active; 'I' for Inactive)
REMARK    1  A    between atoms: C_1  and  C_2
REMARK    2  A    between atoms: C_2  and  C_3
REMARK    3  A    between atoms: N_6  and  C_7
REMARK    4  A    between atoms: C_7  and  C_8
REMARK    5  A    between atoms: C_17  and  C_18
REMARK                            x       y       z     vdW  Elec       q    Type
REMARK                         _______ _______ _______ _____ _____    ______ ____
ROOT
ATOM      1  C   UNL     1       5.295   6.009  15.630  0.00  0.00    +0.000 C 
ATOM      2  C   UNL     1       4.942   6.317  17.097  0.00  0.00    +0.000 C 
ATOM      3  C   UNL     1       6.229   6.837  17.773  0.00  0.00    +0.000 C 
ATOM      4  N   UNL     1       3.986   7.463  17.059  0.00  0.00    +0.000 NA
ATOM      5  C   UNL     1       3.101   7.373  17.988  0.00  0.00    +0.000 C 
ATOM      6  N   UNL     1       2.086   8.224  18.265  0.00  0.00    +0.000 N 
ATOM      7  S   UNL     1       3.163   5.983  19.026  0.00  0.00    +0.000 S 
ATOM      8  C   UNL     1       4.262   5.106  17.845  0.00  0.00    +0.000 C 
ATOM      9  C   UNL     1       5.226   4.198  18.639  0.00  0.00    +0.000 C 
ATOM     10  C   UNL     1       4.526   3.042  19.368  0.00  0.00    +0.000 C 
ATOM     11  C   UNL     1       3.664   2.196  18.426  0.00  0.00    +0.000 C 
ATOM     12  C   UNL     1       2.896   1.130  19.208  0.00  0.00    +0.000 C 
ATOM     13  C   UNL     1       2.689   3.061  17.620  0.00  0.00    +0.000 C 
ATOM     14  C   UNL     1       3.395   4.222  16.914  0.00  0.00    +0.000 C 
ATOM     15  H   UNL     1       1.617   8.039  19.144  0.00  0.00    +0.000 HD
ENDROOT
BRANCH   6  16
ATOM     16  C   UNL     1       2.111   9.622  17.899  0.00  0.00    +0.000 C 
BRANCH  16  17
ATOM     17  C   UNL     1       0.989  10.420  18.470  0.00  0.00    +0.000 A 
ATOM     18  C   UNL     1      -0.362  10.183  18.624  0.00  0.00    +0.000 A 
ATOM     19  C   UNL     1      -0.899  11.324  19.270  0.00  0.00    +0.000 A 
ATOM     20  C   UNL     1       0.153  12.192  19.453  0.00  0.00    +0.000 A 
ATOM     21  O   UNL     1       1.302  11.652  18.967  0.00  0.00    +0.000 OA
ENDBRANCH  16  17
ENDBRANCH   6  16
TORSDOF 2
ENDMDL
