MODEL 1
REMARK VINA RESULT:      -7.3      0.000      0.000
REMARK  Name = 
REMARK  4 active torsions:
REMARK  status: ('A' for Active; 'I' for Inactive)
REMARK    1  A    between atoms: C_1  and  C_2
REMARK    2  A    between atoms: C_5  and  N_6
REMARK    3  A    between atoms: N_17  and  C_18
REMARK    4  A    between atoms: N_21  and  C_22
REMARK                            x       y       z     vdW  Elec       q    Type
REMARK                         _______ _______ _______ _____ _____    ______ ____
ROOT
ATOM      1  N   UNL     1       3.108   5.984  18.794  0.00  0.00    +0.000 N 
ATOM      2  C   UNL     1       3.159   4.948  19.825  0.00  0.00    +0.000 C 
ATOM      3  C   UNL     1       1.789   4.815  20.477  0.00  0.00    +0.000 C 
ATOM      4  C   UNL     1       1.393   6.150  21.085  0.00  0.00    +0.000 C 
ATOM      5  N   UNL     1       1.675   7.248  20.185  0.00  0.00    +0.000 N 
ATOM      6  C   UNL     1       2.495   7.166  19.079  0.00  0.00    +0.000 A 
ATOM      7  N   UNL     1       2.518   8.322  18.440  0.00  0.00    +0.000 NA
ATOM      8  C   UNL     1       1.729   9.156  19.186  0.00  0.00    +0.000 A 
ATOM      9  C   UNL     1       1.197   8.518  20.264  0.00  0.00    +0.000 A 
ATOM     10  C   UNL     1       0.342   9.142  21.209  0.00  0.00    +0.000 A 
ATOM     11  O   UNL     1      -0.105   8.555  22.191  0.00  0.00    +0.000 OA
ATOM     12  N   UNL     1       0.077  10.476  20.902  0.00  0.00    +0.000 N 
ATOM     13  C   UNL     1      -0.807  11.213  21.784  0.00  0.00    +0.000 C 
ATOM     14  C   UNL     1       0.618  11.187  19.811  0.00  0.00    +0.000 A 
ATOM     15  O   UNL     1       0.348  12.380  19.640  0.00  0.00    +0.000 OA
ATOM     16  N   UNL     1       1.464  10.486  18.946  0.00  0.00    +0.000 N 
ATOM     17  C   UNL     1       2.068  11.162  17.813  0.00  0.00    +0.000 C 
ENDROOT
BRANCH   1  22
ATOM     18  C   UNL     1       6.898   4.567  14.655  0.00  0.00    +0.000 C 
ATOM     19  C   UNL     1       6.138   4.849  15.950  0.00  0.00    +0.000 C 
ATOM     20  C   UNL     1       5.791   6.339  16.068  0.00  0.00    +0.000 C 
ATOM     21  C   UNL     1       5.023   6.640  17.355  0.00  0.00    +0.000 C 
ATOM     22  C   UNL     1       3.763   5.770  17.495  0.00  0.00    +0.000 C 
ATOM     23  C   UNL     1       4.088   4.274  17.316  0.00  0.00    +0.000 C 
ATOM     24  C   UNL     1       4.865   3.999  16.030  0.00  0.00    +0.000 C 
ENDBRANCH   1  22
TORSDOF 1
ENDMDL
MODEL 2
REMARK VINA RESULT:      -6.8      2.226      3.987
REMARK  Name = 
REMARK  4 active torsions:
REMARK  status: ('A' for Active; 'I' for Inactive)
REMARK    1  A    between atoms: C_1  and  C_2
REMARK    2  A    between atoms: C_5  and  N_6
REMARK    3  A    between atoms: N_17  and  C_18
REMARK    4  A    between atoms: N_21  and  C_22
REMARK                            x       y       z     vdW  Elec       q    Type
REMARK                         _______ _______ _______ _____ _____    ______ ____
ROOT
ATOM      1  N   UNL     1       2.218   7.337  19.249  0.00  0.00    +0.000 N 
ATOM      2  C   UNL     1       2.276   7.397  17.788  0.00  0.00    +0.000 C 
ATOM      3  C   UNL     1       2.651   8.807  17.353  0.00  0.00    +0.000 C 
ATOM      4  C   UNL     1       1.616   9.785  17.884  0.00  0.00    +0.000 C 
ATOM      5  N   UNL     1       1.280   9.507  19.264  0.00  0.00    +0.000 N 
ATOM      6  C   UNL     1       1.576   8.332  19.922  0.00  0.00    +0.000 A 
ATOM      7  N   UNL     1       1.176   8.399  21.180  0.00  0.00    +0.000 NA
ATOM      8  C   UNL     1       0.580   9.626  21.298  0.00  0.00    +0.000 A 
ATOM      9  C   UNL     1       0.633  10.327  20.133  0.00  0.00    +0.000 A 
ATOM     10  C   UNL     1       0.092  11.629  19.969  0.00  0.00    +0.000 A 
ATOM     11  O   UNL     1       0.126  12.234  18.901  0.00  0.00    +0.000 OA
ATOM     12  N   UNL     1      -0.476  12.130  21.140  0.00  0.00    +0.000 N 
ATOM     13  C   UNL     1      -1.041  13.466  21.103  0.00  0.00    +0.000 C 
ATOM     14  C   UNL     1      -0.574  11.437  22.364  0.00  0.00    +0.000 A 
ATOM     15  O   UNL     1      -1.126  11.955  23.340  0.00  0.00    +0.000 OA
ATOM     16  N   UNL     1      -0.024  10.153  22.418  0.00  0.00    +0.000 N 
ATOM     17  C   UNL     1      -0.105   9.378  23.642  0.00  0.00    +0.000 C 
ENDROOT
BRANCH   1  22
ATOM     18  C   UNL     1       3.991   2.025  20.710  0.00  0.00    +0.000 C 
ATOM     19  C   UNL     1       3.405   3.276  20.059  0.00  0.00    +0.000 C 
ATOM     20  C   UNL     1       2.308   3.889  20.940  0.00  0.00    +0.000 C 
ATOM     21  C   UNL     1       1.714   5.148  20.308  0.00  0.00    +0.000 C 
ATOM     22  C   UNL     1       2.792   6.190  19.967  0.00  0.00    +0.000 C 
ATOM     23  C   UNL     1       3.932   5.571  19.135  0.00  0.00    +0.000 C 
ATOM     24  C   UNL     1       4.502   4.309  19.779  0.00  0.00    +0.000 C 
ENDBRANCH   1  22
TORSDOF 1
ENDMDL
MODEL 3
REMARK VINA RESULT:      -6.8      3.432      5.974
REMARK  Name = 
REMARK  4 active torsions:
REMARK  status: ('A' for Active; 'I' for Inactive)
REMARK    1  A    between atoms: C_1  and  C_2
REMARK    2  A    between atoms: C_5  and  N_6
REMARK    3  A    between atoms: N_17  and  C_18
REMARK    4  A    between atoms: N_21  and  C_22
REMARK                            x       y       z     vdW  Elec       q    Type
REMARK                         _______ _______ _______ _____ _____    ______ ____
ROOT
ATOM      1  N   UNL     1       0.792  10.914  19.552  0.00  0.00    +0.000 N 
ATOM      2  C   UNL     1      -0.512  10.703  20.181  0.00  0.00    +0.000 C 
ATOM      3  C   UNL     1      -1.568  11.515  19.443  0.00  0.00    +0.000 C 
ATOM      4  C   UNL     1      -1.189  12.986  19.488  0.00  0.00    +0.000 C 
ATOM      5  N   UNL     1       0.218  13.181  19.207  0.00  0.00    +0.000 N 
ATOM      6  C   UNL     1       1.169  12.183  19.231  0.00  0.00    +0.000 A 
ATOM      7  N   UNL     1       2.350  12.669  18.891  0.00  0.00    +0.000 NA
ATOM      8  C   UNL     1       2.140  14.007  18.692  0.00  0.00    +0.000 A 
ATOM      9  C   UNL     1       0.835  14.347  18.877  0.00  0.00    +0.000 A 
ATOM     10  C   UNL     1       0.334  15.666  18.737  0.00  0.00    +0.000 A 
ATOM     11  O   UNL     1      -0.843  15.956  18.936  0.00  0.00    +0.000 OA
ATOM     12  N   UNL     1       1.316  16.580  18.357  0.00  0.00    +0.000 N 
ATOM     13  C   UNL     1       0.918  17.961  18.157  0.00  0.00    +0.000 C 
ATOM     14  C   UNL     1       2.682  16.284  18.171  0.00  0.00    +0.000 A 
ATOM     15  O   UNL     1       3.484  17.171  17.865  0.00  0.00    +0.000 OA
ATOM     16  N   UNL     1       3.079  14.955  18.350  0.00  0.00    +0.000 N 
ATOM     17  C   UNL     1       4.472  14.584  18.191  0.00  0.00    +0.000 C 
ENDROOT
BRANCH   1  22
ATOM     18  C   UNL     1       2.970   5.744  18.128  0.00  0.00    +0.000 C 
ATOM     19  C   UNL     1       2.110   6.973  18.418  0.00  0.00    +0.000 C 
ATOM     20  C   UNL     1       2.172   7.347  19.905  0.00  0.00    +0.000 C 
ATOM     21  C   UNL     1       1.323   8.580  20.213  0.00  0.00    +0.000 C 
ATOM     22  C   UNL     1       1.700   9.780  19.329  0.00  0.00    +0.000 C 
ATOM     23  C   UNL     1       1.704   9.401  17.835  0.00  0.00    +0.000 C 
ATOM     24  C   UNL     1       2.548   8.160  17.553  0.00  0.00    +0.000 C 
ENDBRANCH   1  22
TORSDOF 1
ENDMDL
MODEL 4
REMARK VINA RESULT:      -6.6      2.813      7.651
REMARK  Name = 
REMARK  4 active torsions:
REMARK  status: ('A' for Active; 'I' for Inactive)
REMARK    1  A    between atoms: C_1  and  C_2
REMARK    2  A    between atoms: C_5  and  N_6
REMARK    3  A    between atoms: N_17  and  C_18
REMARK    4  A    between atoms: N_21  and  C_22
REMARK                            x       y       z     vdW  Elec       q    Type
REMARK                         _______ _______ _______ _____ _____    ______ ____
ROOT
ATOM      1  N   UNL     1       1.278   9.057  19.779  0.00  0.00    +0.000 N 
ATOM      2  C   UNL     1       1.896  10.117  18.983  0.00  0.00    +0.000 C 
ATOM      3  C   UNL     1       2.104   9.624  17.557  0.00  0.00    +0.000 C 
ATOM      4  C   UNL     1       2.992   8.391  17.579  0.00  0.00    +0.000 C 
ATOM      5  N   UNL     1       2.597   7.471  18.625  0.00  0.00    +0.000 N 
ATOM      6  C   UNL     1       1.767   7.790  19.679  0.00  0.00    +0.000 A 
ATOM      7  N   UNL     1       1.564   6.728  20.438  0.00  0.00    +0.000 NA
ATOM      8  C   UNL     1       2.318   5.736  19.870  0.00  0.00    +0.000 A 
ATOM      9  C   UNL     1       2.961   6.168  18.752  0.00  0.00    +0.000 A 
ATOM     10  C   UNL     1       3.811   5.350  17.963  0.00  0.00    +0.000 A 
ATOM     11  O   UNL     1       4.404   5.767  16.972  0.00  0.00    +0.000 OA
ATOM     12  N   UNL     1       3.896   4.042  18.438  0.00  0.00    +0.000 N 
ATOM     13  C   UNL     1       4.719   3.103  17.698  0.00  0.00    +0.000 C 
ATOM     14  C   UNL     1       3.267   3.550  19.600  0.00  0.00    +0.000 A 
ATOM     15  O   UNL     1       3.429   2.380  19.959  0.00  0.00    +0.000 OA
ATOM     16  N   UNL     1       2.462   4.441  20.318  0.00  0.00    +0.000 N 
ATOM     17  C   UNL     1       1.799   4.006  21.533  0.00  0.00    +0.000 C 
ENDROOT
BRANCH   1  22
ATOM     18  C   UNL     1      -2.171  11.715  23.592  0.00  0.00    +0.000 C 
ATOM     19  C   UNL     1      -1.076  11.281  22.620  0.00  0.00    +0.000 C 
ATOM     20  C   UNL     1      -0.380  10.004  23.112  0.00  0.00    +0.000 C 
ATOM     21  C   UNL     1       0.715   9.550  22.147  0.00  0.00    +0.000 C 
ATOM     22  C   UNL     1       0.187   9.371  20.713  0.00  0.00    +0.000 C 
ATOM     23  C   UNL     1      -0.569  10.624  20.230  0.00  0.00    +0.000 C 
ATOM     24  C   UNL     1      -1.649  11.066  21.215  0.00  0.00    +0.000 C 
ENDBRANCH   1  22
TORSDOF 1
ENDMDL
MODEL 5
REMARK VINA RESULT:      -6.4      2.515      6.838
REMARK  Name = 
REMARK  4 active torsions:
REMARK  status: ('A' for Active; 'I' for Inactive)
REMARK    1  A    between atoms: C_1  and  C_2
REMARK    2  A    between atoms: C_5  and  N_6
REMARK    3  A    between atoms: N_17  and  C_18
REMARK    4  A    between atoms: N_21  and  C_22
REMARK                            x       y       z     vdW  Elec       q    Type
REMARK                         _______ _______ _______ _____ _____    ______ ____
ROOT
ATOM      1  N   UNL     1       0.761   9.846  19.739  0.00  0.00    +0.000 N 
ATOM      2  C   UNL     1      -0.266   9.631  20.759  0.00  0.00    +0.000 C 
ATOM      3  C   UNL     1       0.332   8.849  21.921  0.00  0.00    +0.000 C 
ATOM      4  C   UNL     1       0.859   7.519  21.409  0.00  0.00    +0.000 C 
ATOM      5  N   UNL     1       1.599   7.679  20.175  0.00  0.00    +0.000 N 
ATOM      6  C   UNL     1       1.556   8.802  19.375  0.00  0.00    +0.000 A 
ATOM      7  N   UNL     1       2.369   8.659  18.343  0.00  0.00    +0.000 NA
ATOM      8  C   UNL     1       2.898   7.404  18.479  0.00  0.00    +0.000 A 
ATOM      9  C   UNL     1       2.442   6.781  19.600  0.00  0.00    +0.000 A 
ATOM     10  C   UNL     1       2.824   5.472  19.988  0.00  0.00    +0.000 A 
ATOM     11  O   UNL     1       2.378   4.917  20.990  0.00  0.00    +0.000 OA
ATOM     12  N   UNL     1       3.746   4.896  19.114  0.00  0.00    +0.000 N 
ATOM     13  C   UNL     1       4.232   3.564  19.421  0.00  0.00    +0.000 C 
ATOM     14  C   UNL     1       4.234   5.489  17.933  0.00  0.00    +0.000 A 
ATOM     15  O   UNL     1       5.027   4.884  17.204  0.00  0.00    +0.000 OA
ATOM     16  N   UNL     1       3.783   6.777  17.629  0.00  0.00    +0.000 N 
ATOM     17  C   UNL     1       4.233   7.440  16.419  0.00  0.00    +0.000 C 
ENDROOT
BRANCH   1  22
ATOM     18  C   UNL     1       0.515  15.501  18.530  0.00  0.00    +0.000 C 
ATOM     19  C   UNL     1       0.415  14.095  19.118  0.00  0.00    +0.000 C 
ATOM     20  C   UNL     1      -0.389  13.171  18.195  0.00  0.00    +0.000 C 
ATOM     21  C   UNL     1      -0.493  11.755  18.764  0.00  0.00    +0.000 C 
ATOM     22  C   UNL     1       0.887  11.154  19.078  0.00  0.00    +0.000 C 
ATOM     23  C   UNL     1       1.729  12.101  19.954  0.00  0.00    +0.000 C 
ATOM     24  C   UNL     1       1.810  13.511  19.372  0.00  0.00    +0.000 C 
ENDBRANCH   1  22
TORSDOF 1
ENDMDL
MODEL 6
REMARK VINA RESULT:      -6.4      3.679      5.859
REMARK  Name = 
REMARK  4 active torsions:
REMARK  status: ('A' for Active; 'I' for Inactive)
REMARK    1  A    between atoms: C_1  and  C_2
REMARK    2  A    between atoms: C_5  and  N_6
REMARK    3  A    between atoms: N_17  and  C_18
REMARK    4  A    between atoms: N_21  and  C_22
REMARK                            x       y       z     vdW  Elec       q    Type
REMARK                         _______ _______ _______ _____ _____    ______ ____
ROOT
ATOM      1  N   UNL     1      -0.052  10.425  19.979  0.00  0.00    +0.000 N 
ATOM      2  C   UNL     1       0.646  11.091  21.078  0.00  0.00    +0.000 C 
ATOM      3  C   UNL     1      -0.339  11.376  22.205  0.00  0.00    +0.000 C 
ATOM      4  C   UNL     1      -1.460  12.256  21.677  0.00  0.00    +0.000 C 
ATOM      5  N   UNL     1      -1.932  11.800  20.387  0.00  0.00    +0.000 N 
ATOM      6  C   UNL     1      -1.257  10.914  19.573  0.00  0.00    +0.000 A 
ATOM      7  N   UNL     1      -1.963  10.665  18.485  0.00  0.00    +0.000 NA
ATOM      8  C   UNL     1      -3.083  11.444  18.601  0.00  0.00    +0.000 A 
ATOM      9  C   UNL     1      -3.088  12.151  19.764  0.00  0.00    +0.000 A 
ATOM     10  C   UNL     1      -4.126  13.039  20.145  0.00  0.00    +0.000 A 
ATOM     11  O   UNL     1      -4.098  13.689  21.187  0.00  0.00    +0.000 OA
ATOM     12  N   UNL     1      -5.162  13.092  19.213  0.00  0.00    +0.000 N 
ATOM     13  C   UNL     1      -6.295  13.950  19.505  0.00  0.00    +0.000 C 
ATOM     14  C   UNL     1      -5.196  12.398  17.987  0.00  0.00    +0.000 A 
ATOM     15  O   UNL     1      -6.145  12.535  17.210  0.00  0.00    +0.000 OA
ATOM     16  N   UNL     1      -4.115  11.558  17.696  0.00  0.00    +0.000 N 
ATOM     17  C   UNL     1      -4.078  10.827  16.444  0.00  0.00    +0.000 C 
ENDROOT
BRANCH   1  22
ATOM     18  C   UNL     1       3.775   6.640  17.851  0.00  0.00    +0.000 C 
ATOM     19  C   UNL     1       3.032   7.797  18.517  0.00  0.00    +0.000 C 
ATOM     20  C   UNL     1       2.229   8.599  17.485  0.00  0.00    +0.000 C 
ATOM     21  C   UNL     1       1.472   9.758  18.135  0.00  0.00    +0.000 C 
ATOM     22  C   UNL     1       0.569   9.287  19.288  0.00  0.00    +0.000 C 
ATOM     23  C   UNL     1       1.350   8.426  20.300  0.00  0.00    +0.000 C 
ATOM     24  C   UNL     1       2.108   7.283  19.627  0.00  0.00    +0.000 C 
ENDBRANCH   1  22
TORSDOF 1
ENDMDL
MODEL 7
REMARK VINA RESULT:      -6.4      1.462      2.295
REMARK  Name = 
REMARK  4 active torsions:
REMARK  status: ('A' for Active; 'I' for Inactive)
REMARK    1  A    between atoms: C_1  and  C_2
REMARK    2  A    between atoms: C_5  and  N_6
REMARK    3  A    between atoms: N_17  and  C_18
REMARK    4  A    between atoms: N_21  and  C_22
REMARK                            x       y       z     vdW  Elec       q    Type
REMARK                         _______ _______ _______ _____ _____    ______ ____
ROOT
ATOM      1  N   UNL     1       4.794   5.180  17.556  0.00  0.00    +0.000 N 
ATOM      2  C   UNL     1       5.240   4.072  18.401  0.00  0.00    +0.000 C 
ATOM      3  C   UNL     1       4.041   3.468  19.118  0.00  0.00    +0.000 C 
ATOM      4  C   UNL     1       3.370   4.540  19.960  0.00  0.00    +0.000 C 
ATOM      5  N   UNL     1       3.239   5.784  19.231  0.00  0.00    +0.000 N 
ATOM      6  C   UNL     1       3.920   6.088  18.070  0.00  0.00    +0.000 A 
ATOM      7  N   UNL     1       3.556   7.278  17.626  0.00  0.00    +0.000 NA
ATOM      8  C   UNL     1       2.661   7.745  18.551  0.00  0.00    +0.000 A 
ATOM      9  C   UNL     1       2.448   6.843  19.547  0.00  0.00    +0.000 A 
ATOM     10  C   UNL     1       1.569   7.063  20.639  0.00  0.00    +0.000 A 
ATOM     11  O   UNL     1       1.411   6.247  21.543  0.00  0.00    +0.000 OA
ATOM     12  N   UNL     1       0.919   8.296  20.570  0.00  0.00    +0.000 N 
ATOM     13  C   UNL     1      -0.026   8.624  21.620  0.00  0.00    +0.000 C 
ATOM     14  C   UNL     1       1.119   9.271  19.572  0.00  0.00    +0.000 A 
ATOM     15  O   UNL     1       0.519  10.349  19.615  0.00  0.00    +0.000 OA
ATOM     16  N   UNL     1       2.020   8.964  18.547  0.00  0.00    +0.000 N 
ATOM     17  C   UNL     1       2.285   9.930  17.498  0.00  0.00    +0.000 C 
ENDROOT
BRANCH   1  22
ATOM     18  C   UNL     1       7.280   4.203  12.421  0.00  0.00    +0.000 C 
ATOM     19  C   UNL     1       6.711   4.151  13.838  0.00  0.00    +0.000 C 
ATOM     20  C   UNL     1       7.416   5.164  14.749  0.00  0.00    +0.000 C 
ATOM     21  C   UNL     1       6.855   5.133  16.170  0.00  0.00    +0.000 C 
ATOM     22  C   UNL     1       5.331   5.338  16.196  0.00  0.00    +0.000 C 
ATOM     23  C   UNL     1       4.615   4.367  15.237  0.00  0.00    +0.000 C 
ATOM     24  C   UNL     1       5.200   4.407  13.827  0.00  0.00    +0.000 C 
ENDBRANCH   1  22
TORSDOF 1
ENDMDL
MODEL 8
REMARK VINA RESULT:      -6.4      6.988      8.538
REMARK  Name = 
REMARK  4 active torsions:
REMARK  status: ('A' for Active; 'I' for Inactive)
REMARK    1  A    between atoms: C_1  and  C_2
REMARK    2  A    between atoms: C_5  and  N_6
REMARK    3  A    between atoms: N_17  and  C_18
REMARK    4  A    between atoms: N_21  and  C_22
REMARK                            x       y       z     vdW  Elec       q    Type
REMARK                         _______ _______ _______ _____ _____    ______ ____
ROOT
ATOM      1  N   UNL     1      -4.447  11.778  19.124  0.00  0.00    +0.000 N 
ATOM      2  C   UNL     1      -5.823  11.307  19.281  0.00  0.00    +0.000 C 
ATOM      3  C   UNL     1      -6.651  12.384  19.969  0.00  0.00    +0.000 C 
ATOM      4  C   UNL     1      -6.039  12.695  21.324  0.00  0.00    +0.000 C 
ATOM      5  N   UNL     1      -4.598  12.817  21.242  0.00  0.00    +0.000 N 
ATOM      6  C   UNL     1      -3.834  12.382  20.180  0.00  0.00    +0.000 A 
ATOM      7  N   UNL     1      -2.561  12.671  20.384  0.00  0.00    +0.000 NA
ATOM      8  C   UNL     1      -2.525  13.262  21.618  0.00  0.00    +0.000 A 
ATOM      9  C   UNL     1      -3.766  13.365  22.166  0.00  0.00    +0.000 A 
ATOM     10  C   UNL     1      -4.024  13.936  23.439  0.00  0.00    +0.000 A 
ATOM     11  O   UNL     1      -5.150  13.994  23.927  0.00  0.00    +0.000 OA
ATOM     12  N   UNL     1      -2.871  14.411  24.062  0.00  0.00    +0.000 N 
ATOM     13  C   UNL     1      -3.012  15.041  25.362  0.00  0.00    +0.000 C 
ATOM     14  C   UNL     1      -1.562  14.311  23.548  0.00  0.00    +0.000 A 
ATOM     15  O   UNL     1      -0.597  14.735  24.191  0.00  0.00    +0.000 OA
ATOM     16  N   UNL     1      -1.412  13.716  22.291  0.00  0.00    +0.000 N 
ATOM     17  C   UNL     1      -0.091  13.567  21.710  0.00  0.00    +0.000 C 
ENDROOT
BRANCH   1  22
ATOM     18  C   UNL     1      -2.702   9.638  14.036  0.00  0.00    +0.000 C 
ATOM     19  C   UNL     1      -3.372   9.951  15.373  0.00  0.00    +0.000 C 
ATOM     20  C   UNL     1      -2.363   9.864  16.526  0.00  0.00    +0.000 C 
ATOM     21  C   UNL     1      -3.014  10.182  17.872  0.00  0.00    +0.000 C 
ATOM     22  C   UNL     1      -3.723  11.546  17.865  0.00  0.00    +0.000 C 
ATOM     23  C   UNL     1      -4.694  11.671  16.675  0.00  0.00    +0.000 C 
ATOM     24  C   UNL     1      -4.026  11.338  15.343  0.00  0.00    +0.000 C 
ENDBRANCH   1  22
TORSDOF 1
ENDMDL
MODEL 9
REMARK VINA RESULT:      -6.2      4.119      6.992
REMARK  Name = 
REMARK  4 active torsions:
REMARK  status: ('A' for Active; 'I' for Inactive)
REMARK    1  A    between atoms: C_1  and  C_2
REMARK    2  A    between atoms: C_5  and  N_6
REMARK    3  A    between atoms: N_17  and  C_18
REMARK    4  A    between atoms: N_21  and  C_22
REMARK                            x       y       z     vdW  Elec       q    Type
REMARK                         _______ _______ _______ _____ _____    ______ ____
ROOT
ATOM      1  N   UNL     1      -0.413  12.004  20.847  0.00  0.00    +0.000 N 
ATOM      2  C   UNL     1      -0.156  12.849  22.013  0.00  0.00    +0.000 C 
ATOM      3  C   UNL     1      -1.341  12.771  22.966  0.00  0.00    +0.000 C 
ATOM      4  C   UNL     1      -2.596  13.232  22.242  0.00  0.00    +0.000 C 
ATOM      5  N   UNL     1      -2.682  12.663  20.914  0.00  0.00    +0.000 N 
ATOM      6  C   UNL     1      -1.633  12.066  20.246  0.00  0.00    +0.000 A 
ATOM      7  N   UNL     1      -2.038  11.611  19.073  0.00  0.00    +0.000 NA
ATOM      8  C   UNL     1      -3.357  11.968  18.990  0.00  0.00    +0.000 A 
ATOM      9  C   UNL     1      -3.778  12.615  20.111  0.00  0.00    +0.000 A 
ATOM     10  C   UNL     1      -5.099  13.098  20.296  0.00  0.00    +0.000 A 
ATOM     11  O   UNL     1      -5.450  13.704  21.305  0.00  0.00    +0.000 OA
ATOM     12  N   UNL     1      -5.935  12.815  19.217  0.00  0.00    +0.000 N 
ATOM     13  C   UNL     1      -7.320  13.238  19.301  0.00  0.00    +0.000 C 
ATOM     14  C   UNL     1      -5.545  12.167  18.027  0.00  0.00    +0.000 A 
ATOM     15  O   UNL     1      -6.353  11.989  17.111  0.00  0.00    +0.000 OA
ATOM     16  N   UNL     1      -4.215  11.743  17.936  0.00  0.00    +0.000 N 
ATOM     17  C   UNL     1      -3.742  11.085  16.732  0.00  0.00    +0.000 C 
ENDROOT
BRANCH   1  22
ATOM     18  C   UNL     1       2.571   8.207  17.656  0.00  0.00    +0.000 C 
ATOM     19  C   UNL     1       1.532   9.115  18.311  0.00  0.00    +0.000 C 
ATOM     20  C   UNL     1       1.343   8.755  19.791  0.00  0.00    +0.000 C 
ATOM     21  C   UNL     1       0.312   9.660  20.465  0.00  0.00    +0.000 C 
ATOM     22  C   UNL     1       0.652  11.150  20.302  0.00  0.00    +0.000 C 
ATOM     23  C   UNL     1       0.906  11.512  18.826  0.00  0.00    +0.000 C 
ATOM     24  C   UNL     1       1.930  10.589  18.169  0.00  0.00    +0.000 C 
ENDBRANCH   1  22
TORSDOF 1
ENDMDL
