MODEL 1
REMARK VINA RESULT:      -8.5      0.000      0.000
REMARK  Name = 
REMARK  7 active torsions:
REMARK  status: ('A' for Active; 'I' for Inactive)
REMARK    1  A    between atoms: C_1  and  C_2
REMARK    2  A    between atoms: C_6  and  C_7
REMARK    3  A    between atoms: N_8  and  C_9
REMARK    4  A    between atoms: C_12  and  C_13
REMARK    5  A    between atoms: C_17  and  C_18
REMARK    6  A    between atoms: C_21  and  S_22
REMARK    7  A    between atoms: S_22  and  C_23
REMARK                            x       y       z     vdW  Elec       q    Type
REMARK                         _______ _______ _______ _____ _____    ______ ____
ROOT
ATOM      1  C   UNL     1       1.306   9.203  19.153  0.00  0.00    +0.000 A 
ATOM      2  C   UNL     1       0.151   9.015  20.078  0.00  0.00    +0.000 A 
ATOM      3  N   UNL     1      -0.709   9.929  20.424  0.00  0.00    +0.000 NA
ATOM      4  C   UNL     1      -0.521  11.175  19.876  0.00  0.00    +0.000 A 
ATOM      5  C   UNL     1      -1.203  12.372  20.015  0.00  0.00    +0.000 A 
ATOM      6  C   UNL     1      -0.517  13.267  19.166  0.00  0.00    +0.000 A 
ATOM      7  N   UNL     1       0.521  12.712  18.542  0.00  0.00    +0.000 NA
ATOM      8  N   UNL     1       0.523  11.430  18.977  0.00  0.00    +0.000 N 
ATOM      9  C   UNL     1       1.426  10.435  18.635  0.00  0.00    +0.000 A 
ENDROOT
BRANCH   1  13
ATOM     10  C   UNL     1       4.052   6.033  18.175  0.00  0.00    +0.000 A 
ATOM     11  C   UNL     1       3.840   7.129  17.329  0.00  0.00    +0.000 A 
ATOM     12  C   UNL     1       2.996   8.193  17.672  0.00  0.00    +0.000 A 
ATOM     13  C   UNL     1       2.259   8.146  18.851  0.00  0.00    +0.000 A 
ATOM     14  C   UNL     1       2.416   7.058  19.702  0.00  0.00    +0.000 A 
ATOM     15  C   UNL     1       3.334   6.049  19.381  0.00  0.00    +0.000 A 
BRANCH  10  23
ATOM     16  C   UNL     1       2.994   3.456  17.044  0.00  0.00    +0.000 C 
ATOM     17  C   UNL     1       4.490   3.695  17.258  0.00  0.00    +0.000 C 
ATOM     18  C   UNL     1       5.179   3.508  15.868  0.00  0.00    +0.000 C 
ATOM     19  N   UNL     1       6.646   3.629  15.889  0.00  0.00    +0.000 NA
ATOM     20  C   UNL     1       7.017   4.921  16.489  0.00  0.00    +0.000 C 
ATOM     21  C   UNL     1       6.416   5.116  17.908  0.00  0.00    +0.000 C 
ATOM     22  C   UNL     1       7.026   6.354  18.568  0.00  0.00    +0.000 C 
ATOM     23  N   UNL     1       4.918   5.010  17.853  0.00  0.00    +0.000 N 
ATOM     24  H   UNL     1       6.995   3.590  14.932  0.00  0.00    +0.000 HD
ENDBRANCH  10  23
ENDBRANCH   1  13
BRANCH   5  25
ATOM     25  C   UNL     1      -2.367  12.600  20.857  0.00  0.00    +0.000 A 
ATOM     26  C   UNL     1      -3.648  12.762  20.303  0.00  0.00    +0.000 A 
ATOM     27  C   UNL     1      -4.764  12.949  21.123  0.00  0.00    +0.000 A 
ATOM     28  C   UNL     1      -4.601  12.955  22.511  0.00  0.00    +0.000 A 
ATOM     29  C   UNL     1      -3.332  12.816  23.077  0.00  0.00    +0.000 A 
ATOM     30  C   UNL     1      -2.223  12.632  22.253  0.00  0.00    +0.000 A 
BRANCH  28  31
ATOM     31  S   UNL     1      -6.017  13.155  23.560  0.00  0.00    +0.000 S 
ATOM     32  C   UNL     1      -7.368  12.810  22.462  0.00  0.00    +0.000 C 
ATOM     33  O   UNL     1      -5.970  12.109  24.562  0.00  0.00    +0.000 OA
ATOM     34  O   UNL     1      -6.092  14.552  23.944  0.00  0.00    +0.000 OA
ENDBRANCH  28  31
ENDBRANCH   5  25
TORSDOF 4
ENDMDL
MODEL 2
REMARK VINA RESULT:      -8.2      2.162      2.929
REMARK  Name = 
REMARK  7 active torsions:
REMARK  status: ('A' for Active; 'I' for Inactive)
REMARK    1  A    between atoms: C_1  and  C_2
REMARK    2  A    between atoms: C_6  and  C_7
REMARK    3  A    between atoms: N_8  and  C_9
REMARK    4  A    between atoms: C_12  and  C_13
REMARK    5  A    between atoms: C_17  and  C_18
REMARK    6  A    between atoms: C_21  and  S_22
REMARK    7  A    between atoms: S_22  and  C_23
REMARK                            x       y       z     vdW  Elec       q    Type
REMARK                         _______ _______ _______ _____ _____    ______ ____
ROOT
ATOM      1  C   UNL     1       1.185   8.765  20.286  0.00  0.00    +0.000 A 
ATOM      2  C   UNL     1       0.664   9.905  19.477  0.00  0.00    +0.000 A 
ATOM      3  N   UNL     1      -0.105  10.862  19.910  0.00  0.00    +0.000 NA
ATOM      4  C   UNL     1      -0.458  10.801  21.236  0.00  0.00    +0.000 A 
ATOM      5  C   UNL     1      -1.253  11.608  22.032  0.00  0.00    +0.000 A 
ATOM      6  C   UNL     1      -1.192  11.012  23.309  0.00  0.00    +0.000 A 
ATOM      7  N   UNL     1      -0.439   9.912  23.343  0.00  0.00    +0.000 NA
ATOM      8  N   UNL     1       0.010   9.779  22.073  0.00  0.00    +0.000 N 
ATOM      9  C   UNL     1       0.823   8.770  21.578  0.00  0.00    +0.000 A 
ENDROOT
BRANCH   1  13
ATOM     10  C   UNL     1       3.685   5.640  18.695  0.00  0.00    +0.000 A 
ATOM     11  C   UNL     1       3.037   5.526  19.931  0.00  0.00    +0.000 A 
ATOM     12  C   UNL     1       2.173   6.512  20.423  0.00  0.00    +0.000 A 
ATOM     13  C   UNL     1       2.001   7.701  19.721  0.00  0.00    +0.000 A 
ATOM     14  C   UNL     1       2.654   7.867  18.505  0.00  0.00    +0.000 A 
ATOM     15  C   UNL     1       3.441   6.829  17.990  0.00  0.00    +0.000 A 
BRANCH  10  23
ATOM     16  C   UNL     1       2.525   3.450  16.992  0.00  0.00    +0.000 C 
ATOM     17  C   UNL     1       4.019   3.524  17.312  0.00  0.00    +0.000 C 
ATOM     18  C   UNL     1       4.771   3.586  15.943  0.00  0.00    +0.000 C 
ATOM     19  N   UNL     1       6.238   3.589  16.049  0.00  0.00    +0.000 NA
ATOM     20  C   UNL     1       6.660   4.691  16.929  0.00  0.00    +0.000 C 
ATOM     21  C   UNL     1       5.995   4.625  18.331  0.00  0.00    +0.000 C 
ATOM     22  C   UNL     1       6.647   5.644  19.266  0.00  0.00    +0.000 C 
ATOM     23  N   UNL     1       4.499   4.647  18.194  0.00  0.00    +0.000 N 
ATOM     24  H   UNL     1       6.637   3.727  15.121  0.00  0.00    +0.000 HD
ENDBRANCH  10  23
ENDBRANCH   1  13
BRANCH   5  25
ATOM     25  C   UNL     1      -1.964  12.801  21.599  0.00  0.00    +0.000 A 
ATOM     26  C   UNL     1      -3.345  12.775  21.342  0.00  0.00    +0.000 A 
ATOM     27  C   UNL     1      -4.024  13.934  20.957  0.00  0.00    +0.000 A 
ATOM     28  C   UNL     1      -3.319  15.135  20.845  0.00  0.00    +0.000 A 
ATOM     29  C   UNL     1      -1.942  15.174  21.076  0.00  0.00    +0.000 A 
ATOM     30  C   UNL     1      -1.271  14.015  21.458  0.00  0.00    +0.000 A 
BRANCH  28  31
ATOM     31  S   UNL     1      -4.179  16.619  20.391  0.00  0.00    +0.000 S 
ATOM     32  C   UNL     1      -4.556  17.348  21.964  0.00  0.00    +0.000 C 
ATOM     33  O   UNL     1      -3.234  17.480  19.708  0.00  0.00    +0.000 OA
ATOM     34  O   UNL     1      -5.427  16.233  19.760  0.00  0.00    +0.000 OA
ENDBRANCH  28  31
ENDBRANCH   5  25
TORSDOF 4
ENDMDL
MODEL 3
REMARK VINA RESULT:      -8.2      1.557      2.346
REMARK  Name = 
REMARK  7 active torsions:
REMARK  status: ('A' for Active; 'I' for Inactive)
REMARK    1  A    between atoms: C_1  and  C_2
REMARK    2  A    between atoms: C_6  and  C_7
REMARK    3  A    between atoms: N_8  and  C_9
REMARK    4  A    between atoms: C_12  and  C_13
REMARK    5  A    between atoms: C_17  and  C_18
REMARK    6  A    between atoms: C_21  and  S_22
REMARK    7  A    between atoms: S_22  and  C_23
REMARK                            x       y       z     vdW  Elec       q    Type
REMARK                         _______ _______ _______ _____ _____    ______ ____
ROOT
ATOM      1  C   UNL     1       0.691  10.032  20.072  0.00  0.00    +0.000 A 
ATOM      2  C   UNL     1      -0.787   9.953  20.261  0.00  0.00    +0.000 A 
ATOM      3  N   UNL     1      -1.533  10.850  20.838  0.00  0.00    +0.000 NA
ATOM      4  C   UNL     1      -0.885  11.966  21.308  0.00  0.00    +0.000 A 
ATOM      5  C   UNL     1      -1.327  13.096  21.974  0.00  0.00    +0.000 A 
ATOM      6  C   UNL     1      -0.165  13.876  22.154  0.00  0.00    +0.000 A 
ATOM      7  N   UNL     1       0.935  13.304  21.664  0.00  0.00    +0.000 NA
ATOM      8  N   UNL     1       0.498  12.132  21.148  0.00  0.00    +0.000 N 
ATOM      9  C   UNL     1       1.266  11.154  20.534  0.00  0.00    +0.000 A 
ENDROOT
BRANCH   1  13
ATOM     10  C   UNL     1       2.896   6.837  18.208  0.00  0.00    +0.000 A 
ATOM     11  C   UNL     1       2.458   7.961  17.496  0.00  0.00    +0.000 A 
ATOM     12  C   UNL     1       1.796   9.031  18.111  0.00  0.00    +0.000 A 
ATOM     13  C   UNL     1       1.469   8.965  19.462  0.00  0.00    +0.000 A 
ATOM     14  C   UNL     1       1.857   7.851  20.196  0.00  0.00    +0.000 A 
ATOM     15  C   UNL     1       2.597   6.833  19.579  0.00  0.00    +0.000 A 
BRANCH  10  23
ATOM     16  C   UNL     1       5.776   7.201  17.426  0.00  0.00    +0.000 C 
ATOM     17  C   UNL     1       5.035   5.882  17.203  0.00  0.00    +0.000 C 
ATOM     18  C   UNL     1       5.841   4.779  17.964  0.00  0.00    +0.000 C 
ATOM     19  N   UNL     1       5.314   3.414  17.803  0.00  0.00    +0.000 NA
ATOM     20  C   UNL     1       3.895   3.391  18.196  0.00  0.00    +0.000 C 
ATOM     21  C   UNL     1       3.041   4.420  17.407  0.00  0.00    +0.000 C 
ATOM     22  C   UNL     1       1.555   4.186  17.683  0.00  0.00    +0.000 C 
ATOM     23  N   UNL     1       3.586   5.807  17.607  0.00  0.00    +0.000 N 
ATOM     24  H   UNL     1       5.840   2.782  18.406  0.00  0.00    +0.000 HD
ENDBRANCH  10  23
ENDBRANCH   1  13
BRANCH   5  25
ATOM     25  C   UNL     1      -2.700  13.373  22.369  0.00  0.00    +0.000 A 
ATOM     26  C   UNL     1      -3.519  14.227  21.613  0.00  0.00    +0.000 A 
ATOM     27  C   UNL     1      -4.846  14.461  21.984  0.00  0.00    +0.000 A 
ATOM     28  C   UNL     1      -5.364  13.820  23.113  0.00  0.00    +0.000 A 
ATOM     29  C   UNL     1      -4.557  12.984  23.888  0.00  0.00    +0.000 A 
ATOM     30  C   UNL     1      -3.234  12.757  23.512  0.00  0.00    +0.000 A 
BRANCH  28  31
ATOM     31  S   UNL     1      -7.057  14.083  23.571  0.00  0.00    +0.000 S 
ATOM     32  C   UNL     1      -7.915  13.874  22.032  0.00  0.00    +0.000 C 
ATOM     33  O   UNL     1      -7.443  13.000  24.455  0.00  0.00    +0.000 OA
ATOM     34  O   UNL     1      -7.197  15.467  23.983  0.00  0.00    +0.000 OA
ENDBRANCH  28  31
ENDBRANCH   5  25
TORSDOF 4
ENDMDL
MODEL 4
REMARK VINA RESULT:      -8.2      5.215     11.596
REMARK  Name = 
REMARK  7 active torsions:
REMARK  status: ('A' for Active; 'I' for Inactive)
REMARK    1  A    between atoms: C_1  and  C_2
REMARK    2  A    between atoms: C_6  and  C_7
REMARK    3  A    between atoms: N_8  and  C_9
REMARK    4  A    between atoms: C_12  and  C_13
REMARK    5  A    between atoms: C_17  and  C_18
REMARK    6  A    between atoms: C_21  and  S_22
REMARK    7  A    between atoms: S_22  and  C_23
REMARK                            x       y       z     vdW  Elec       q    Type
REMARK                         _______ _______ _______ _____ _____    ______ ____
ROOT
ATOM      1  C   UNL     1      -0.303  11.077  21.363  0.00  0.00    +0.000 A 
ATOM      2  C   UNL     1      -0.053   9.699  21.876  0.00  0.00    +0.000 A 
ATOM      3  N   UNL     1       0.617   8.766  21.266  0.00  0.00    +0.000 NA
ATOM      4  C   UNL     1       1.137   9.097  20.038  0.00  0.00    +0.000 A 
ATOM      5  C   UNL     1       1.875   8.384  19.108  0.00  0.00    +0.000 A 
ATOM      6  C   UNL     1       2.114   9.306  18.067  0.00  0.00    +0.000 A 
ATOM      7  N   UNL     1       1.574  10.504  18.289  0.00  0.00    +0.000 NA
ATOM      8  N   UNL     1       0.972  10.378  19.495  0.00  0.00    +0.000 N 
ATOM      9  C   UNL     1       0.245  11.349  20.168  0.00  0.00    +0.000 A 
ENDROOT
BRANCH   1  13
ATOM     10  C   UNL     1      -2.780  13.933  23.424  0.00  0.00    +0.000 A 
ATOM     11  C   UNL     1      -2.837  12.560  23.693  0.00  0.00    +0.000 A 
ATOM     12  C   UNL     1      -1.989  11.636  23.071  0.00  0.00    +0.000 A 
ATOM     13  C   UNL     1      -1.107  12.055  22.079  0.00  0.00    +0.000 A 
ATOM     14  C   UNL     1      -1.046  13.406  21.760  0.00  0.00    +0.000 A 
ATOM     15  C   UNL     1      -1.840  14.325  22.460  0.00  0.00    +0.000 A 
BRANCH  10  23
ATOM     16  C   UNL     1      -1.772  15.380  25.859  0.00  0.00    +0.000 C 
ATOM     17  C   UNL     1      -3.164  15.638  25.281  0.00  0.00    +0.000 C 
ATOM     18  C   UNL     1      -3.239  17.164  24.949  0.00  0.00    +0.000 C 
ATOM     19  N   UNL     1      -4.544  17.619  24.444  0.00  0.00    +0.000 NA
ATOM     20  C   UNL     1      -4.921  16.808  23.274  0.00  0.00    +0.000 C 
ATOM     21  C   UNL     1      -4.937  15.286  23.581  0.00  0.00    +0.000 C 
ATOM     22  C   UNL     1      -5.560  14.524  22.411  0.00  0.00    +0.000 C 
ATOM     23  N   UNL     1      -3.586  14.845  24.072  0.00  0.00    +0.000 N 
ATOM     24  H   UNL     1      -4.470  18.597  24.166  0.00  0.00    +0.000 HD
ENDBRANCH  10  23
ENDBRANCH   1  13
BRANCH   5  25
ATOM     25  C   UNL     1       2.291   6.995  19.231  0.00  0.00    +0.000 A 
ATOM     26  C   UNL     1       1.970   6.235  20.368  0.00  0.00    +0.000 A 
ATOM     27  C   UNL     1       2.349   4.893  20.462  0.00  0.00    +0.000 A 
ATOM     28  C   UNL     1       3.037   4.300  19.401  0.00  0.00    +0.000 A 
ATOM     29  C   UNL     1       3.382   5.047  18.272  0.00  0.00    +0.000 A 
ATOM     30  C   UNL     1       3.004   6.385  18.187  0.00  0.00    +0.000 A 
BRANCH  28  31
ATOM     31  S   UNL     1       3.490   2.588  19.496  0.00  0.00    +0.000 S 
ATOM     32  C   UNL     1       3.493   2.090  17.793  0.00  0.00    +0.000 C 
ATOM     33  O   UNL     1       4.852   2.522  19.989  0.00  0.00    +0.000 OA
ATOM     34  O   UNL     1       2.417   1.881  20.172  0.00  0.00    +0.000 OA
ENDBRANCH  28  31
ENDBRANCH   5  25
TORSDOF 4
ENDMDL
MODEL 5
REMARK VINA RESULT:      -8.1      2.279      3.339
REMARK  Name = 
REMARK  7 active torsions:
REMARK  status: ('A' for Active; 'I' for Inactive)
REMARK    1  A    between atoms: C_1  and  C_2
REMARK    2  A    between atoms: C_6  and  C_7
REMARK    3  A    between atoms: N_8  and  C_9
REMARK    4  A    between atoms: C_12  and  C_13
REMARK    5  A    between atoms: C_17  and  C_18
REMARK    6  A    between atoms: C_21  and  S_22
REMARK    7  A    between atoms: S_22  and  C_23
REMARK                            x       y       z     vdW  Elec       q    Type
REMARK                         _______ _______ _______ _____ _____    ______ ____
ROOT
ATOM      1  C   UNL     1       0.449   9.913  19.972  0.00  0.00    +0.000 A 
ATOM      2  C   UNL     1      -0.478  10.737  19.143  0.00  0.00    +0.000 A 
ATOM      3  N   UNL     1      -1.301  11.642  19.587  0.00  0.00    +0.000 NA
ATOM      4  C   UNL     1      -1.302  11.846  20.945  0.00  0.00    +0.000 A 
ATOM      5  C   UNL     1      -2.030  12.690  21.766  0.00  0.00    +0.000 A 
ATOM      6  C   UNL     1      -1.538  12.430  23.063  0.00  0.00    +0.000 A 
ATOM      7  N   UNL     1      -0.588  11.496  23.090  0.00  0.00    +0.000 NA
ATOM      8  N   UNL     1      -0.443  11.134  21.793  0.00  0.00    +0.000 N 
ATOM      9  C   UNL     1       0.418  10.171  21.289  0.00  0.00    +0.000 A 
ENDROOT
BRANCH   1  13
ATOM     10  C   UNL     1       2.893   6.812  18.254  0.00  0.00    +0.000 A 
ATOM     11  C   UNL     1       2.403   7.885  17.499  0.00  0.00    +0.000 A 
ATOM     12  C   UNL     1       1.662   8.928  18.067  0.00  0.00    +0.000 A 
ATOM     13  C   UNL     1       1.307   8.881  19.411  0.00  0.00    +0.000 A 
ATOM     14  C   UNL     1       1.746   7.814  20.187  0.00  0.00    +0.000 A 
ATOM     15  C   UNL     1       2.563   6.828  19.618  0.00  0.00    +0.000 A 
BRANCH  10  23
ATOM     16  C   UNL     1       5.779   7.317  17.580  0.00  0.00    +0.000 C 
ATOM     17  C   UNL     1       5.119   5.956  17.352  0.00  0.00    +0.000 C 
ATOM     18  C   UNL     1       5.951   4.910  18.164  0.00  0.00    +0.000 C 
ATOM     19  N   UNL     1       5.504   3.517  18.007  0.00  0.00    +0.000 NA
ATOM     20  C   UNL     1       4.074   3.425  18.344  0.00  0.00    +0.000 C 
ATOM     21  C   UNL     1       3.198   4.394  17.503  0.00  0.00    +0.000 C 
ATOM     22  C   UNL     1       1.717   4.085  17.725  0.00  0.00    +0.000 C 
ATOM     23  N   UNL     1       3.661   5.810  17.700  0.00  0.00    +0.000 N 
ATOM     24  H   UNL     1       6.038   2.924  18.642  0.00  0.00    +0.000 HD
ENDBRANCH  10  23
ENDBRANCH   1  13
BRANCH   5  25
ATOM     25  C   UNL     1      -3.058  13.625  21.334  0.00  0.00    +0.000 A 
ATOM     26  C   UNL     1      -2.810  15.006  21.275  0.00  0.00    +0.000 A 
ATOM     27  C   UNL     1      -3.795  15.892  20.828  0.00  0.00    +0.000 A 
ATOM     28  C   UNL     1      -5.033  15.390  20.419  0.00  0.00    +0.000 A 
ATOM     29  C   UNL     1      -5.303  14.021  20.491  0.00  0.00    +0.000 A 
ATOM     30  C   UNL     1      -4.317  13.145  20.939  0.00  0.00    +0.000 A 
BRANCH  28  31
ATOM     31  S   UNL     1      -6.275  16.503  19.817  0.00  0.00    +0.000 S 
ATOM     32  C   UNL     1      -5.355  17.989  19.513  0.00  0.00    +0.000 C 
ATOM     33  O   UNL     1      -6.740  15.991  18.542  0.00  0.00    +0.000 OA
ATOM     34  O   UNL     1      -7.205  16.760  20.901  0.00  0.00    +0.000 OA
ENDBRANCH  28  31
ENDBRANCH   5  25
TORSDOF 4
ENDMDL
MODEL 6
REMARK VINA RESULT:      -8.1      5.322     11.665
REMARK  Name = 
REMARK  7 active torsions:
REMARK  status: ('A' for Active; 'I' for Inactive)
REMARK    1  A    between atoms: C_1  and  C_2
REMARK    2  A    between atoms: C_6  and  C_7
REMARK    3  A    between atoms: N_8  and  C_9
REMARK    4  A    between atoms: C_12  and  C_13
REMARK    5  A    between atoms: C_17  and  C_18
REMARK    6  A    between atoms: C_21  and  S_22
REMARK    7  A    between atoms: S_22  and  C_23
REMARK                            x       y       z     vdW  Elec       q    Type
REMARK                         _______ _______ _______ _____ _____    ______ ____
ROOT
ATOM      1  C   UNL     1      -0.663  11.219  21.250  0.00  0.00    +0.000 A 
ATOM      2  C   UNL     1      -0.321   9.864  21.771  0.00  0.00    +0.000 A 
ATOM      3  N   UNL     1       0.427   8.982  21.176  0.00  0.00    +0.000 NA
ATOM      4  C   UNL     1       0.944   9.349  19.958  0.00  0.00    +0.000 A 
ATOM      5  C   UNL     1       1.750   8.691  19.044  0.00  0.00    +0.000 A 
ATOM      6  C   UNL     1       1.940   9.627  18.005  0.00  0.00    +0.000 A 
ATOM      7  N   UNL     1       1.309  10.782  18.213  0.00  0.00    +0.000 NA
ATOM      8  N   UNL     1       0.695  10.614  19.408  0.00  0.00    +0.000 N 
ATOM      9  C   UNL     1      -0.113  11.529  20.065  0.00  0.00    +0.000 A 
ENDROOT
BRANCH   1  13
ATOM     10  C   UNL     1      -3.384  13.866  23.282  0.00  0.00    +0.000 A 
ATOM     11  C   UNL     1      -3.100  12.578  23.752  0.00  0.00    +0.000 A 
ATOM     12  C   UNL     1      -2.168  11.738  23.130  0.00  0.00    +0.000 A 
ATOM     13  C   UNL     1      -1.550  12.136  21.948  0.00  0.00    +0.000 A 
ATOM     14  C   UNL     1      -1.832  13.395  21.431  0.00  0.00    +0.000 A 
ATOM     15  C   UNL     1      -2.699  14.254  22.121  0.00  0.00    +0.000 A 
BRANCH  10  23
ATOM     16  C   UNL     1      -2.392  15.813  25.348  0.00  0.00    +0.000 C 
ATOM     17  C   UNL     1      -3.867  15.732  24.952  0.00  0.00    +0.000 C 
ATOM     18  C   UNL     1      -4.278  17.154  24.449  0.00  0.00    +0.000 C 
ATOM     19  N   UNL     1      -5.698  17.291  24.088  0.00  0.00    +0.000 NA
ATOM     20  C   UNL     1      -6.047  16.263  23.094  0.00  0.00    +0.000 C 
ATOM     21  C   UNL     1      -5.728  14.825  23.585  0.00  0.00    +0.000 C 
ATOM     22  C   UNL     1      -6.326  13.799  22.621  0.00  0.00    +0.000 C 
ATOM     23  N   UNL     1      -4.268  14.707  23.924  0.00  0.00    +0.000 N 
ATOM     24  H   UNL     1      -5.850  18.215  23.685  0.00  0.00    +0.000 HD
ENDBRANCH  10  23
ENDBRANCH   1  13
BRANCH   5  25
ATOM     25  C   UNL     1       2.266   7.337  19.179  0.00  0.00    +0.000 A 
ATOM     26  C   UNL     1       1.922   6.531  20.276  0.00  0.00    +0.000 A 
ATOM     27  C   UNL     1       2.398   5.221  20.380  0.00  0.00    +0.000 A 
ATOM     28  C   UNL     1       3.210   4.706  19.366  0.00  0.00    +0.000 A 
ATOM     29  C   UNL     1       3.579   5.501  18.279  0.00  0.00    +0.000 A 
ATOM     30  C   UNL     1       3.102   6.807  18.183  0.00  0.00    +0.000 A 
BRANCH  28  31
ATOM     31  S   UNL     1       3.789   3.033  19.471  0.00  0.00    +0.000 S 
ATOM     32  C   UNL     1       3.051   2.458  20.979  0.00  0.00    +0.000 C 
ATOM     33  O   UNL     1       3.200   2.297  18.370  0.00  0.00    +0.000 OA
ATOM     34  O   UNL     1       5.228   3.071  19.658  0.00  0.00    +0.000 OA
ENDBRANCH  28  31
ENDBRANCH   5  25
TORSDOF 4
ENDMDL
MODEL 7
REMARK VINA RESULT:      -8.1      1.603      2.141
REMARK  Name = 
REMARK  7 active torsions:
REMARK  status: ('A' for Active; 'I' for Inactive)
REMARK    1  A    between atoms: C_1  and  C_2
REMARK    2  A    between atoms: C_6  and  C_7
REMARK    3  A    between atoms: N_8  and  C_9
REMARK    4  A    between atoms: C_12  and  C_13
REMARK    5  A    between atoms: C_17  and  C_18
REMARK    6  A    between atoms: C_21  and  S_22
REMARK    7  A    between atoms: S_22  and  C_23
REMARK                            x       y       z     vdW  Elec       q    Type
REMARK                         _______ _______ _______ _____ _____    ______ ____
ROOT
ATOM      1  C   UNL     1       1.222   9.032  19.414  0.00  0.00    +0.000 A 
ATOM      2  C   UNL     1       1.068   9.566  20.799  0.00  0.00    +0.000 A 
ATOM      3  N   UNL     1       0.279  10.535  21.162  0.00  0.00    +0.000 NA
ATOM      4  C   UNL     1      -0.477  11.105  20.167  0.00  0.00    +0.000 A 
ATOM      5  C   UNL     1      -1.396  12.141  20.164  0.00  0.00    +0.000 A 
ATOM      6  C   UNL     1      -1.834  12.219  18.824  0.00  0.00    +0.000 A 
ATOM      7  N   UNL     1      -1.248  11.327  18.025  0.00  0.00    +0.000 NA
ATOM      8  N   UNL     1      -0.414  10.645  18.844  0.00  0.00    +0.000 N 
ATOM      9  C   UNL     1       0.444   9.615  18.489  0.00  0.00    +0.000 A 
ENDROOT
BRANCH   1  13
ATOM     10  C   UNL     1       3.937   5.875  18.317  0.00  0.00    +0.000 A 
ATOM     11  C   UNL     1       3.724   6.996  17.506  0.00  0.00    +0.000 A 
ATOM     12  C   UNL     1       2.891   8.055  17.888  0.00  0.00    +0.000 A 
ATOM     13  C   UNL     1       2.164   7.978  19.073  0.00  0.00    +0.000 A 
ATOM     14  C   UNL     1       2.323   6.865  19.890  0.00  0.00    +0.000 A 
ATOM     15  C   UNL     1       3.231   5.861  19.530  0.00  0.00    +0.000 A 
BRANCH  10  23
ATOM     16  C   UNL     1       2.872   3.418  16.951  0.00  0.00    +0.000 C 
ATOM     17  C   UNL     1       4.362   3.600  17.247  0.00  0.00    +0.000 C 
ATOM     18  C   UNL     1       5.110   3.500  15.877  0.00  0.00    +0.000 C 
ATOM     19  N   UNL     1       6.576   3.580  15.971  0.00  0.00    +0.000 NA
ATOM     20  C   UNL     1       6.950   4.814  16.683  0.00  0.00    +0.000 C 
ATOM     21  C   UNL     1       6.290   4.918  18.085  0.00  0.00    +0.000 C 
ATOM     22  C   UNL     1       6.897   6.088  18.862  0.00  0.00    +0.000 C 
ATOM     23  N   UNL     1       4.793   4.856  17.957  0.00  0.00    +0.000 N 
ATOM     24  H   UNL     1       6.968   3.603  15.031  0.00  0.00    +0.000 HD
ENDBRANCH  10  23
ENDBRANCH   1  13
BRANCH   5  25
ATOM     25  C   UNL     1      -1.792  12.935  21.316  0.00  0.00    +0.000 A 
ATOM     26  C   UNL     1      -0.942  13.914  21.855  0.00  0.00    +0.000 A 
ATOM     27  C   UNL     1      -1.344  14.693  22.944  0.00  0.00    +0.000 A 
ATOM     28  C   UNL     1      -2.618  14.504  23.486  0.00  0.00    +0.000 A 
ATOM     29  C   UNL     1      -3.468  13.520  22.976  0.00  0.00    +0.000 A 
ATOM     30  C   UNL     1      -3.059  12.746  21.892  0.00  0.00    +0.000 A 
BRANCH  28  31
ATOM     31  S   UNL     1      -3.152  15.512  24.844  0.00  0.00    +0.000 S 
ATOM     32  C   UNL     1      -2.151  16.966  24.668  0.00  0.00    +0.000 C 
ATOM     33  O   UNL     1      -4.532  15.880  24.599  0.00  0.00    +0.000 OA
ATOM     34  O   UNL     1      -2.766  14.843  26.073  0.00  0.00    +0.000 OA
ENDBRANCH  28  31
ENDBRANCH   5  25
TORSDOF 4
ENDMDL
MODEL 8
REMARK VINA RESULT:      -8.0      5.345     11.576
REMARK  Name = 
REMARK  7 active torsions:
REMARK  status: ('A' for Active; 'I' for Inactive)
REMARK    1  A    between atoms: C_1  and  C_2
REMARK    2  A    between atoms: C_6  and  C_7
REMARK    3  A    between atoms: N_8  and  C_9
REMARK    4  A    between atoms: C_12  and  C_13
REMARK    5  A    between atoms: C_17  and  C_18
REMARK    6  A    between atoms: C_21  and  S_22
REMARK    7  A    between atoms: S_22  and  C_23
REMARK                            x       y       z     vdW  Elec       q    Type
REMARK                         _______ _______ _______ _____ _____    ______ ____
ROOT
ATOM      1  C   UNL     1      -0.525  11.158  21.283  0.00  0.00    +0.000 A 
ATOM      2  C   UNL     1      -0.269   9.771  21.769  0.00  0.00    +0.000 A 
ATOM      3  N   UNL     1       0.448   8.868  21.166  0.00  0.00    +0.000 NA
ATOM      4  C   UNL     1       1.018   9.245  19.974  0.00  0.00    +0.000 A 
ATOM      5  C   UNL     1       1.813   8.573  19.061  0.00  0.00    +0.000 A 
ATOM      6  C   UNL     1       2.081   9.529  18.058  0.00  0.00    +0.000 A 
ATOM      7  N   UNL     1       1.507  10.710  18.286  0.00  0.00    +0.000 NA
ATOM      8  N   UNL     1       0.851  10.538  19.459  0.00  0.00    +0.000 N 
ATOM      9  C   UNL     1       0.074  11.474  20.123  0.00  0.00    +0.000 A 
ENDROOT
BRANCH   1  13
ATOM     10  C   UNL     1      -2.965  13.992  23.416  0.00  0.00    +0.000 A 
ATOM     11  C   UNL     1      -2.160  14.363  22.331  0.00  0.00    +0.000 A 
ATOM     12  C   UNL     1      -1.414  13.434  21.595  0.00  0.00    +0.000 A 
ATOM     13  C   UNL     1      -1.382  12.099  21.986  0.00  0.00    +0.000 A 
ATOM     14  C   UNL     1      -2.141  11.698  23.079  0.00  0.00    +0.000 A 
ATOM     15  C   UNL     1      -2.950  12.628  23.745  0.00  0.00    +0.000 A 
BRANCH  10  23
ATOM     16  C   UNL     1      -1.804  15.470  25.763  0.00  0.00    +0.000 C 
ATOM     17  C   UNL     1      -3.235  15.711  25.280  0.00  0.00    +0.000 C 
ATOM     18  C   UNL     1      -3.346  17.233  24.940  0.00  0.00    +0.000 C 
ATOM     19  N   UNL     1      -4.687  17.673  24.521  0.00  0.00    +0.000 NA
ATOM     20  C   UNL     1      -5.136  16.848  23.387  0.00  0.00    +0.000 C 
ATOM     21  C   UNL     1      -5.117  15.329  23.708  0.00  0.00    +0.000 C 
ATOM     22  C   UNL     1      -5.812  14.550  22.591  0.00  0.00    +0.000 C 
ATOM     23  N   UNL     1      -3.732  14.904  24.110  0.00  0.00    +0.000 N 
ATOM     24  H   UNL     1      -4.640  18.649  24.231  0.00  0.00    +0.000 HD
ENDBRANCH  10  23
ENDBRANCH   1  13
BRANCH   5  25
ATOM     25  C   UNL     1       2.252   7.190  19.166  0.00  0.00    +0.000 A 
ATOM     26  C   UNL     1       3.081   6.611  18.191  0.00  0.00    +0.000 A 
ATOM     27  C   UNL     1       3.522   5.292  18.317  0.00  0.00    +0.000 A 
ATOM     28  C   UNL     1       3.147   4.549  19.440  0.00  0.00    +0.000 A 
ATOM     29  C   UNL     1       2.306   5.102  20.408  0.00  0.00    +0.000 A 
ATOM     30  C   UNL     1       1.868   6.418  20.274  0.00  0.00    +0.000 A 
BRANCH  28  31
ATOM     31  S   UNL     1       3.732   2.885  19.627  0.00  0.00    +0.000 S 
ATOM     32  C   UNL     1       3.050   2.406  21.193  0.00  0.00    +0.000 C 
ATOM     33  O   UNL     1       3.103   2.083  18.596  0.00  0.00    +0.000 OA
ATOM     34  O   UNL     1       5.176   2.933  19.757  0.00  0.00    +0.000 OA
ENDBRANCH  28  31
ENDBRANCH   5  25
TORSDOF 4
ENDMDL
MODEL 9
REMARK VINA RESULT:      -8.0      2.125      2.704
REMARK  Name = 
REMARK  7 active torsions:
REMARK  status: ('A' for Active; 'I' for Inactive)
REMARK    1  A    between atoms: C_1  and  C_2
REMARK    2  A    between atoms: C_6  and  C_7
REMARK    3  A    between atoms: N_8  and  C_9
REMARK    4  A    between atoms: C_12  and  C_13
REMARK    5  A    between atoms: C_17  and  C_18
REMARK    6  A    between atoms: C_21  and  S_22
REMARK    7  A    between atoms: S_22  and  C_23
REMARK                            x       y       z     vdW  Elec       q    Type
REMARK                         _______ _______ _______ _____ _____    ______ ____
ROOT
ATOM      1  C   UNL     1       1.374   9.080  19.515  0.00  0.00    +0.000 A 
ATOM      2  C   UNL     1       1.404   9.636  20.898  0.00  0.00    +0.000 A 
ATOM      3  N   UNL     1       0.721  10.657  21.328  0.00  0.00    +0.000 NA
ATOM      4  C   UNL     1      -0.101  11.265  20.410  0.00  0.00    +0.000 A 
ATOM      5  C   UNL     1      -0.948  12.357  20.488  0.00  0.00    +0.000 A 
ATOM      6  C   UNL     1      -1.522  12.450  19.202  0.00  0.00    +0.000 A 
ATOM      7  N   UNL     1      -1.083  11.515  18.359  0.00  0.00    +0.000 NA
ATOM      8  N   UNL     1      -0.210  10.789  19.096  0.00  0.00    +0.000 N 
ATOM      9  C   UNL     1       0.538   9.703  18.668  0.00  0.00    +0.000 A 
ENDROOT
BRANCH   1  13
ATOM     10  C   UNL     1       3.919   5.809  18.346  0.00  0.00    +0.000 A 
ATOM     11  C   UNL     1       3.195   5.804  19.545  0.00  0.00    +0.000 A 
ATOM     12  C   UNL     1       2.318   6.836  19.898  0.00  0.00    +0.000 A 
ATOM     13  C   UNL     1       2.206   7.965  19.091  0.00  0.00    +0.000 A 
ATOM     14  C   UNL     1       2.935   8.022  17.909  0.00  0.00    +0.000 A 
ATOM     15  C   UNL     1       3.737   6.937  17.531  0.00  0.00    +0.000 A 
BRANCH  10  23
ATOM     16  C   UNL     1       2.794   3.407  16.929  0.00  0.00    +0.000 C 
ATOM     17  C   UNL     1       4.285   3.538  17.246  0.00  0.00    +0.000 C 
ATOM     18  C   UNL     1       5.046   3.434  15.884  0.00  0.00    +0.000 C 
ATOM     19  N   UNL     1       6.513   3.467  15.997  0.00  0.00    +0.000 NA
ATOM     20  C   UNL     1       6.917   4.677  16.732  0.00  0.00    +0.000 C 
ATOM     21  C   UNL     1       6.243   4.782  18.127  0.00  0.00    +0.000 C 
ATOM     22  C   UNL     1       6.877   5.919  18.929  0.00  0.00    +0.000 C 
ATOM     23  N   UNL     1       4.747   4.769  17.980  0.00  0.00    +0.000 N 
ATOM     24  H   UNL     1       6.917   3.490  15.061  0.00  0.00    +0.000 HD
ENDBRANCH  10  23
ENDBRANCH   1  13
BRANCH   5  25
ATOM     25  C   UNL     1      -1.167  13.187  21.663  0.00  0.00    +0.000 A 
ATOM     26  C   UNL     1      -2.208  12.914  22.565  0.00  0.00    +0.000 A 
ATOM     27  C   UNL     1      -2.390  13.699  23.707  0.00  0.00    +0.000 A 
ATOM     28  C   UNL     1      -1.510  14.754  23.960  0.00  0.00    +0.000 A 
ATOM     29  C   UNL     1      -0.482  15.052  23.062  0.00  0.00    +0.000 A 
ATOM     30  C   UNL     1      -0.308  14.267  21.925  0.00  0.00    +0.000 A 
BRANCH  28  31
ATOM     31  S   UNL     1      -1.711  15.732  25.426  0.00  0.00    +0.000 S 
ATOM     32  C   UNL     1      -1.816  17.382  24.782  0.00  0.00    +0.000 C 
ATOM     33  O   UNL     1      -2.995  15.391  26.006  0.00  0.00    +0.000 OA
ATOM     34  O   UNL     1      -0.489  15.627  26.202  0.00  0.00    +0.000 OA
ENDBRANCH  28  31
ENDBRANCH   5  25
TORSDOF 4
ENDMDL
