MODEL 1
REMARK VINA RESULT:      -7.1      0.000      0.000
REMARK  Name = 
REMARK  8 active torsions:
REMARK  status: ('A' for Active; 'I' for Inactive)
REMARK    1  A    between atoms: C_1  and  N_2
REMARK    2  A    between atoms: N_2  and  C_3
REMARK    3  A    between atoms: N_2  and  C_4
REMARK    4  A    between atoms: C_4  and  C_5
REMARK    5  A    between atoms: C_5  and  N_6
REMARK    6  A    between atoms: N_6  and  C_7
REMARK    7  A    between atoms: N_6  and  C_8
REMARK    8  A    between atoms: C_18  and  O_19
REMARK                            x       y       z     vdW  Elec       q    Type
REMARK                         _______ _______ _______ _____ _____    ______ ____
ROOT
ATOM      1  C   UNL     1       5.037   4.444  18.050  0.00  0.00    +0.000 A 
ATOM      2  C   UNL     1       5.007   3.291  18.881  0.00  0.00    +0.000 A 
ATOM      3  C   UNL     1       4.056   3.080  19.902  0.00  0.00    +0.000 A 
ATOM      4  C   UNL     1       3.131   4.093  20.146  0.00  0.00    +0.000 A 
ATOM      5  N   UNL     1       2.120   4.203  21.068  0.00  0.00    +0.000 NA
ATOM      6  C   UNL     1       1.596   5.398  20.867  0.00  0.00    +0.000 A 
ATOM      7  N   UNL     1       2.233   6.065  19.854  0.00  0.00    +0.000 N 
ATOM      8  C   UNL     1       2.099   7.365  19.344  0.00  0.00    +0.000 A 
ATOM      9  C   UNL     1       1.275   8.311  19.961  0.00  0.00    +0.000 A 
ATOM     10  C   UNL     1       1.214   9.602  19.433  0.00  0.00    +0.000 A 
ATOM     11  C   UNL     1       1.949   9.923  18.291  0.00  0.00    +0.000 A 
ATOM     12  C   UNL     1       2.771   8.986  17.673  0.00  0.00    +0.000 A 
ATOM     13  C   UNL     1       2.863   7.699  18.205  0.00  0.00    +0.000 A 
ATOM     14  C   UNL     1       3.777   6.697  17.547  0.00  0.00    +0.000 A 
ATOM     15  O   UNL     1       4.205   6.933  16.427  0.00  0.00    +0.000 OA
ATOM     16  C   UNL     1       4.062   5.437  18.297  0.00  0.00    +0.000 A 
ATOM     17  C   UNL     1       3.185   5.218  19.359  0.00  0.00    +0.000 A 
ENDROOT
BRANCH   1  18
ATOM     18  N   UNL     1       5.993   4.560  17.027  0.00  0.00    +0.000 N 
ATOM     19  C   UNL     1       7.367   4.787  17.489  0.00  0.00    +0.000 C 
BRANCH  18  20
ATOM     20  C   UNL     1       5.866   3.737  15.805  0.00  0.00    +0.000 C 
BRANCH  20  21
ATOM     21  C   UNL     1       5.970   4.606  14.525  0.00  0.00    +0.000 C 
BRANCH  21  23
ATOM     22  C   UNL     1       5.896   3.447  12.433  0.00  0.00    +0.000 C 
ATOM     23  N   UNL     1       6.791   4.037  13.435  0.00  0.00    +0.000 NA
ATOM     24  C   UNL     1       7.635   5.054  12.807  0.00  0.00    +0.000 C 
ENDBRANCH  21  23
ENDBRANCH  20  21
ENDBRANCH  18  20
ENDBRANCH   1  18
BRANCH  11  25
ATOM     25  O   UNL     1       1.888  11.169  17.744  0.00  0.00    +0.000 OA
ATOM     26  H   UNL     1       1.013  11.299  17.344  0.00  0.00    +0.000 HD
ENDBRANCH  11  25
TORSDOF 5
ENDMDL
MODEL 2
REMARK VINA RESULT:      -7.0      2.161      6.827
REMARK  Name = 
REMARK  8 active torsions:
REMARK  status: ('A' for Active; 'I' for Inactive)
REMARK    1  A    between atoms: C_1  and  N_2
REMARK    2  A    between atoms: N_2  and  C_3
REMARK    3  A    between atoms: N_2  and  C_4
REMARK    4  A    between atoms: C_4  and  C_5
REMARK    5  A    between atoms: C_5  and  N_6
REMARK    6  A    between atoms: N_6  and  C_7
REMARK    7  A    between atoms: N_6  and  C_8
REMARK    8  A    between atoms: C_18  and  O_19
REMARK                            x       y       z     vdW  Elec       q    Type
REMARK                         _______ _______ _______ _____ _____    ______ ____
ROOT
ATOM      1  C   UNL     1       2.238   6.209  19.573  0.00  0.00    +0.000 A 
ATOM      2  C   UNL     1       1.373   5.368  20.326  0.00  0.00    +0.000 A 
ATOM      3  C   UNL     1       1.415   3.958  20.287  0.00  0.00    +0.000 A 
ATOM      4  C   UNL     1       2.319   3.360  19.411  0.00  0.00    +0.000 A 
ATOM      5  N   UNL     1       2.577   2.043  19.125  0.00  0.00    +0.000 NA
ATOM      6  C   UNL     1       3.504   2.068  18.185  0.00  0.00    +0.000 A 
ATOM      7  N   UNL     1       3.852   3.350  17.852  0.00  0.00    +0.000 N 
ATOM      8  C   UNL     1       4.706   3.875  16.871  0.00  0.00    +0.000 A 
ATOM      9  C   UNL     1       5.298   3.059  15.903  0.00  0.00    +0.000 A 
ATOM     10  C   UNL     1       6.106   3.644  14.926  0.00  0.00    +0.000 A 
ATOM     11  C   UNL     1       6.331   5.021  14.943  0.00  0.00    +0.000 A 
ATOM     12  C   UNL     1       5.744   5.840  15.903  0.00  0.00    +0.000 A 
ATOM     13  C   UNL     1       4.913   5.272  16.870  0.00  0.00    +0.000 A 
ATOM     14  C   UNL     1       4.259   6.167  17.891  0.00  0.00    +0.000 A 
ATOM     15  O   UNL     1       4.668   7.311  18.024  0.00  0.00    +0.000 OA
ATOM     16  C   UNL     1       3.169   5.572  18.722  0.00  0.00    +0.000 A 
ATOM     17  C   UNL     1       3.131   4.180  18.664  0.00  0.00    +0.000 A 
ENDROOT
BRANCH   1  18
ATOM     18  N   UNL     1       2.159   7.606  19.699  0.00  0.00    +0.000 N 
ATOM     19  C   UNL     1       1.709   8.311  18.493  0.00  0.00    +0.000 C 
BRANCH  18  20
ATOM     20  C   UNL     1       1.725   8.206  20.979  0.00  0.00    +0.000 C 
BRANCH  20  21
ATOM     21  C   UNL     1       0.844   9.460  20.745  0.00  0.00    +0.000 C 
BRANCH  21  23
ATOM     22  C   UNL     1      -0.099  11.522  21.510  0.00  0.00    +0.000 C 
ATOM     23  N   UNL     1       0.639  10.324  21.927  0.00  0.00    +0.000 NA
ATOM     24  C   UNL     1      -0.100   9.630  22.982  0.00  0.00    +0.000 C 
ENDBRANCH  21  23
ENDBRANCH  20  21
ENDBRANCH  18  20
ENDBRANCH   1  18
BRANCH  11  25
ATOM     25  O   UNL     1       7.134   5.612  14.014  0.00  0.00    +0.000 OA
ATOM     26  H   UNL     1       6.581   6.070  13.361  0.00  0.00    +0.000 HD
ENDBRANCH  11  25
TORSDOF 5
ENDMDL
MODEL 3
REMARK VINA RESULT:      -6.7      0.894      1.042
REMARK  Name = 
REMARK  8 active torsions:
REMARK  status: ('A' for Active; 'I' for Inactive)
REMARK    1  A    between atoms: C_1  and  N_2
REMARK    2  A    between atoms: N_2  and  C_3
REMARK    3  A    between atoms: N_2  and  C_4
REMARK    4  A    between atoms: C_4  and  C_5
REMARK    5  A    between atoms: C_5  and  N_6
REMARK    6  A    between atoms: N_6  and  C_7
REMARK    7  A    between atoms: N_6  and  C_8
REMARK    8  A    between atoms: C_18  and  O_19
REMARK                            x       y       z     vdW  Elec       q    Type
REMARK                         _______ _______ _______ _____ _____    ______ ____
ROOT
ATOM      1  C   UNL     1       4.932   5.328  17.664  0.00  0.00    +0.000 A 
ATOM      2  C   UNL     1       5.241   4.053  18.214  0.00  0.00    +0.000 A 
ATOM      3  C   UNL     1       4.525   3.459  19.275  0.00  0.00    +0.000 A 
ATOM      4  C   UNL     1       3.494   4.195  19.854  0.00  0.00    +0.000 A 
ATOM      5  N   UNL     1       2.648   3.915  20.898  0.00  0.00    +0.000 NA
ATOM      6  C   UNL     1       1.900   4.994  21.037  0.00  0.00    +0.000 A 
ATOM      7  N   UNL     1       2.234   5.961  20.125  0.00  0.00    +0.000 N 
ATOM      8  C   UNL     1       1.794   7.280  19.940  0.00  0.00    +0.000 A 
ATOM      9  C   UNL     1       0.935   7.900  20.852  0.00  0.00    +0.000 A 
ATOM     10  C   UNL     1       0.565   9.229  20.638  0.00  0.00    +0.000 A 
ATOM     11  C   UNL     1       1.032   9.908  19.512  0.00  0.00    +0.000 A 
ATOM     12  C   UNL     1       1.888   9.298  18.600  0.00  0.00    +0.000 A 
ATOM     13  C   UNL     1       2.288   7.978  18.816  0.00  0.00    +0.000 A 
ATOM     14  C   UNL     1       3.237   7.331  17.840  0.00  0.00    +0.000 A 
ATOM     15  O   UNL     1       3.424   7.862  16.756  0.00  0.00    +0.000 OA
ATOM     16  C   UNL     1       3.857   6.034  18.248  0.00  0.00    +0.000 A 
ATOM     17  C   UNL     1       3.221   5.439  19.337  0.00  0.00    +0.000 A 
ENDROOT
BRANCH   1  18
ATOM     18  N   UNL     1       5.669   5.833  16.579  0.00  0.00    +0.000 N 
ATOM     19  C   UNL     1       7.086   6.090  16.861  0.00  0.00    +0.000 C 
BRANCH  18  20
ATOM     20  C   UNL     1       5.374   5.365  15.208  0.00  0.00    +0.000 C 
BRANCH  20  21
ATOM     21  C   UNL     1       6.003   3.974  14.938  0.00  0.00    +0.000 C 
BRANCH  21  23
ATOM     22  C   UNL     1       5.772   3.489  12.606  0.00  0.00    +0.000 C 
ATOM     23  N   UNL     1       6.732   3.842  13.659  0.00  0.00    +0.000 NA
ATOM     24  C   UNL     1       7.424   5.080  13.301  0.00  0.00    +0.000 C 
ENDBRANCH  21  23
ENDBRANCH  20  21
ENDBRANCH  18  20
ENDBRANCH   1  18
BRANCH  11  25
ATOM     25  O   UNL     1       0.666  11.198  19.268  0.00  0.00    +0.000 OA
ATOM     26  H   UNL     1       0.297  11.583  20.078  0.00  0.00    +0.000 HD
ENDBRANCH  11  25
TORSDOF 5
ENDMDL
MODEL 4
REMARK VINA RESULT:      -6.0      1.345      2.411
REMARK  Name = 
REMARK  8 active torsions:
REMARK  status: ('A' for Active; 'I' for Inactive)
REMARK    1  A    between atoms: C_1  and  N_2
REMARK    2  A    between atoms: N_2  and  C_3
REMARK    3  A    between atoms: N_2  and  C_4
REMARK    4  A    between atoms: C_4  and  C_5
REMARK    5  A    between atoms: C_5  and  N_6
REMARK    6  A    between atoms: N_6  and  C_7
REMARK    7  A    between atoms: N_6  and  C_8
REMARK    8  A    between atoms: C_18  and  O_19
REMARK                            x       y       z     vdW  Elec       q    Type
REMARK                         _______ _______ _______ _____ _____    ______ ____
ROOT
ATOM      1  C   UNL     1       4.909   3.982  18.062  0.00  0.00    +0.000 A 
ATOM      2  C   UNL     1       4.847   2.871  18.947  0.00  0.00    +0.000 A 
ATOM      3  C   UNL     1       3.923   2.760  20.008  0.00  0.00    +0.000 A 
ATOM      4  C   UNL     1       3.065   3.833  20.236  0.00  0.00    +0.000 A 
ATOM      5  N   UNL     1       2.095   4.041  21.185  0.00  0.00    +0.000 NA
ATOM      6  C   UNL     1       1.631   5.254  20.946  0.00  0.00    +0.000 A 
ATOM      7  N   UNL     1       2.265   5.837  19.882  0.00  0.00    +0.000 N 
ATOM      8  C   UNL     1       2.184   7.119  19.317  0.00  0.00    +0.000 A 
ATOM      9  C   UNL     1       1.436   8.137  19.916  0.00  0.00    +0.000 A 
ATOM     10  C   UNL     1       1.426   9.404  19.331  0.00  0.00    +0.000 A 
ATOM     11  C   UNL     1       2.135   9.631  18.151  0.00  0.00    +0.000 A 
ATOM     12  C   UNL     1       2.883   8.623  17.549  0.00  0.00    +0.000 A 
ATOM     13  C   UNL     1       2.923   7.358  18.138  0.00  0.00    +0.000 A 
ATOM     14  C   UNL     1       3.756   6.277  17.497  0.00  0.00    +0.000 A 
ATOM     15  O   UNL     1       4.155   6.438  16.353  0.00  0.00    +0.000 OA
ATOM     16  C   UNL     1       3.999   5.038  18.295  0.00  0.00    +0.000 A 
ATOM     17  C   UNL     1       3.151   4.917  19.395  0.00  0.00    +0.000 A 
ENDROOT
BRANCH   1  18
ATOM     18  N   UNL     1       5.832   3.998  17.003  0.00  0.00    +0.000 N 
ATOM     19  C   UNL     1       5.246   4.224  15.676  0.00  0.00    +0.000 C 
BRANCH  18  20
ATOM     20  C   UNL     1       7.175   4.581  17.206  0.00  0.00    +0.000 C 
BRANCH  20  21
ATOM     21  C   UNL     1       7.195   6.090  16.853  0.00  0.00    +0.000 C 
BRANCH  21  23
ATOM     22  C   UNL     1       8.000   6.346  19.092  0.00  0.00    +0.000 C 
ATOM     23  N   UNL     1       7.273   7.013  18.005  0.00  0.00    +0.000 NA
ATOM     24  C   UNL     1       7.947   8.263  17.654  0.00  0.00    +0.000 C 
ENDBRANCH  21  23
ENDBRANCH  20  21
ENDBRANCH  18  20
ENDBRANCH   1  18
BRANCH  11  25
ATOM     25  O   UNL     1       2.122  10.853  17.547  0.00  0.00    +0.000 OA
ATOM     26  H   UNL     1       1.334  11.341  17.834  0.00  0.00    +0.000 HD
ENDBRANCH  11  25
TORSDOF 5
ENDMDL
MODEL 5
REMARK VINA RESULT:      -5.9      4.663      8.429
REMARK  Name = 
REMARK  8 active torsions:
REMARK  status: ('A' for Active; 'I' for Inactive)
REMARK    1  A    between atoms: C_1  and  N_2
REMARK    2  A    between atoms: N_2  and  C_3
REMARK    3  A    between atoms: N_2  and  C_4
REMARK    4  A    between atoms: C_4  and  C_5
REMARK    5  A    between atoms: C_5  and  N_6
REMARK    6  A    between atoms: N_6  and  C_7
REMARK    7  A    between atoms: N_6  and  C_8
REMARK    8  A    between atoms: C_18  and  O_19
REMARK                            x       y       z     vdW  Elec       q    Type
REMARK                         _______ _______ _______ _____ _____    ______ ____
ROOT
ATOM      1  C   UNL     1      -1.051  12.022  19.932  0.00  0.00    +0.000 A 
ATOM      2  C   UNL     1      -1.700  12.462  21.119  0.00  0.00    +0.000 A 
ATOM      3  C   UNL     1      -1.484  11.891  22.392  0.00  0.00    +0.000 A 
ATOM      4  C   UNL     1      -0.631  10.793  22.474  0.00  0.00    +0.000 A 
ATOM      5  N   UNL     1      -0.247  10.014  23.537  0.00  0.00    +0.000 NA
ATOM      6  C   UNL     1       0.543   9.090  23.022  0.00  0.00    +0.000 A 
ATOM      7  N   UNL     1       0.681   9.241  21.667  0.00  0.00    +0.000 N 
ATOM      8  C   UNL     1       1.329   8.472  20.690  0.00  0.00    +0.000 A 
ATOM      9  C   UNL     1       1.892   7.228  20.991  0.00  0.00    +0.000 A 
ATOM     10  C   UNL     1       2.488   6.489  19.968  0.00  0.00    +0.000 A 
ATOM     11  C   UNL     1       2.538   7.007  18.673  0.00  0.00    +0.000 A 
ATOM     12  C   UNL     1       1.979   8.244  18.366  0.00  0.00    +0.000 A 
ATOM     13  C   UNL     1       1.356   8.982  19.373  0.00  0.00    +0.000 A 
ATOM     14  C   UNL     1       0.729  10.309  19.029  0.00  0.00    +0.000 A 
ATOM     15  O   UNL     1       1.004  10.834  17.960  0.00  0.00    +0.000 OA
ATOM     16  C   UNL     1      -0.162  10.930  20.055  0.00  0.00    +0.000 A 
ATOM     17  C   UNL     1      -0.031  10.355  21.318  0.00  0.00    +0.000 A 
ENDROOT
BRANCH   1  18
ATOM     18  N   UNL     1      -1.289  12.670  18.709  0.00  0.00    +0.000 N 
ATOM     19  C   UNL     1      -0.306  13.701  18.354  0.00  0.00    +0.000 C 
BRANCH  18  20
ATOM     20  C   UNL     1      -1.844  11.909  17.569  0.00  0.00    +0.000 C 
BRANCH  20  21
ATOM     21  C   UNL     1      -3.093  11.092  17.990  0.00  0.00    +0.000 C 
BRANCH  21  23
ATOM     22  C   UNL     1      -5.118  11.890  16.997  0.00  0.00    +0.000 C 
ATOM     23  N   UNL     1      -4.085  10.851  16.921  0.00  0.00    +0.000 NA
ATOM     24  C   UNL     1      -3.467  10.864  15.595  0.00  0.00    +0.000 C 
ENDBRANCH  21  23
ENDBRANCH  20  21
ENDBRANCH  18  20
ENDBRANCH   1  18
BRANCH  11  25
ATOM     25  O   UNL     1       3.134   6.315  17.662  0.00  0.00    +0.000 OA
ATOM     26  H   UNL     1       3.461   6.941  16.997  0.00  0.00    +0.000 HD
ENDBRANCH  11  25
TORSDOF 5
ENDMDL
MODEL 6
REMARK VINA RESULT:      -5.8      8.364     10.821
REMARK  Name = 
REMARK  8 active torsions:
REMARK  status: ('A' for Active; 'I' for Inactive)
REMARK    1  A    between atoms: C_1  and  N_2
REMARK    2  A    between atoms: N_2  and  C_3
REMARK    3  A    between atoms: N_2  and  C_4
REMARK    4  A    between atoms: C_4  and  C_5
REMARK    5  A    between atoms: C_5  and  N_6
REMARK    6  A    between atoms: N_6  and  C_7
REMARK    7  A    between atoms: N_6  and  C_8
REMARK    8  A    between atoms: C_18  and  O_19
REMARK                            x       y       z     vdW  Elec       q    Type
REMARK                         _______ _______ _______ _____ _____    ______ ____
ROOT
ATOM      1  C   UNL     1      -1.715  12.559  19.887  0.00  0.00    +0.000 A 
ATOM      2  C   UNL     1      -1.333  12.076  18.605  0.00  0.00    +0.000 A 
ATOM      3  C   UNL     1      -2.248  11.622  17.630  0.00  0.00    +0.000 A 
ATOM      4  C   UNL     1      -3.597  11.589  17.972  0.00  0.00    +0.000 A 
ATOM      5  N   UNL     1      -4.706  11.182  17.273  0.00  0.00    +0.000 NA
ATOM      6  C   UNL     1      -5.718  11.335  18.108  0.00  0.00    +0.000 A 
ATOM      7  N   UNL     1      -5.304  11.822  19.320  0.00  0.00    +0.000 N 
ATOM      8  C   UNL     1      -5.979  12.060  20.526  0.00  0.00    +0.000 A 
ATOM      9  C   UNL     1      -7.309  11.670  20.709  0.00  0.00    +0.000 A 
ATOM     10  C   UNL     1      -7.917  11.896  21.945  0.00  0.00    +0.000 A 
ATOM     11  C   UNL     1      -7.204  12.526  22.966  0.00  0.00    +0.000 A 
ATOM     12  C   UNL     1      -5.880  12.916  22.791  0.00  0.00    +0.000 A 
ATOM     13  C   UNL     1      -5.251  12.673  21.569  0.00  0.00    +0.000 A 
ATOM     14  C   UNL     1      -3.808  13.072  21.394  0.00  0.00    +0.000 A 
ATOM     15  O   UNL     1      -3.302  13.830  22.208  0.00  0.00    +0.000 OA
ATOM     16  C   UNL     1      -3.095  12.549  20.190  0.00  0.00    +0.000 A 
ATOM     17  C   UNL     1      -3.956  12.029  19.224  0.00  0.00    +0.000 A 
ENDROOT
BRANCH   1  18
ATOM     18  N   UNL     1      -0.746  13.033  20.786  0.00  0.00    +0.000 N 
ATOM     19  C   UNL     1      -0.292  12.051  21.779  0.00  0.00    +0.000 C 
BRANCH  18  20
ATOM     20  C   UNL     1       0.287  13.984  20.322  0.00  0.00    +0.000 C 
BRANCH  20  21
ATOM     21  C   UNL     1       1.701  13.350  20.370  0.00  0.00    +0.000 C 
BRANCH  21  23
ATOM     22  C   UNL     1       2.507  12.669  18.222  0.00  0.00    +0.000 C 
ATOM     23  N   UNL     1       2.598  13.711  19.252  0.00  0.00    +0.000 NA
ATOM     24  C   UNL     1       2.248  15.009  18.674  0.00  0.00    +0.000 C 
ENDBRANCH  21  23
ENDBRANCH  20  21
ENDBRANCH  18  20
ENDBRANCH   1  18
BRANCH  11  25
ATOM     25  O   UNL     1      -7.782  12.778  24.174  0.00  0.00    +0.000 OA
ATOM     26  H   UNL     1      -7.087  12.898  24.841  0.00  0.00    +0.000 HD
ENDBRANCH  11  25
TORSDOF 5
ENDMDL
MODEL 7
REMARK VINA RESULT:      -5.8      7.120     10.873
REMARK  Name = 
REMARK  8 active torsions:
REMARK  status: ('A' for Active; 'I' for Inactive)
REMARK    1  A    between atoms: C_1  and  N_2
REMARK    2  A    between atoms: N_2  and  C_3
REMARK    3  A    between atoms: N_2  and  C_4
REMARK    4  A    between atoms: C_4  and  C_5
REMARK    5  A    between atoms: C_5  and  N_6
REMARK    6  A    between atoms: N_6  and  C_7
REMARK    7  A    between atoms: N_6  and  C_8
REMARK    8  A    between atoms: C_18  and  O_19
REMARK                            x       y       z     vdW  Elec       q    Type
REMARK                         _______ _______ _______ _____ _____    ______ ____
ROOT
ATOM      1  C   UNL     1      -1.928  12.243  19.358  0.00  0.00    +0.000 A 
ATOM      2  C   UNL     1      -1.842  11.720  18.038  0.00  0.00    +0.000 A 
ATOM      3  C   UNL     1      -2.964  11.386  17.249  0.00  0.00    +0.000 A 
ATOM      4  C   UNL     1      -4.225  11.521  17.825  0.00  0.00    +0.000 A 
ATOM      5  N   UNL     1      -5.482  11.256  17.342  0.00  0.00    +0.000 NA
ATOM      6  C   UNL     1      -6.302  11.532  18.339  0.00  0.00    +0.000 A 
ATOM      7  N   UNL     1      -5.623  11.959  19.449  0.00  0.00    +0.000 N 
ATOM      8  C   UNL     1      -6.038  12.276  20.750  0.00  0.00    +0.000 A 
ATOM      9  C   UNL     1      -7.352  12.054  21.173  0.00  0.00    +0.000 A 
ATOM     10  C   UNL     1      -7.698  12.350  22.493  0.00  0.00    +0.000 A 
ATOM     11  C   UNL     1      -6.743  12.883  23.360  0.00  0.00    +0.000 A 
ATOM     12  C   UNL     1      -5.433  13.106  22.946  0.00  0.00    +0.000 A 
ATOM     13  C   UNL     1      -5.067  12.790  21.636  0.00  0.00    +0.000 A 
ATOM     14  C   UNL     1      -3.640  13.008  21.201  0.00  0.00    +0.000 A 
ATOM     15  O   UNL     1      -2.907  13.695  21.898  0.00  0.00    +0.000 OA
ATOM     16  C   UNL     1      -3.223  12.404  19.900  0.00  0.00    +0.000 A 
ATOM     17  C   UNL     1      -4.298  11.998  19.112  0.00  0.00    +0.000 A 
ENDROOT
BRANCH   1  18
ATOM     18  N   UNL     1      -0.763  12.590  20.063  0.00  0.00    +0.000 N 
ATOM     19  C   UNL     1      -0.417  14.016  20.022  0.00  0.00    +0.000 C 
BRANCH  18  20
ATOM     20  C   UNL     1      -0.435  11.898  21.327  0.00  0.00    +0.000 C 
BRANCH  20  21
ATOM     21  C   UNL     1       0.797  10.971  21.162  0.00  0.00    +0.000 C 
BRANCH  21  23
ATOM     22  C   UNL     1      -0.276   9.896  23.011  0.00  0.00    +0.000 C 
ATOM     23  N   UNL     1       0.928   9.899  22.171  0.00  0.00    +0.000 NA
ATOM     24  C   UNL     1       1.098   8.587  21.547  0.00  0.00    +0.000 C 
ENDBRANCH  21  23
ENDBRANCH  20  21
ENDBRANCH  18  20
ENDBRANCH   1  18
BRANCH  11  25
ATOM     25  O   UNL     1      -7.061  13.202  24.646  0.00  0.00    +0.000 OA
ATOM     26  H   UNL     1      -7.579  14.022  24.652  0.00  0.00    +0.000 HD
ENDBRANCH  11  25
TORSDOF 5
ENDMDL
MODEL 8
REMARK VINA RESULT:      -5.8      6.986      9.764
REMARK  Name = 
REMARK  8 active torsions:
REMARK  status: ('A' for Active; 'I' for Inactive)
REMARK    1  A    between atoms: C_1  and  N_2
REMARK    2  A    between atoms: N_2  and  C_3
REMARK    3  A    between atoms: N_2  and  C_4
REMARK    4  A    between atoms: C_4  and  C_5
REMARK    5  A    between atoms: C_5  and  N_6
REMARK    6  A    between atoms: N_6  and  C_7
REMARK    7  A    between atoms: N_6  and  C_8
REMARK    8  A    between atoms: C_18  and  O_19
REMARK                            x       y       z     vdW  Elec       q    Type
REMARK                         _______ _______ _______ _____ _____    ______ ____
ROOT
ATOM      1  C   UNL     1      -1.067  10.882  18.805  0.00  0.00    +0.000 A 
ATOM      2  C   UNL     1      -1.309  10.274  17.543  0.00  0.00    +0.000 A 
ATOM      3  C   UNL     1      -2.531  10.372  16.843  0.00  0.00    +0.000 A 
ATOM      4  C   UNL     1      -3.578  11.055  17.458  0.00  0.00    +0.000 A 
ATOM      5  N   UNL     1      -4.870  11.295  17.061  0.00  0.00    +0.000 NA
ATOM      6  C   UNL     1      -5.423  11.955  18.061  0.00  0.00    +0.000 A 
ATOM      7  N   UNL     1      -4.540  12.147  19.090  0.00  0.00    +0.000 N 
ATOM      8  C   UNL     1      -4.683  12.702  20.370  0.00  0.00    +0.000 A 
ATOM      9  C   UNL     1      -5.935  13.071  20.872  0.00  0.00    +0.000 A 
ATOM     10  C   UNL     1      -6.021  13.579  22.169  0.00  0.00    +0.000 A 
ATOM     11  C   UNL     1      -4.864  13.736  22.933  0.00  0.00    +0.000 A 
ATOM     12  C   UNL     1      -3.615  13.371  22.441  0.00  0.00    +0.000 A 
ATOM     13  C   UNL     1      -3.517  12.836  21.155  0.00  0.00    +0.000 A 
ATOM     14  C   UNL     1      -2.166  12.417  20.637  0.00  0.00    +0.000 A 
ATOM     15  O   UNL     1      -1.163  12.792  21.227  0.00  0.00    +0.000 OA
ATOM     16  C   UNL     1      -2.137  11.600  19.386  0.00  0.00    +0.000 A 
ATOM     17  C   UNL     1      -3.346  11.614  18.692  0.00  0.00    +0.000 A 
ENDROOT
BRANCH   1  18
ATOM     18  N   UNL     1       0.192  10.772  19.419  0.00  0.00    +0.000 N 
ATOM     19  C   UNL     1       0.355   9.600  20.287  0.00  0.00    +0.000 C 
BRANCH  18  20
ATOM     20  C   UNL     1       1.407  11.186  18.685  0.00  0.00    +0.000 C 
BRANCH  20  21
ATOM     21  C   UNL     1       1.525  12.731  18.616  0.00  0.00    +0.000 C 
BRANCH  21  23
ATOM     22  C   UNL     1       3.109  14.524  18.668  0.00  0.00    +0.000 C 
ATOM     23  N   UNL     1       2.654  13.317  19.369  0.00  0.00    +0.000 NA
ATOM     24  C   UNL     1       2.271  13.656  20.740  0.00  0.00    +0.000 C 
ENDBRANCH  21  23
ENDBRANCH  20  21
ENDBRANCH  18  20
ENDBRANCH   1  18
BRANCH  11  25
ATOM     25  O   UNL     1      -4.920  14.252  24.194  0.00  0.00    +0.000 OA
ATOM     26  H   UNL     1      -4.833  15.217  24.147  0.00  0.00    +0.000 HD
ENDBRANCH  11  25
TORSDOF 5
ENDMDL
MODEL 9
REMARK VINA RESULT:      -5.7      7.159     10.625
REMARK  Name = 
REMARK  8 active torsions:
REMARK  status: ('A' for Active; 'I' for Inactive)
REMARK    1  A    between atoms: C_1  and  N_2
REMARK    2  A    between atoms: N_2  and  C_3
REMARK    3  A    between atoms: N_2  and  C_4
REMARK    4  A    between atoms: C_4  and  C_5
REMARK    5  A    between atoms: C_5  and  N_6
REMARK    6  A    between atoms: N_6  and  C_7
REMARK    7  A    between atoms: N_6  and  C_8
REMARK    8  A    between atoms: C_18  and  O_19
REMARK                            x       y       z     vdW  Elec       q    Type
REMARK                         _______ _______ _______ _____ _____    ______ ____
ROOT
ATOM      1  C   UNL     1      -2.240  11.560  18.305  0.00  0.00    +0.000 A 
ATOM      2  C   UNL     1      -2.608  11.200  16.979  0.00  0.00    +0.000 A 
ATOM      3  C   UNL     1      -3.924  11.290  16.476  0.00  0.00    +0.000 A 
ATOM      4  C   UNL     1      -4.927  11.700  17.351  0.00  0.00    +0.000 A 
ATOM      5  N   UNL     1      -6.279  11.858  17.180  0.00  0.00    +0.000 NA
ATOM      6  C   UNL     1      -6.738  12.226  18.362  0.00  0.00    +0.000 A 
ATOM      7  N   UNL     1      -5.734  12.308  19.290  0.00  0.00    +0.000 N 
ATOM      8  C   UNL     1      -5.738  12.566  20.669  0.00  0.00    +0.000 A 
ATOM      9  C   UNL     1      -6.931  12.669  21.391  0.00  0.00    +0.000 A 
ATOM     10  C   UNL     1      -6.872  12.885  22.768  0.00  0.00    +0.000 A 
ATOM     11  C   UNL     1      -5.634  13.021  23.399  0.00  0.00    +0.000 A 
ATOM     12  C   UNL     1      -4.443  12.919  22.687  0.00  0.00    +0.000 A 
ATOM     13  C   UNL     1      -4.487  12.676  21.313  0.00  0.00    +0.000 A 
ATOM     14  C   UNL     1      -3.193  12.539  20.551  0.00  0.00    +0.000 A 
ATOM     15  O   UNL     1      -2.154  12.904  21.081  0.00  0.00    +0.000 OA
ATOM     16  C   UNL     1      -3.274  12.007  19.158  0.00  0.00    +0.000 A 
ATOM     17  C   UNL     1      -4.568  12.017  18.639  0.00  0.00    +0.000 A 
ENDROOT
BRANCH   1  18
ATOM     18  N   UNL     1      -0.899  11.479  18.718  0.00  0.00    +0.000 N 
ATOM     19  C   UNL     1      -0.192  12.764  18.776  0.00  0.00    +0.000 C 
BRANCH  18  20
ATOM     20  C   UNL     1      -0.505  10.495  19.749  0.00  0.00    +0.000 C 
BRANCH  20  21
ATOM     21  C   UNL     1       0.622  11.050  20.657  0.00  0.00    +0.000 C 
BRANCH  21  23
ATOM     22  C   UNL     1      -0.403  10.441  22.732  0.00  0.00    +0.000 C 
ATOM     23  N   UNL     1       0.823  10.330  21.933  0.00  0.00    +0.000 NA
ATOM     24  C   UNL     1       1.144   8.920  21.713  0.00  0.00    +0.000 C 
ENDBRANCH  21  23
ENDBRANCH  20  21
ENDBRANCH  18  20
ENDBRANCH   1  18
BRANCH  11  25
ATOM     25  O   UNL     1      -5.551  13.255  24.739  0.00  0.00    +0.000 OA
ATOM     26  H   UNL     1      -5.103  14.103  24.887  0.00  0.00    +0.000 HD
ENDBRANCH  11  25
TORSDOF 5
ENDMDL
