MODEL 1
REMARK VINA RESULT:      -8.2      0.000      0.000
REMARK  Name = 
REMARK  5 active torsions:
REMARK  status: ('A' for Active; 'I' for Inactive)
REMARK    1  A    between atoms: N_3  and  C_4
REMARK    2  A    between atoms: C_7  and  O_8
REMARK    3  A    between atoms: O_8  and  C_9
REMARK    4  A    between atoms: N_15  and  C_16
REMARK    5  A    between atoms: C_21  and  N_22
REMARK                            x       y       z     vdW  Elec       q    Type
REMARK                         _______ _______ _______ _____ _____    ______ ____
ROOT
ATOM      1  O   UNL     1       7.864   8.876  17.200  0.00  0.00    +0.000 OA
ATOM      2  C   UNL     1       8.298   8.379  18.233  0.00  0.00    +0.000 C 
ATOM      3  N   UNL     1       9.044   9.019  19.192  0.00  0.00    +0.000 N 
ATOM      4  N   UNL     1       8.040   7.055  18.519  0.00  0.00    +0.000 N 
ATOM      5  H   UNL     1       9.473   8.449  19.904  0.00  0.00    +0.000 HD
ATOM      6  H   UNL     1       8.516   6.587  19.276  0.00  0.00    +0.000 HD
ENDROOT
BRANCH   4   7
ATOM      7  C   UNL     1       7.267   6.290  17.533  0.00  0.00    +0.000 C 
ATOM      8  C   UNL     1       7.477   4.774  17.648  0.00  0.00    +0.000 C 
ATOM      9  O   UNL     1       6.708   4.140  18.668  0.00  0.00    +0.000 OA
ATOM     10  C   UNL     1       5.442   4.528  18.754  0.00  0.00    +0.000 A 
ATOM     11  N   UNL     1       4.503   3.843  19.361  0.00  0.00    +0.000 NA
ATOM     12  C   UNL     1       3.386   4.658  19.304  0.00  0.00    +0.000 A 
ATOM     13  C   UNL     1       3.667   5.848  18.658  0.00  0.00    +0.000 A 
ATOM     14  N   UNL     1       4.977   5.727  18.296  0.00  0.00    +0.000 N 
ATOM     15  C   UNL     1       5.778   6.676  17.558  0.00  0.00    +0.000 C 
BRANCH  12  16
ATOM     16  N   UNL     1       2.127   4.255  19.893  0.00  0.00    +0.000 N 
ATOM     17  O   UNL     1       1.890   4.679  21.035  0.00  0.00    +0.000 OA
ATOM     18  O   UNL     1       1.381   3.527  19.226  0.00  0.00    +0.000 OA
ENDBRANCH  12  16
ENDBRANCH   4   7
BRANCH   3  19
ATOM     19  C   UNL     1       9.397  10.388  19.162  0.00  0.00    +0.000 A 
ATOM     20  C   UNL     1       9.813  11.044  17.999  0.00  0.00    +0.000 A 
ATOM     21  C   UNL     1      10.172  12.392  18.026  0.00  0.00    +0.000 A 
ATOM     22  C   UNL     1      10.102  13.121  19.210  0.00  0.00    +0.000 A 
ATOM     23  C   UNL     1       9.702  12.476  20.379  0.00  0.00    +0.000 A 
ATOM     24  C   UNL     1       9.326  11.126  20.346  0.00  0.00    +0.000 A 
BRANCH  22  25
ATOM     25  O   UNL     1      10.536  14.406  19.111  0.00  0.00    +0.000 OA
BRANCH  25  26
ATOM     26  C   UNL     1       9.644  15.406  18.644  0.00  0.00    +0.000 C 
ATOM     27  F   UNL     1       8.348  15.036  18.626  0.00  0.00    +0.000 F 
ATOM     28  F   UNL     1       9.767  16.499  19.428  0.00  0.00    +0.000 F 
ATOM     29  F   UNL     1       9.998  15.751  17.385  0.00  0.00    +0.000 F 
ENDBRANCH  25  26
ENDBRANCH  22  25
ENDBRANCH   3  19
TORSDOF 5
ENDMDL
MODEL 2
REMARK VINA RESULT:      -8.2      1.185      1.327
REMARK  Name = 
REMARK  5 active torsions:
REMARK  status: ('A' for Active; 'I' for Inactive)
REMARK    1  A    between atoms: N_3  and  C_4
REMARK    2  A    between atoms: C_7  and  O_8
REMARK    3  A    between atoms: O_8  and  C_9
REMARK    4  A    between atoms: N_15  and  C_16
REMARK    5  A    between atoms: C_21  and  N_22
REMARK                            x       y       z     vdW  Elec       q    Type
REMARK                         _______ _______ _______ _____ _____    ______ ____
ROOT
ATOM      1  O   UNL     1       7.580   8.957  17.307  0.00  0.00    +0.000 OA
ATOM      2  C   UNL     1       8.185   8.402  18.217  0.00  0.00    +0.000 C 
ATOM      3  N   UNL     1       9.022   9.005  19.123  0.00  0.00    +0.000 N 
ATOM      4  N   UNL     1       8.048   7.043  18.403  0.00  0.00    +0.000 N 
ATOM      5  H   UNL     1       9.581   8.407  19.711  0.00  0.00    +0.000 HD
ATOM      6  H   UNL     1       8.655   6.544  19.039  0.00  0.00    +0.000 HD
ENDROOT
BRANCH   4   7
ATOM      7  C   UNL     1       7.189   6.315  17.463  0.00  0.00    +0.000 C 
ATOM      8  C   UNL     1       7.501   4.814  17.398  0.00  0.00    +0.000 C 
ATOM      9  O   UNL     1       6.923   4.039  18.446  0.00  0.00    +0.000 OA
ATOM     10  C   UNL     1       5.662   4.326  18.742  0.00  0.00    +0.000 A 
ATOM     11  N   UNL     1       4.861   3.524  19.401  0.00  0.00    +0.000 NA
ATOM     12  C   UNL     1       3.701   4.260  19.578  0.00  0.00    +0.000 A 
ATOM     13  C   UNL     1       3.818   5.520  19.020  0.00  0.00    +0.000 A 
ATOM     14  N   UNL     1       5.068   5.524  18.472  0.00  0.00    +0.000 N 
ATOM     15  C   UNL     1       5.699   6.590  17.728  0.00  0.00    +0.000 C 
BRANCH  12  16
ATOM     16  N   UNL     1       2.565   3.717  20.291  0.00  0.00    +0.000 N 
ATOM     17  O   UNL     1       1.490   4.322  20.161  0.00  0.00    +0.000 OA
ATOM     18  O   UNL     1       2.741   2.699  20.972  0.00  0.00    +0.000 OA
ENDBRANCH  12  16
ENDBRANCH   4   7
BRANCH   3  19
ATOM     19  C   UNL     1       9.286  10.394  19.180  0.00  0.00    +0.000 A 
ATOM     20  C   UNL     1       9.524  11.172  18.044  0.00  0.00    +0.000 A 
ATOM     21  C   UNL     1       9.802  12.535  18.154  0.00  0.00    +0.000 A 
ATOM     22  C   UNL     1       9.827  13.156  19.401  0.00  0.00    +0.000 A 
ATOM     23  C   UNL     1       9.606  12.387  20.542  0.00  0.00    +0.000 A 
ATOM     24  C   UNL     1       9.310  11.022  20.428  0.00  0.00    +0.000 A 
BRANCH  22  25
ATOM     25  O   UNL     1      10.169  14.472  19.373  0.00  0.00    +0.000 OA
BRANCH  25  26
ATOM     26  C   UNL     1      11.539  14.835  19.445  0.00  0.00    +0.000 C 
ATOM     27  F   UNL     1      11.998  15.503  18.369  0.00  0.00    +0.000 F 
ATOM     28  F   UNL     1      11.728  15.602  20.540  0.00  0.00    +0.000 F 
ATOM     29  F   UNL     1      12.279  13.712  19.587  0.00  0.00    +0.000 F 
ENDBRANCH  25  26
ENDBRANCH  22  25
ENDBRANCH   3  19
TORSDOF 5
ENDMDL
MODEL 3
REMARK VINA RESULT:      -8.1      0.295      1.104
REMARK  Name = 
REMARK  5 active torsions:
REMARK  status: ('A' for Active; 'I' for Inactive)
REMARK    1  A    between atoms: N_3  and  C_4
REMARK    2  A    between atoms: C_7  and  O_8
REMARK    3  A    between atoms: O_8  and  C_9
REMARK    4  A    between atoms: N_15  and  C_16
REMARK    5  A    between atoms: C_21  and  N_22
REMARK                            x       y       z     vdW  Elec       q    Type
REMARK                         _______ _______ _______ _____ _____    ______ ____
ROOT
ATOM      1  O   UNL     1       7.830   8.934  17.214  0.00  0.00    +0.000 OA
ATOM      2  C   UNL     1       8.277   8.418  18.231  0.00  0.00    +0.000 C 
ATOM      3  N   UNL     1       9.041   9.038  19.189  0.00  0.00    +0.000 N 
ATOM      4  N   UNL     1       8.017   7.091  18.498  0.00  0.00    +0.000 N 
ATOM      5  H   UNL     1       9.478   8.454  19.885  0.00  0.00    +0.000 HD
ATOM      6  H   UNL     1       8.503   6.607  19.241  0.00  0.00    +0.000 HD
ENDROOT
BRANCH   4   7
ATOM      7  C   UNL     1       7.226   6.346  17.512  0.00  0.00    +0.000 C 
ATOM      8  C   UNL     1       7.470   4.832  17.563  0.00  0.00    +0.000 C 
ATOM      9  O   UNL     1       6.750   4.145  18.584  0.00  0.00    +0.000 OA
ATOM     10  C   UNL     1       5.480   4.502  18.728  0.00  0.00    +0.000 A 
ATOM     11  N   UNL     1       4.577   3.775  19.341  0.00  0.00    +0.000 NA
ATOM     12  C   UNL     1       3.443   4.568  19.353  0.00  0.00    +0.000 A 
ATOM     13  C   UNL     1       3.678   5.787  18.743  0.00  0.00    +0.000 A 
ATOM     14  N   UNL     1       4.976   5.706  18.332  0.00  0.00    +0.000 N 
ATOM     15  C   UNL     1       5.731   6.698  17.603  0.00  0.00    +0.000 C 
BRANCH  12  16
ATOM     16  N   UNL     1       2.214   4.117  19.970  0.00  0.00    +0.000 N 
ATOM     17  O   UNL     1       1.876   2.946  19.739  0.00  0.00    +0.000 OA
ATOM     18  O   UNL     1       1.593   4.919  20.679  0.00  0.00    +0.000 OA
ENDBRANCH  12  16
ENDBRANCH   4   7
BRANCH   3  19
ATOM     19  C   UNL     1       9.400  10.406  19.176  0.00  0.00    +0.000 A 
ATOM     20  C   UNL     1       9.277  11.238  20.292  0.00  0.00    +0.000 A 
ATOM     21  C   UNL     1       9.624  12.588  20.222  0.00  0.00    +0.000 A 
ATOM     22  C   UNL     1      10.125  13.131  19.042  0.00  0.00    +0.000 A 
ATOM     23  C   UNL     1      10.240  12.315  17.918  0.00  0.00    +0.000 A 
ATOM     24  C   UNL     1       9.906  10.956  17.995  0.00  0.00    +0.000 A 
BRANCH  22  25
ATOM     25  O   UNL     1      10.368  14.468  19.090  0.00  0.00    +0.000 OA
BRANCH  25  26
ATOM     26  C   UNL     1       9.579  15.346  18.303  0.00  0.00    +0.000 C 
ATOM     27  F   UNL     1       8.336  14.897  18.039  0.00  0.00    +0.000 F 
ATOM     28  F   UNL     1       9.480  16.533  18.942  0.00  0.00    +0.000 F 
ATOM     29  F   UNL     1      10.207  15.556  17.124  0.00  0.00    +0.000 F 
ENDBRANCH  25  26
ENDBRANCH  22  25
ENDBRANCH   3  19
TORSDOF 5
ENDMDL
MODEL 4
REMARK VINA RESULT:      -8.0      1.105      1.404
REMARK  Name = 
REMARK  5 active torsions:
REMARK  status: ('A' for Active; 'I' for Inactive)
REMARK    1  A    between atoms: N_3  and  C_4
REMARK    2  A    between atoms: C_7  and  O_8
REMARK    3  A    between atoms: O_8  and  C_9
REMARK    4  A    between atoms: N_15  and  C_16
REMARK    5  A    between atoms: C_21  and  N_22
REMARK                            x       y       z     vdW  Elec       q    Type
REMARK                         _______ _______ _______ _____ _____    ______ ____
ROOT
ATOM      1  O   UNL     1       8.121   8.792  16.996  0.00  0.00    +0.000 OA
ATOM      2  C   UNL     1       8.326   8.416  18.144  0.00  0.00    +0.000 C 
ATOM      3  N   UNL     1       8.936   9.138  19.139  0.00  0.00    +0.000 N 
ATOM      4  N   UNL     1       7.922   7.157  18.535  0.00  0.00    +0.000 N 
ATOM      5  H   UNL     1       9.189   8.646  19.983  0.00  0.00    +0.000 HD
ATOM      6  H   UNL     1       8.220   6.769  19.420  0.00  0.00    +0.000 HD
ENDROOT
BRANCH   4   7
ATOM      7  C   UNL     1       7.281   6.309  17.524  0.00  0.00    +0.000 C 
ATOM      8  C   UNL     1       7.575   4.815  17.716  0.00  0.00    +0.000 C 
ATOM      9  O   UNL     1       6.767   4.168  18.697  0.00  0.00    +0.000 OA
ATOM     10  C   UNL     1       5.476   4.475  18.668  0.00  0.00    +0.000 A 
ATOM     11  N   UNL     1       4.536   3.752  19.227  0.00  0.00    +0.000 NA
ATOM     12  C   UNL     1       3.379   4.490  19.050  0.00  0.00    +0.000 A 
ATOM     13  C   UNL     1       3.637   5.673  18.381  0.00  0.00    +0.000 A 
ATOM     14  N   UNL     1       4.976   5.624  18.128  0.00  0.00    +0.000 N 
ATOM     15  C   UNL     1       5.773   6.597  17.417  0.00  0.00    +0.000 C 
BRANCH  12  16
ATOM     16  N   UNL     1       2.104   4.027  19.555  0.00  0.00    +0.000 N 
ATOM     17  O   UNL     1       2.004   3.918  20.787  0.00  0.00    +0.000 OA
ATOM     18  O   UNL     1       1.212   3.777  18.735  0.00  0.00    +0.000 OA
ENDBRANCH  12  16
ENDBRANCH   4   7
BRANCH   3  19
ATOM     19  C   UNL     1       9.392  10.471  19.009  0.00  0.00    +0.000 A 
ATOM     20  C   UNL     1      10.421  11.005  19.789  0.00  0.00    +0.000 A 
ATOM     21  C   UNL     1      10.819  12.334  19.637  0.00  0.00    +0.000 A 
ATOM     22  C   UNL     1      10.214  13.152  18.686  0.00  0.00    +0.000 A 
ATOM     23  C   UNL     1       9.178  12.634  17.911  0.00  0.00    +0.000 A 
ATOM     24  C   UNL     1       8.791  11.295  18.054  0.00  0.00    +0.000 A 
BRANCH  22  25
ATOM     25  O   UNL     1      10.654  14.438  18.681  0.00  0.00    +0.000 OA
BRANCH  25  26
ATOM     26  C   UNL     1      11.476  14.887  17.615  0.00  0.00    +0.000 C 
ATOM     27  F   UNL     1      10.803  15.416  16.574  0.00  0.00    +0.000 F 
ATOM     28  F   UNL     1      12.333  15.818  18.089  0.00  0.00    +0.000 F 
ATOM     29  F   UNL     1      12.202  13.843  17.156  0.00  0.00    +0.000 F 
ENDBRANCH  25  26
ENDBRANCH  22  25
ENDBRANCH   3  19
TORSDOF 5
ENDMDL
MODEL 5
REMARK VINA RESULT:      -7.9      5.023     10.061
REMARK  Name = 
REMARK  5 active torsions:
REMARK  status: ('A' for Active; 'I' for Inactive)
REMARK    1  A    between atoms: N_3  and  C_4
REMARK    2  A    between atoms: C_7  and  O_8
REMARK    3  A    between atoms: O_8  and  C_9
REMARK    4  A    between atoms: N_15  and  C_16
REMARK    5  A    between atoms: C_21  and  N_22
REMARK                            x       y       z     vdW  Elec       q    Type
REMARK                         _______ _______ _______ _____ _____    ______ ____
ROOT
ATOM      1  O   UNL     1       9.146   9.597  19.572  0.00  0.00    +0.000 OA
ATOM      2  C   UNL     1       8.863   9.872  18.411  0.00  0.00    +0.000 C 
ATOM      3  N   UNL     1       8.170   9.075  17.534  0.00  0.00    +0.000 N 
ATOM      4  N   UNL     1       9.246  11.085  17.880  0.00  0.00    +0.000 N 
ATOM      5  H   UNL     1       8.154   9.354  16.565  0.00  0.00    +0.000 HD
ATOM      6  H   UNL     1       9.165  11.265  16.889  0.00  0.00    +0.000 HD
ENDROOT
BRANCH   4   7
ATOM      7  C   UNL     1      10.013  11.989  18.745  0.00  0.00    +0.000 C 
ATOM      8  C   UNL     1      11.105  12.761  17.992  0.00  0.00    +0.000 C 
ATOM      9  O   UNL     1      10.644  13.911  17.286  0.00  0.00    +0.000 OA
ATOM     10  C   UNL     1       9.781  14.677  17.941  0.00  0.00    +0.000 A 
ATOM     11  N   UNL     1       9.517  15.922  17.627  0.00  0.00    +0.000 NA
ATOM     12  C   UNL     1       8.498  16.290  18.488  0.00  0.00    +0.000 A 
ATOM     13  C   UNL     1       8.147  15.245  19.323  0.00  0.00    +0.000 A 
ATOM     14  N   UNL     1       8.998  14.239  18.970  0.00  0.00    +0.000 N 
ATOM     15  C   UNL     1       9.091  12.920  19.551  0.00  0.00    +0.000 C 
BRANCH  12  16
ATOM     16  N   UNL     1       7.909  17.611  18.440  0.00  0.00    +0.000 N 
ATOM     17  O   UNL     1       8.666  18.543  18.128  0.00  0.00    +0.000 OA
ATOM     18  O   UNL     1       6.705  17.719  18.706  0.00  0.00    +0.000 OA
ENDBRANCH  12  16
ENDBRANCH   4   7
BRANCH   3  19
ATOM     19  C   UNL     1       7.622   7.810  17.849  0.00  0.00    +0.000 A 
ATOM     20  C   UNL     1       8.213   6.928  18.759  0.00  0.00    +0.000 A 
ATOM     21  C   UNL     1       7.645   5.681  19.019  0.00  0.00    +0.000 A 
ATOM     22  C   UNL     1       6.462   5.295  18.394  0.00  0.00    +0.000 A 
ATOM     23  C   UNL     1       5.871   6.159  17.475  0.00  0.00    +0.000 A 
ATOM     24  C   UNL     1       6.434   7.418  17.227  0.00  0.00    +0.000 A 
BRANCH  22  25
ATOM     25  O   UNL     1       6.049   4.034  18.691  0.00  0.00    +0.000 OA
BRANCH  25  26
ATOM     26  C   UNL     1       4.734   3.832  19.184  0.00  0.00    +0.000 C 
ATOM     27  F   UNL     1       4.223   4.880  19.860  0.00  0.00    +0.000 F 
ATOM     28  F   UNL     1       3.918   3.553  18.144  0.00  0.00    +0.000 F 
ATOM     29  F   UNL     1       4.739   2.763  20.012  0.00  0.00    +0.000 F 
ENDBRANCH  25  26
ENDBRANCH  22  25
ENDBRANCH   3  19
TORSDOF 5
ENDMDL
MODEL 6
REMARK VINA RESULT:      -7.9      1.093      1.611
REMARK  Name = 
REMARK  5 active torsions:
REMARK  status: ('A' for Active; 'I' for Inactive)
REMARK    1  A    between atoms: N_3  and  C_4
REMARK    2  A    between atoms: C_7  and  O_8
REMARK    3  A    between atoms: O_8  and  C_9
REMARK    4  A    between atoms: N_15  and  C_16
REMARK    5  A    between atoms: C_21  and  N_22
REMARK                            x       y       z     vdW  Elec       q    Type
REMARK                         _______ _______ _______ _____ _____    ______ ____
ROOT
ATOM      1  O   UNL     1       8.075   8.949  16.965  0.00  0.00    +0.000 OA
ATOM      2  C   UNL     1       8.338   8.573  18.101  0.00  0.00    +0.000 C 
ATOM      3  N   UNL     1       9.023   9.283  19.055  0.00  0.00    +0.000 N 
ATOM      4  N   UNL     1       7.927   7.325  18.523  0.00  0.00    +0.000 N 
ATOM      5  H   UNL     1       9.313   8.789  19.885  0.00  0.00    +0.000 HD
ATOM      6  H   UNL     1       8.268   6.934  19.390  0.00  0.00    +0.000 HD
ENDROOT
BRANCH   4   7
ATOM      7  C   UNL     1       7.207   6.489  17.557  0.00  0.00    +0.000 C 
ATOM      8  C   UNL     1       7.613   5.010  17.619  0.00  0.00    +0.000 C 
ATOM      9  O   UNL     1       6.984   4.262  18.657  0.00  0.00    +0.000 OA
ATOM     10  C   UNL     1       5.686   4.483  18.817  0.00  0.00    +0.000 A 
ATOM     11  N   UNL     1       4.874   3.671  19.450  0.00  0.00    +0.000 NA
ATOM     12  C   UNL     1       3.661   4.338  19.471  0.00  0.00    +0.000 A 
ATOM     13  C   UNL     1       3.756   5.568  18.846  0.00  0.00    +0.000 A 
ATOM     14  N   UNL     1       5.050   5.622  18.416  0.00  0.00    +0.000 N 
ATOM     15  C   UNL     1       5.684   6.681  17.666  0.00  0.00    +0.000 C 
BRANCH  12  16
ATOM     16  N   UNL     1       2.497   3.766  20.111  0.00  0.00    +0.000 N 
ATOM     17  O   UNL     1       1.917   2.858  19.495  0.00  0.00    +0.000 OA
ATOM     18  O   UNL     1       2.163   4.213  21.215  0.00  0.00    +0.000 OA
ENDBRANCH  12  16
ENDBRANCH   4   7
BRANCH   3  19
ATOM     19  C   UNL     1       9.503  10.604  18.890  0.00  0.00    +0.000 A 
ATOM     20  C   UNL     1      10.778  11.009  19.293  0.00  0.00    +0.000 A 
ATOM     21  C   UNL     1      11.196  12.330  19.128  0.00  0.00    +0.000 A 
ATOM     22  C   UNL     1      10.358  13.271  18.537  0.00  0.00    +0.000 A 
ATOM     23  C   UNL     1       9.078  12.883  18.144  0.00  0.00    +0.000 A 
ATOM     24  C   UNL     1       8.666  11.552  18.295  0.00  0.00    +0.000 A 
BRANCH  22  25
ATOM     25  O   UNL     1      10.864  14.532  18.491  0.00  0.00    +0.000 OA
BRANCH  25  26
ATOM     26  C   UNL     1      11.222  15.091  17.237  0.00  0.00    +0.000 C 
ATOM     27  F   UNL     1      12.331  15.856  17.261  0.00  0.00    +0.000 F 
ATOM     28  F   UNL     1      11.411  14.088  16.352  0.00  0.00    +0.000 F 
ATOM     29  F   UNL     1      10.197  15.854  16.793  0.00  0.00    +0.000 F 
ENDBRANCH  25  26
ENDBRANCH  22  25
ENDBRANCH   3  19
TORSDOF 5
ENDMDL
MODEL 7
REMARK VINA RESULT:      -7.9      0.761      1.169
REMARK  Name = 
REMARK  5 active torsions:
REMARK  status: ('A' for Active; 'I' for Inactive)
REMARK    1  A    between atoms: N_3  and  C_4
REMARK    2  A    between atoms: C_7  and  O_8
REMARK    3  A    between atoms: O_8  and  C_9
REMARK    4  A    between atoms: N_15  and  C_16
REMARK    5  A    between atoms: C_21  and  N_22
REMARK                            x       y       z     vdW  Elec       q    Type
REMARK                         _______ _______ _______ _____ _____    ______ ____
ROOT
ATOM      1  O   UNL     1       8.024   8.761  16.997  0.00  0.00    +0.000 OA
ATOM      2  C   UNL     1       8.271   8.383  18.136  0.00  0.00    +0.000 C 
ATOM      3  N   UNL     1       8.913   9.105  19.112  0.00  0.00    +0.000 N 
ATOM      4  N   UNL     1       7.886   7.121  18.538  0.00  0.00    +0.000 N 
ATOM      5  H   UNL     1       9.196   8.612  19.945  0.00  0.00    +0.000 HD
ATOM      6  H   UNL     1       8.216   6.733  19.411  0.00  0.00    +0.000 HD
ENDROOT
BRANCH   4   7
ATOM      7  C   UNL     1       7.213   6.273  17.548  0.00  0.00    +0.000 C 
ATOM      8  C   UNL     1       7.417   4.773  17.802  0.00  0.00    +0.000 C 
ATOM      9  O   UNL     1       6.557   4.212  18.791  0.00  0.00    +0.000 OA
ATOM     10  C   UNL     1       5.287   4.591  18.727  0.00  0.00    +0.000 A 
ATOM     11  N   UNL     1       4.298   3.945  19.295  0.00  0.00    +0.000 NA
ATOM     12  C   UNL     1       3.188   4.741  19.070  0.00  0.00    +0.000 A 
ATOM     13  C   UNL     1       3.525   5.880  18.362  0.00  0.00    +0.000 A 
ATOM     14  N   UNL     1       4.863   5.745  18.135  0.00  0.00    +0.000 N 
ATOM     15  C   UNL     1       5.727   6.642  17.403  0.00  0.00    +0.000 C 
BRANCH  12  16
ATOM     16  N   UNL     1       1.881   4.371  19.568  0.00  0.00    +0.000 N 
ATOM     17  O   UNL     1       1.312   3.434  18.988  0.00  0.00    +0.000 OA
ATOM     18  O   UNL     1       1.426   5.006  20.528  0.00  0.00    +0.000 OA
ENDBRANCH  12  16
ENDBRANCH   4   7
BRANCH   3  19
ATOM     19  C   UNL     1       9.358  10.440  18.969  0.00  0.00    +0.000 A 
ATOM     20  C   UNL     1       8.880  11.302  17.978  0.00  0.00    +0.000 A 
ATOM     21  C   UNL     1       9.368  12.604  17.865  0.00  0.00    +0.000 A 
ATOM     22  C   UNL     1      10.328  13.082  18.752  0.00  0.00    +0.000 A 
ATOM     23  C   UNL     1      10.824  12.227  19.736  0.00  0.00    +0.000 A 
ATOM     24  C   UNL     1      10.320  10.926  19.858  0.00  0.00    +0.000 A 
BRANCH  22  25
ATOM     25  O   UNL     1      10.761  14.345  18.495  0.00  0.00    +0.000 OA
BRANCH  25  26
ATOM     26  C   UNL     1      10.459  15.383  19.415  0.00  0.00    +0.000 C 
ATOM     27  F   UNL     1      11.178  15.347  20.555  0.00  0.00    +0.000 F 
ATOM     28  F   UNL     1      10.670  16.573  18.812  0.00  0.00    +0.000 F 
ATOM     29  F   UNL     1       9.150  15.305  19.744  0.00  0.00    +0.000 F 
ENDBRANCH  25  26
ENDBRANCH  22  25
ENDBRANCH   3  19
TORSDOF 5
ENDMDL
MODEL 8
REMARK VINA RESULT:      -7.7      6.787      9.626
REMARK  Name = 
REMARK  5 active torsions:
REMARK  status: ('A' for Active; 'I' for Inactive)
REMARK    1  A    between atoms: N_3  and  C_4
REMARK    2  A    between atoms: C_7  and  O_8
REMARK    3  A    between atoms: O_8  and  C_9
REMARK    4  A    between atoms: N_15  and  C_16
REMARK    5  A    between atoms: C_21  and  N_22
REMARK                            x       y       z     vdW  Elec       q    Type
REMARK                         _______ _______ _______ _____ _____    ______ ____
ROOT
ATOM      1  O   UNL     1       2.191   8.622  17.104  0.00  0.00    +0.000 OA
ATOM      2  C   UNL     1       2.195   8.238  18.268  0.00  0.00    +0.000 C 
ATOM      3  N   UNL     1       2.863   7.145  18.761  0.00  0.00    +0.000 N 
ATOM      4  N   UNL     1       1.481   8.932  19.222  0.00  0.00    +0.000 N 
ATOM      5  H   UNL     1       2.644   6.850  19.700  0.00  0.00    +0.000 HD
ATOM      6  H   UNL     1       1.341   8.547  20.145  0.00  0.00    +0.000 HD
ENDROOT
BRANCH   4   7
ATOM      7  C   UNL     1       0.717  10.102  18.775  0.00  0.00    +0.000 C 
ATOM      8  C   UNL     1      -0.513  10.388  19.646  0.00  0.00    +0.000 C 
ATOM      9  O   UNL     1      -0.237  11.094  20.855  0.00  0.00    +0.000 OA
ATOM     10  C   UNL     1       0.606  12.112  20.743  0.00  0.00    +0.000 A 
ATOM     11  N   UNL     1       0.715  13.077  21.625  0.00  0.00    +0.000 NA
ATOM     12  C   UNL     1       1.772  13.846  21.170  0.00  0.00    +0.000 A 
ATOM     13  C   UNL     1       2.304  13.326  20.004  0.00  0.00    +0.000 A 
ATOM     14  N   UNL     1       1.525  12.237  19.741  0.00  0.00    +0.000 N 
ATOM     15  C   UNL     1       1.618  11.339  18.614  0.00  0.00    +0.000 C 
BRANCH  12  16
ATOM     16  N   UNL     1       2.222  15.014  21.895  0.00  0.00    +0.000 N 
ATOM     17  O   UNL     1       1.651  16.083  21.631  0.00  0.00    +0.000 OA
ATOM     18  O   UNL     1       3.132  14.869  22.721  0.00  0.00    +0.000 OA
ENDBRANCH  12  16
ENDBRANCH   4   7
BRANCH   3  19
ATOM     19  C   UNL     1       3.706   6.301  18.000  0.00  0.00    +0.000 A 
ATOM     20  C   UNL     1       4.937   6.716  17.486  0.00  0.00    +0.000 A 
ATOM     21  C   UNL     1       5.722   5.851  16.721  0.00  0.00    +0.000 A 
ATOM     22  C   UNL     1       5.305   4.546  16.473  0.00  0.00    +0.000 A 
ATOM     23  C   UNL     1       4.072   4.125  16.970  0.00  0.00    +0.000 A 
ATOM     24  C   UNL     1       3.294   4.989  17.751  0.00  0.00    +0.000 A 
BRANCH  22  25
ATOM     25  O   UNL     1       6.133   3.829  15.667  0.00  0.00    +0.000 OA
BRANCH  25  26
ATOM     26  C   UNL     1       6.204   4.147  14.286  0.00  0.00    +0.000 C 
ATOM     27  F   UNL     1       6.402   3.088  13.477  0.00  0.00    +0.000 F 
ATOM     28  F   UNL     1       5.055   4.757  13.921  0.00  0.00    +0.000 F 
ATOM     29  F   UNL     1       7.221   5.017  14.092  0.00  0.00    +0.000 F 
ENDBRANCH  25  26
ENDBRANCH  22  25
ENDBRANCH   3  19
TORSDOF 5
ENDMDL
MODEL 9
REMARK VINA RESULT:      -7.5      1.705      2.122
REMARK  Name = 
REMARK  5 active torsions:
REMARK  status: ('A' for Active; 'I' for Inactive)
REMARK    1  A    between atoms: N_3  and  C_4
REMARK    2  A    between atoms: C_7  and  O_8
REMARK    3  A    between atoms: O_8  and  C_9
REMARK    4  A    between atoms: N_15  and  C_16
REMARK    5  A    between atoms: C_21  and  N_22
REMARK                            x       y       z     vdW  Elec       q    Type
REMARK                         _______ _______ _______ _____ _____    ______ ____
ROOT
ATOM      1  O   UNL     1       8.714   7.656  18.971  0.00  0.00    +0.000 OA
ATOM      2  C   UNL     1       8.021   8.043  18.037  0.00  0.00    +0.000 C 
ATOM      3  N   UNL     1       7.875   9.342  17.616  0.00  0.00    +0.000 N 
ATOM      4  N   UNL     1       7.299   7.132  17.295  0.00  0.00    +0.000 N 
ATOM      5  H   UNL     1       7.147   9.535  16.946  0.00  0.00    +0.000 HD
ATOM      6  H   UNL     1       6.604   7.441  16.630  0.00  0.00    +0.000 HD
ENDROOT
BRANCH   4   7
ATOM      7  C   UNL     1       7.381   5.722  17.692  0.00  0.00    +0.000 C 
ATOM      8  C   UNL     1       7.138   5.503  19.192  0.00  0.00    +0.000 C 
ATOM      9  O   UNL     1       5.765   5.479  19.577  0.00  0.00    +0.000 OA
ATOM     10  C   UNL     1       4.960   4.786  18.782  0.00  0.00    +0.000 A 
ATOM     11  N   UNL     1       3.773   4.354  19.134  0.00  0.00    +0.000 NA
ATOM     12  C   UNL     1       3.252   3.790  17.983  0.00  0.00    +0.000 A 
ATOM     13  C   UNL     1       4.141   3.894  16.929  0.00  0.00    +0.000 A 
ATOM     14  N   UNL     1       5.230   4.509  17.474  0.00  0.00    +0.000 N 
ATOM     15  C   UNL     1       6.476   4.835  16.820  0.00  0.00    +0.000 C 
BRANCH  12  16
ATOM     16  N   UNL     1       1.926   3.211  17.959  0.00  0.00    +0.000 N 
ATOM     17  O   UNL     1       1.772   2.156  18.593  0.00  0.00    +0.000 OA
ATOM     18  O   UNL     1       1.047   3.801  17.319  0.00  0.00    +0.000 OA
ENDBRANCH  12  16
ENDBRANCH   4   7
BRANCH   3  19
ATOM     19  C   UNL     1       8.548  10.453  18.175  0.00  0.00    +0.000 A 
ATOM     20  C   UNL     1       9.428  10.348  19.256  0.00  0.00    +0.000 A 
ATOM     21  C   UNL     1      10.051  11.479  19.785  0.00  0.00    +0.000 A 
ATOM     22  C   UNL     1       9.827  12.737  19.232  0.00  0.00    +0.000 A 
ATOM     23  C   UNL     1       8.940  12.857  18.163  0.00  0.00    +0.000 A 
ATOM     24  C   UNL     1       8.329  11.718  17.622  0.00  0.00    +0.000 A 
BRANCH  22  25
ATOM     25  O   UNL     1      10.447  13.760  19.879  0.00  0.00    +0.000 OA
BRANCH  25  26
ATOM     26  C   UNL     1      11.559  14.395  19.267  0.00  0.00    +0.000 C 
ATOM     27  F   UNL     1      12.333  13.577  18.527  0.00  0.00    +0.000 F 
ATOM     28  F   UNL     1      11.108  15.392  18.474  0.00  0.00    +0.000 F 
ATOM     29  F   UNL     1      12.332  14.943  20.232  0.00  0.00    +0.000 F 
ENDBRANCH  25  26
ENDBRANCH  22  25
ENDBRANCH   3  19
TORSDOF 5
ENDMDL
