MODEL 1
REMARK VINA RESULT:      -7.2      0.000      0.000
REMARK  Name = 
REMARK  13 active torsions:
REMARK  status: ('A' for Active; 'I' for Inactive)
REMARK    1  A    between atoms: C_5  and  O_6
REMARK    2  A    between atoms: C_9  and  C_10
REMARK    3  A    between atoms: C_15  and  C_16
REMARK    4  A    between atoms: C_17  and  C_18
REMARK    5  A    between atoms: C_18  and  C_19
REMARK    6  A    between atoms: C_18  and  C_20
REMARK    7  A    between atoms: C_20  and  C_21
REMARK    8  A    between atoms: C_21  and  C_22
REMARK    9  A    between atoms: C_22  and  O_23
REMARK   10  A    between atoms: C_22  and  C_24
REMARK   11  A    between atoms: C_24  and  C_25
REMARK   12  A    between atoms: C_24  and  C_26
REMARK   13  A    between atoms: C_24  and  O_27
REMARK                            x       y       z     vdW  Elec       q    Type
REMARK                         _______ _______ _______ _____ _____    ______ ____
ROOT
ATOM      1  C   UNL     1       1.741   7.061  20.312  0.00  0.00    +0.000 C 
ATOM      2  C   UNL     1       1.671   8.379  20.010  0.00  0.00    +0.000 C 
ATOM      3  C   UNL     1       2.152   8.966  18.681  0.00  0.00    +0.000 C 
ATOM      4  C   UNL     1       1.155   9.924  18.024  0.00  0.00    +0.000 C 
ATOM      5  C   UNL     1       0.601  10.957  18.997  0.00  0.00    +0.000 C 
ATOM      6  C   UNL     1      -0.003  10.297  20.254  0.00  0.00    +0.000 C 
ATOM      7  C   UNL     1      -1.224   9.413  19.893  0.00  0.00    +0.000 C 
ATOM      8  C   UNL     1      -0.337  11.317  21.387  0.00  0.00    +0.000 C 
ATOM      9  C   UNL     1      -0.187  10.474  22.687  0.00  0.00    +0.000 C 
ATOM     10  C   UNL     1       0.553   9.174  22.312  0.00  0.00    +0.000 C 
ATOM     11  C   UNL     1       1.125   9.462  20.924  0.00  0.00    +0.000 C 
ENDROOT
BRANCH   1  19
ATOM     12  C   UNL     1       2.144   3.751  21.772  0.00  0.00    +0.000 C 
ATOM     13  C   UNL     1       1.732   3.908  20.505  0.00  0.00    +0.000 C 
ATOM     14  C   UNL     1       0.671   3.034  19.883  0.00  0.00    +0.000 C 
ATOM     15  C   UNL     1       1.368   2.087  18.903  0.00  0.00    +0.000 C 
ATOM     16  C   UNL     1       2.147   2.875  17.842  0.00  0.00    +0.000 C 
ATOM     17  C   UNL     1       3.095   3.922  18.460  0.00  0.00    +0.000 C 
ATOM     18  C   UNL     1       2.417   4.746  19.538  0.00  0.00    +0.000 C 
ATOM     19  C   UNL     1       2.413   6.097  19.469  0.00  0.00    +0.000 C 
BRANCH  16  20
ATOM     20  O   UNL     1       2.893   1.965  17.035  0.00  0.00    +0.000 OA
ATOM     21  H   UNL     1       2.609   2.088  16.112  0.00  0.00    +0.000 HD
ENDBRANCH  16  20
ENDBRANCH   1  19
BRANCH   8  22
ATOM     22  C   UNL     1      -1.691  12.087  21.283  0.00  0.00    +0.000 C 
ATOM     23  C   UNL     1      -1.511  13.494  20.697  0.00  0.00    +0.000 C 
BRANCH  22  24
ATOM     24  C   UNL     1      -2.408  12.193  22.653  0.00  0.00    +0.000 C 
BRANCH  24  25
ATOM     25  C   UNL     1      -3.465  13.318  22.747  0.00  0.00    +0.000 C 
BRANCH  25  26
ATOM     26  C   UNL     1      -4.519  13.087  23.841  0.00  0.00    +0.000 C 
BRANCH  26  27
ATOM     27  C   UNL     1      -5.993  13.042  23.353  0.00  0.00    +0.000 C 
ATOM     28  C   UNL     1      -6.783  14.301  23.712  0.00  0.00    +0.000 C 
ATOM     29  C   UNL     1      -6.092  12.757  21.853  0.00  0.00    +0.000 C 
BRANCH  27  30
ATOM     30  O   UNL     1      -6.635  11.944  24.027  0.00  0.00    +0.000 OA
ATOM     31  H   UNL     1      -6.258  11.933  24.931  0.00  0.00    +0.000 HD
ENDBRANCH  27  30
ENDBRANCH  26  27
BRANCH  26  32
ATOM     32  O   UNL     1      -4.401  14.107  24.848  0.00  0.00    +0.000 OA
ATOM     33  H   UNL     1      -5.296  14.317  25.169  0.00  0.00    +0.000 HD
ENDBRANCH  26  32
ENDBRANCH  25  26
ENDBRANCH  24  25
ENDBRANCH  22  24
ENDBRANCH   8  22
TORSDOF 9
ENDMDL
MODEL 2
REMARK VINA RESULT:      -7.0      1.258      1.570
REMARK  Name = 
REMARK  13 active torsions:
REMARK  status: ('A' for Active; 'I' for Inactive)
REMARK    1  A    between atoms: C_5  and  O_6
REMARK    2  A    between atoms: C_9  and  C_10
REMARK    3  A    between atoms: C_15  and  C_16
REMARK    4  A    between atoms: C_17  and  C_18
REMARK    5  A    between atoms: C_18  and  C_19
REMARK    6  A    between atoms: C_18  and  C_20
REMARK    7  A    between atoms: C_20  and  C_21
REMARK    8  A    between atoms: C_21  and  C_22
REMARK    9  A    between atoms: C_22  and  O_23
REMARK   10  A    between atoms: C_22  and  C_24
REMARK   11  A    between atoms: C_24  and  C_25
REMARK   12  A    between atoms: C_24  and  C_26
REMARK   13  A    between atoms: C_24  and  O_27
REMARK                            x       y       z     vdW  Elec       q    Type
REMARK                         _______ _______ _______ _____ _____    ______ ____
ROOT
ATOM      1  C   UNL     1       1.698   6.995  20.287  0.00  0.00    +0.000 C 
ATOM      2  C   UNL     1       1.689   8.313  19.976  0.00  0.00    +0.000 C 
ATOM      3  C   UNL     1       2.241   8.874  18.664  0.00  0.00    +0.000 C 
ATOM      4  C   UNL     1       1.304   9.864  17.966  0.00  0.00    +0.000 C 
ATOM      5  C   UNL     1       0.753  10.922  18.913  0.00  0.00    +0.000 C 
ATOM      6  C   UNL     1       0.079  10.293  20.150  0.00  0.00    +0.000 C 
ATOM      7  C   UNL     1      -1.160   9.452  19.747  0.00  0.00    +0.000 C 
ATOM      8  C   UNL     1      -0.259  11.331  21.265  0.00  0.00    +0.000 C 
ATOM      9  C   UNL     1      -0.190  10.490  22.573  0.00  0.00    +0.000 C 
ATOM     10  C   UNL     1       0.515   9.162  22.232  0.00  0.00    +0.000 C 
ATOM     11  C   UNL     1       1.149   9.421  20.865  0.00  0.00    +0.000 C 
ENDROOT
BRANCH   1  19
ATOM     12  C   UNL     1       2.115   3.739  21.861  0.00  0.00    +0.000 C 
ATOM     13  C   UNL     1       1.694   3.850  20.593  0.00  0.00    +0.000 C 
ATOM     14  C   UNL     1       0.629   2.954  20.009  0.00  0.00    +0.000 C 
ATOM     15  C   UNL     1       1.319   1.974  19.059  0.00  0.00    +0.000 C 
ATOM     16  C   UNL     1       2.090   2.724  17.965  0.00  0.00    +0.000 C 
ATOM     17  C   UNL     1       3.041   3.792  18.538  0.00  0.00    +0.000 C 
ATOM     18  C   UNL     1       2.371   4.654  19.592  0.00  0.00    +0.000 C 
ATOM     19  C   UNL     1       2.365   6.002  19.474  0.00  0.00    +0.000 C 
BRANCH  16  20
ATOM     20  O   UNL     1       2.831   1.786  17.185  0.00  0.00    +0.000 OA
ATOM     21  H   UNL     1       2.210   1.357  16.571  0.00  0.00    +0.000 HD
ENDBRANCH  16  20
ENDBRANCH   1  19
BRANCH   8  22
ATOM     22  C   UNL     1      -1.579  12.149  21.107  0.00  0.00    +0.000 C 
ATOM     23  C   UNL     1      -1.325  13.549  20.529  0.00  0.00    +0.000 C 
BRANCH  22  24
ATOM     24  C   UNL     1      -2.346  12.283  22.446  0.00  0.00    +0.000 C 
BRANCH  24  25
ATOM     25  C   UNL     1      -3.579  13.215  22.398  0.00  0.00    +0.000 C 
BRANCH  25  26
ATOM     26  C   UNL     1      -4.773  12.624  21.633  0.00  0.00    +0.000 C 
BRANCH  26  27
ATOM     27  C   UNL     1      -5.317  13.490  20.464  0.00  0.00    +0.000 C 
ATOM     28  C   UNL     1      -6.816  13.306  20.227  0.00  0.00    +0.000 C 
ATOM     29  C   UNL     1      -4.981  14.971  20.645  0.00  0.00    +0.000 C 
BRANCH  27  30
ATOM     30  O   UNL     1      -4.651  13.057  19.263  0.00  0.00    +0.000 OA
ATOM     31  H   UNL     1      -4.627  12.080  19.314  0.00  0.00    +0.000 HD
ENDBRANCH  27  30
ENDBRANCH  26  27
BRANCH  26  32
ATOM     32  O   UNL     1      -5.851  12.362  22.548  0.00  0.00    +0.000 OA
ATOM     33  H   UNL     1      -5.537  11.714  23.205  0.00  0.00    +0.000 HD
ENDBRANCH  26  32
ENDBRANCH  25  26
ENDBRANCH  24  25
ENDBRANCH  22  24
ENDBRANCH   8  22
TORSDOF 9
ENDMDL
MODEL 3
REMARK VINA RESULT:      -7.0      0.959      1.380
REMARK  Name = 
REMARK  13 active torsions:
REMARK  status: ('A' for Active; 'I' for Inactive)
REMARK    1  A    between atoms: C_5  and  O_6
REMARK    2  A    between atoms: C_9  and  C_10
REMARK    3  A    between atoms: C_15  and  C_16
REMARK    4  A    between atoms: C_17  and  C_18
REMARK    5  A    between atoms: C_18  and  C_19
REMARK    6  A    between atoms: C_18  and  C_20
REMARK    7  A    between atoms: C_20  and  C_21
REMARK    8  A    between atoms: C_21  and  C_22
REMARK    9  A    between atoms: C_22  and  O_23
REMARK   10  A    between atoms: C_22  and  C_24
REMARK   11  A    between atoms: C_24  and  C_25
REMARK   12  A    between atoms: C_24  and  C_26
REMARK   13  A    between atoms: C_24  and  O_27
REMARK                            x       y       z     vdW  Elec       q    Type
REMARK                         _______ _______ _______ _____ _____    ______ ____
ROOT
ATOM      1  C   UNL     1       1.581   7.045  20.003  0.00  0.00    +0.000 C 
ATOM      2  C   UNL     1       1.728   8.367  19.752  0.00  0.00    +0.000 C 
ATOM      3  C   UNL     1       2.500   8.917  18.551  0.00  0.00    +0.000 C 
ATOM      4  C   UNL     1       1.758  10.009  17.777  0.00  0.00    +0.000 C 
ATOM      5  C   UNL     1       1.176  11.083  18.687  0.00  0.00    +0.000 C 
ATOM      6  C   UNL     1       0.286  10.480  19.793  0.00  0.00    +0.000 C 
ATOM      7  C   UNL     1      -0.954   9.769  19.193  0.00  0.00    +0.000 C 
ATOM      8  C   UNL     1      -0.110  11.510  20.897  0.00  0.00    +0.000 C 
ATOM      9  C   UNL     1      -0.293  10.626  22.165  0.00  0.00    +0.000 C 
ATOM     10  C   UNL     1       0.334   9.250  21.865  0.00  0.00    +0.000 C 
ATOM     11  C   UNL     1       1.169   9.492  20.607  0.00  0.00    +0.000 C 
ENDROOT
BRANCH   1  19
ATOM     12  C   UNL     1       2.147   3.923  21.788  0.00  0.00    +0.000 C 
ATOM     13  C   UNL     1       1.695   3.932  20.526  0.00  0.00    +0.000 C 
ATOM     14  C   UNL     1       0.650   2.961  20.032  0.00  0.00    +0.000 C 
ATOM     15  C   UNL     1       1.353   1.941  19.135  0.00  0.00    +0.000 C 
ATOM     16  C   UNL     1       2.073   2.638  17.974  0.00  0.00    +0.000 C 
ATOM     17  C   UNL     1       2.998   3.776  18.448  0.00  0.00    +0.000 C 
ATOM     18  C   UNL     1       2.320   4.686  19.455  0.00  0.00    +0.000 C 
ATOM     19  C   UNL     1       2.264   6.021  19.245  0.00  0.00    +0.000 C 
BRANCH  16  20
ATOM     20  O   UNL     1       2.829   1.674  17.243  0.00  0.00    +0.000 OA
ATOM     21  H   UNL     1       3.042   0.944  17.849  0.00  0.00    +0.000 HD
ENDBRANCH  16  20
ENDBRANCH   1  19
BRANCH   8  22
ATOM     22  C   UNL     1      -1.320  12.450  20.600  0.00  0.00    +0.000 C 
ATOM     23  C   UNL     1      -0.869  13.857  20.184  0.00  0.00    +0.000 C 
BRANCH  22  24
ATOM     24  C   UNL     1      -2.284  12.561  21.808  0.00  0.00    +0.000 C 
BRANCH  24  25
ATOM     25  C   UNL     1      -3.203  13.804  21.794  0.00  0.00    +0.000 C 
BRANCH  25  26
ATOM     26  C   UNL     1      -4.568  13.573  22.461  0.00  0.00    +0.000 C 
BRANCH  26  27
ATOM     27  C   UNL     1      -4.594  13.719  24.007  0.00  0.00    +0.000 C 
ATOM     28  C   UNL     1      -4.437  12.386  24.739  0.00  0.00    +0.000 C 
ATOM     29  C   UNL     1      -3.557  14.728  24.504  0.00  0.00    +0.000 C 
BRANCH  27  30
ATOM     30  O   UNL     1      -5.886  14.240  24.367  0.00  0.00    +0.000 OA
ATOM     31  H   UNL     1      -5.754  15.200  24.505  0.00  0.00    +0.000 HD
ENDBRANCH  27  30
ENDBRANCH  26  27
BRANCH  26  32
ATOM     32  O   UNL     1      -5.057  12.265  22.116  0.00  0.00    +0.000 OA
ATOM     33  H   UNL     1      -5.117  11.741  22.936  0.00  0.00    +0.000 HD
ENDBRANCH  26  32
ENDBRANCH  25  26
ENDBRANCH  24  25
ENDBRANCH  22  24
ENDBRANCH   8  22
TORSDOF 9
ENDMDL
MODEL 4
REMARK VINA RESULT:      -7.0      0.707      1.032
REMARK  Name = 
REMARK  13 active torsions:
REMARK  status: ('A' for Active; 'I' for Inactive)
REMARK    1  A    between atoms: C_5  and  O_6
REMARK    2  A    between atoms: C_9  and  C_10
REMARK    3  A    between atoms: C_15  and  C_16
REMARK    4  A    between atoms: C_17  and  C_18
REMARK    5  A    between atoms: C_18  and  C_19
REMARK    6  A    between atoms: C_18  and  C_20
REMARK    7  A    between atoms: C_20  and  C_21
REMARK    8  A    between atoms: C_21  and  C_22
REMARK    9  A    between atoms: C_22  and  O_23
REMARK   10  A    between atoms: C_22  and  C_24
REMARK   11  A    between atoms: C_24  and  C_25
REMARK   12  A    between atoms: C_24  and  C_26
REMARK   13  A    between atoms: C_24  and  O_27
REMARK                            x       y       z     vdW  Elec       q    Type
REMARK                         _______ _______ _______ _____ _____    ______ ____
ROOT
ATOM      1  C   UNL     1       1.694   7.114  20.182  0.00  0.00    +0.000 C 
ATOM      2  C   UNL     1       1.701   8.438  19.901  0.00  0.00    +0.000 C 
ATOM      3  C   UNL     1       2.314   9.028  18.629  0.00  0.00    +0.000 C 
ATOM      4  C   UNL     1       1.412  10.035  17.910  0.00  0.00    +0.000 C 
ATOM      5  C   UNL     1       0.819  11.073  18.854  0.00  0.00    +0.000 C 
ATOM      6  C   UNL     1       0.086  10.418  20.043  0.00  0.00    +0.000 C 
ATOM      7  C   UNL     1      -1.133   9.589  19.565  0.00  0.00    +0.000 C 
ATOM      8  C   UNL     1      -0.302  11.432  21.164  0.00  0.00    +0.000 C 
ATOM      9  C   UNL     1      -0.294  10.562  22.455  0.00  0.00    +0.000 C 
ATOM     10  C   UNL     1       0.424   9.241  22.118  0.00  0.00    +0.000 C 
ATOM     11  C   UNL     1       1.121   9.528  20.788  0.00  0.00    +0.000 C 
ENDROOT
BRANCH   1  19
ATOM     12  C   UNL     1       2.163   3.868  21.761  0.00  0.00    +0.000 C 
ATOM     13  C   UNL     1       1.760   3.970  20.487  0.00  0.00    +0.000 C 
ATOM     14  C   UNL     1       0.725   3.049  19.887  0.00  0.00    +0.000 C 
ATOM     15  C   UNL     1       1.454   2.087  18.947  0.00  0.00    +0.000 C 
ATOM     16  C   UNL     1       2.223   2.855  17.866  0.00  0.00    +0.000 C 
ATOM     17  C   UNL     1       3.140   3.946  18.454  0.00  0.00    +0.000 C 
ATOM     18  C   UNL     1       2.433   4.791  19.497  0.00  0.00    +0.000 C 
ATOM     19  C   UNL     1       2.397   6.138  19.380  0.00  0.00    +0.000 C 
BRANCH  16  20
ATOM     20  O   UNL     1       2.999   1.936  17.097  0.00  0.00    +0.000 OA
ATOM     21  H   UNL     1       2.726   1.037  17.350  0.00  0.00    +0.000 HD
ENDBRANCH  16  20
ENDBRANCH   1  19
BRANCH   8  22
ATOM     22  C   UNL     1      -1.612  12.257  20.963  0.00  0.00    +0.000 C 
ATOM     23  C   UNL     1      -1.325  13.693  20.503  0.00  0.00    +0.000 C 
BRANCH  22  24
ATOM     24  C   UNL     1      -2.479  12.297  22.247  0.00  0.00    +0.000 C 
BRANCH  24  25
ATOM     25  C   UNL     1      -3.190  13.645  22.509  0.00  0.00    +0.000 C 
BRANCH  25  26
ATOM     26  C   UNL     1      -4.722  13.564  22.422  0.00  0.00    +0.000 C 
BRANCH  26  27
ATOM     27  C   UNL     1      -5.488  13.894  23.732  0.00  0.00    +0.000 C 
ATOM     28  C   UNL     1      -6.046  15.317  23.759  0.00  0.00    +0.000 C 
ATOM     29  C   UNL     1      -6.596  12.878  24.018  0.00  0.00    +0.000 C 
BRANCH  27  30
ATOM     30  O   UNL     1      -4.546  13.796  24.816  0.00  0.00    +0.000 OA
ATOM     31  H   UNL     1      -3.699  13.528  24.405  0.00  0.00    +0.000 HD
ENDBRANCH  27  30
ENDBRANCH  26  27
BRANCH  26  32
ATOM     32  O   UNL     1      -5.111  12.251  21.982  0.00  0.00    +0.000 OA
ATOM     33  H   UNL     1      -5.903  12.344  21.422  0.00  0.00    +0.000 HD
ENDBRANCH  26  32
ENDBRANCH  25  26
ENDBRANCH  24  25
ENDBRANCH  22  24
ENDBRANCH   8  22
TORSDOF 9
ENDMDL
MODEL 5
REMARK VINA RESULT:      -7.0      1.473      2.524
REMARK  Name = 
REMARK  13 active torsions:
REMARK  status: ('A' for Active; 'I' for Inactive)
REMARK    1  A    between atoms: C_5  and  O_6
REMARK    2  A    between atoms: C_9  and  C_10
REMARK    3  A    between atoms: C_15  and  C_16
REMARK    4  A    between atoms: C_17  and  C_18
REMARK    5  A    between atoms: C_18  and  C_19
REMARK    6  A    between atoms: C_18  and  C_20
REMARK    7  A    between atoms: C_20  and  C_21
REMARK    8  A    between atoms: C_21  and  C_22
REMARK    9  A    between atoms: C_22  and  O_23
REMARK   10  A    between atoms: C_22  and  C_24
REMARK   11  A    between atoms: C_24  and  C_25
REMARK   12  A    between atoms: C_24  and  C_26
REMARK   13  A    between atoms: C_24  and  O_27
REMARK                            x       y       z     vdW  Elec       q    Type
REMARK                         _______ _______ _______ _____ _____    ______ ____
ROOT
ATOM      1  C   UNL     1       1.935   8.420  18.583  0.00  0.00    +0.000 C 
ATOM      2  C   UNL     1       1.206   8.695  19.690  0.00  0.00    +0.000 C 
ATOM      3  C   UNL     1       1.561   8.176  21.085  0.00  0.00    +0.000 C 
ATOM      4  C   UNL     1       1.527   9.248  22.178  0.00  0.00    +0.000 C 
ATOM      5  C   UNL     1       0.261  10.095  22.132  0.00  0.00    +0.000 C 
ATOM      6  C   UNL     1       0.032  10.712  20.737  0.00  0.00    +0.000 C 
ATOM      7  C   UNL     1       1.169  11.697  20.364  0.00  0.00    +0.000 C 
ATOM      8  C   UNL     1      -1.378  11.361  20.573  0.00  0.00    +0.000 C 
ATOM      9  C   UNL     1      -1.668  11.214  19.051  0.00  0.00    +0.000 C 
ATOM     10  C   UNL     1      -0.648  10.207  18.482  0.00  0.00    +0.000 C 
ATOM     11  C   UNL     1      -0.058   9.537  19.723  0.00  0.00    +0.000 C 
ENDROOT
BRANCH   1  19
ATOM     12  C   UNL     1       1.165   5.123  19.921  0.00  0.00    +0.000 C 
ATOM     13  C   UNL     1       1.867   5.268  18.788  0.00  0.00    +0.000 C 
ATOM     14  C   UNL     1       1.687   4.356  17.599  0.00  0.00    +0.000 C 
ATOM     15  C   UNL     1       2.911   3.440  17.529  0.00  0.00    +0.000 C 
ATOM     16  C   UNL     1       4.202   4.261  17.423  0.00  0.00    +0.000 C 
ATOM     17  C   UNL     1       4.309   5.341  18.517  0.00  0.00    +0.000 C 
ATOM     18  C   UNL     1       3.025   6.135  18.668  0.00  0.00    +0.000 C 
ATOM     19  C   UNL     1       3.039   7.486  18.583  0.00  0.00    +0.000 C 
BRANCH  16  20
ATOM     20  O   UNL     1       5.324   3.383  17.501  0.00  0.00    +0.000 OA
ATOM     21  H   UNL     1       5.050   2.520  17.143  0.00  0.00    +0.000 HD
ENDBRANCH  16  20
ENDBRANCH   1  19
BRANCH   8  22
ATOM     22  C   UNL     1      -1.568  12.811  21.118  0.00  0.00    +0.000 C 
ATOM     23  C   UNL     1      -1.450  12.875  22.647  0.00  0.00    +0.000 C 
BRANCH  22  24
ATOM     24  C   UNL     1      -2.924  13.424  20.686  0.00  0.00    +0.000 C 
BRANCH  24  25
ATOM     25  C   UNL     1      -4.171  12.642  21.160  0.00  0.00    +0.000 C 
BRANCH  25  26
ATOM     26  C   UNL     1      -5.245  13.525  21.813  0.00  0.00    +0.000 C 
BRANCH  26  27
ATOM     27  C   UNL     1      -5.295  13.485  23.365  0.00  0.00    +0.000 C 
ATOM     28  C   UNL     1      -4.488  14.606  24.021  0.00  0.00    +0.000 C 
ATOM     29  C   UNL     1      -6.731  13.482  23.891  0.00  0.00    +0.000 C 
BRANCH  27  30
ATOM     30  O   UNL     1      -4.697  12.245  23.782  0.00  0.00    +0.000 OA
ATOM     31  H   UNL     1      -4.858  12.185  24.746  0.00  0.00    +0.000 HD
ENDBRANCH  27  30
ENDBRANCH  26  27
BRANCH  26  32
ATOM     32  O   UNL     1      -6.541  13.165  21.304  0.00  0.00    +0.000 OA
ATOM     33  H   UNL     1      -7.143  13.916  21.455  0.00  0.00    +0.000 HD
ENDBRANCH  26  32
ENDBRANCH  25  26
ENDBRANCH  24  25
ENDBRANCH  22  24
ENDBRANCH   8  22
TORSDOF 9
ENDMDL
MODEL 6
REMARK VINA RESULT:      -7.0      1.981      3.080
REMARK  Name = 
REMARK  13 active torsions:
REMARK  status: ('A' for Active; 'I' for Inactive)
REMARK    1  A    between atoms: C_5  and  O_6
REMARK    2  A    between atoms: C_9  and  C_10
REMARK    3  A    between atoms: C_15  and  C_16
REMARK    4  A    between atoms: C_17  and  C_18
REMARK    5  A    between atoms: C_18  and  C_19
REMARK    6  A    between atoms: C_18  and  C_20
REMARK    7  A    between atoms: C_20  and  C_21
REMARK    8  A    between atoms: C_21  and  C_22
REMARK    9  A    between atoms: C_22  and  O_23
REMARK   10  A    between atoms: C_22  and  C_24
REMARK   11  A    between atoms: C_24  and  C_25
REMARK   12  A    between atoms: C_24  and  C_26
REMARK   13  A    between atoms: C_24  and  O_27
REMARK                            x       y       z     vdW  Elec       q    Type
REMARK                         _______ _______ _______ _____ _____    ______ ____
ROOT
ATOM      1  C   UNL     1       1.926   8.340  19.114  0.00  0.00    +0.000 C 
ATOM      2  C   UNL     1       1.093   8.666  20.131  0.00  0.00    +0.000 C 
ATOM      3  C   UNL     1       1.319   8.228  21.579  0.00  0.00    +0.000 C 
ATOM      4  C   UNL     1       1.174   9.357  22.603  0.00  0.00    +0.000 C 
ATOM      5  C   UNL     1      -0.088  10.185  22.392  0.00  0.00    +0.000 C 
ATOM      6  C   UNL     1      -0.189  10.723  20.950  0.00  0.00    +0.000 C 
ATOM      7  C   UNL     1       0.972  11.700  20.631  0.00  0.00    +0.000 C 
ATOM      8  C   UNL     1      -1.581  11.345  20.618  0.00  0.00    +0.000 C 
ATOM      9  C   UNL     1      -1.725  11.111  19.086  0.00  0.00    +0.000 C 
ATOM     10  C   UNL     1      -0.649  10.088  18.672  0.00  0.00    +0.000 C 
ATOM     11  C   UNL     1      -0.174   9.494  19.997  0.00  0.00    +0.000 C 
ENDROOT
BRANCH   1  19
ATOM     12  C   UNL     1       0.997   4.969  20.126  0.00  0.00    +0.000 C 
ATOM     13  C   UNL     1       1.890   5.181  19.148  0.00  0.00    +0.000 C 
ATOM     14  C   UNL     1       1.948   4.330  17.903  0.00  0.00    +0.000 C 
ATOM     15  C   UNL     1       3.184   3.435  18.012  0.00  0.00    +0.000 C 
ATOM     16  C   UNL     1       4.455   4.275  18.184  0.00  0.00    +0.000 C 
ATOM     17  C   UNL     1       4.338   5.299  19.330  0.00  0.00    +0.000 C 
ATOM     18  C   UNL     1       3.031   6.068  19.284  0.00  0.00    +0.000 C 
ATOM     19  C   UNL     1       3.031   7.421  19.269  0.00  0.00    +0.000 C 
BRANCH  16  20
ATOM     20  O   UNL     1       5.563   3.409  18.422  0.00  0.00    +0.000 OA
ATOM     21  H   UNL     1       5.624   2.794  17.670  0.00  0.00    +0.000 HD
ENDBRANCH  16  20
ENDBRANCH   1  19
BRANCH   8  22
ATOM     22  C   UNL     1      -1.832  12.820  21.062  0.00  0.00    +0.000 C 
ATOM     23  C   UNL     1      -2.271  12.916  22.529  0.00  0.00    +0.000 C 
BRANCH  22  24
ATOM     24  C   UNL     1      -2.883  13.527  20.169  0.00  0.00    +0.000 C 
BRANCH  24  25
ATOM     25  C   UNL     1      -4.296  13.633  20.787  0.00  0.00    +0.000 C 
BRANCH  25  26
ATOM     26  C   UNL     1      -5.264  12.539  20.310  0.00  0.00    +0.000 C 
BRANCH  26  27
ATOM     27  C   UNL     1      -6.389  13.011  19.348  0.00  0.00    +0.000 C 
ATOM     28  C   UNL     1      -6.705  11.995  18.250  0.00  0.00    +0.000 C 
ATOM     29  C   UNL     1      -7.662  13.399  20.102  0.00  0.00    +0.000 C 
BRANCH  27  30
ATOM     30  O   UNL     1      -5.918  14.201  18.689  0.00  0.00    +0.000 OA
ATOM     31  H   UNL     1      -5.040  14.388  19.079  0.00  0.00    +0.000 HD
ENDBRANCH  27  30
ENDBRANCH  26  27
BRANCH  26  32
ATOM     32  O   UNL     1      -5.872  11.903  21.447  0.00  0.00    +0.000 OA
ATOM     33  H   UNL     1      -5.386  12.183  22.244  0.00  0.00    +0.000 HD
ENDBRANCH  26  32
ENDBRANCH  25  26
ENDBRANCH  24  25
ENDBRANCH  22  24
ENDBRANCH   8  22
TORSDOF 9
ENDMDL
MODEL 7
REMARK VINA RESULT:      -6.9      1.635      2.647
REMARK  Name = 
REMARK  13 active torsions:
REMARK  status: ('A' for Active; 'I' for Inactive)
REMARK    1  A    between atoms: C_5  and  O_6
REMARK    2  A    between atoms: C_9  and  C_10
REMARK    3  A    between atoms: C_15  and  C_16
REMARK    4  A    between atoms: C_17  and  C_18
REMARK    5  A    between atoms: C_18  and  C_19
REMARK    6  A    between atoms: C_18  and  C_20
REMARK    7  A    between atoms: C_20  and  C_21
REMARK    8  A    between atoms: C_21  and  C_22
REMARK    9  A    between atoms: C_22  and  O_23
REMARK   10  A    between atoms: C_22  and  C_24
REMARK   11  A    between atoms: C_24  and  C_25
REMARK   12  A    between atoms: C_24  and  C_26
REMARK   13  A    between atoms: C_24  and  O_27
REMARK                            x       y       z     vdW  Elec       q    Type
REMARK                         _______ _______ _______ _____ _____    ______ ____
ROOT
ATOM      1  C   UNL     1       1.953   8.391  18.820  0.00  0.00    +0.000 C 
ATOM      2  C   UNL     1       1.190   8.664  19.904  0.00  0.00    +0.000 C 
ATOM      3  C   UNL     1       1.498   8.137  21.307  0.00  0.00    +0.000 C 
ATOM      4  C   UNL     1       1.433   9.203  22.403  0.00  0.00    +0.000 C 
ATOM      5  C   UNL     1       0.173  10.056  22.321  0.00  0.00    +0.000 C 
ATOM      6  C   UNL     1      -0.009  10.681  20.923  0.00  0.00    +0.000 C 
ATOM      7  C   UNL     1       1.143  11.663  20.591  0.00  0.00    +0.000 C 
ATOM      8  C   UNL     1      -1.410  11.337  20.716  0.00  0.00    +0.000 C 
ATOM      9  C   UNL     1      -1.651  11.198  19.185  0.00  0.00    +0.000 C 
ATOM     10  C   UNL     1      -0.618  10.190  18.644  0.00  0.00    +0.000 C 
ATOM     11  C   UNL     1      -0.072   9.512  19.900  0.00  0.00    +0.000 C 
ENDROOT
BRANCH   1  19
ATOM     12  C   UNL     1       1.085   5.035  19.931  0.00  0.00    +0.000 C 
ATOM     13  C   UNL     1       1.865   5.233  18.859  0.00  0.00    +0.000 C 
ATOM     14  C   UNL     1       1.768   4.383  17.616  0.00  0.00    +0.000 C 
ATOM     15  C   UNL     1       2.992   3.466  17.587  0.00  0.00    +0.000 C 
ATOM     16  C   UNL     1       4.289   4.283  17.614  0.00  0.00    +0.000 C 
ATOM     17  C   UNL     1       4.320   5.307  18.766  0.00  0.00    +0.000 C 
ATOM     18  C   UNL     1       3.030   6.099  18.866  0.00  0.00    +0.000 C 
ATOM     19  C   UNL     1       3.053   7.452  18.850  0.00  0.00    +0.000 C 
BRANCH  16  20
ATOM     20  O   UNL     1       5.402   3.397  17.727  0.00  0.00    +0.000 OA
ATOM     21  H   UNL     1       5.584   3.038  16.841  0.00  0.00    +0.000 HD
ENDBRANCH  16  20
ENDBRANCH   1  19
BRANCH   8  22
ATOM     22  C   UNL     1      -1.612  12.785  21.261  0.00  0.00    +0.000 C 
ATOM     23  C   UNL     1      -2.078  12.793  22.724  0.00  0.00    +0.000 C 
BRANCH  22  24
ATOM     24  C   UNL     1      -2.615  13.597  20.404  0.00  0.00    +0.000 C 
BRANCH  24  25
ATOM     25  C   UNL     1      -3.894  14.045  21.149  0.00  0.00    +0.000 C 
BRANCH  25  26
ATOM     26  C   UNL     1      -5.191  13.491  20.539  0.00  0.00    +0.000 C 
BRANCH  26  27
ATOM     27  C   UNL     1      -6.205  12.890  21.551  0.00  0.00    +0.000 C 
ATOM     28  C   UNL     1      -6.998  13.954  22.310  0.00  0.00    +0.000 C 
ATOM     29  C   UNL     1      -7.153  11.890  20.885  0.00  0.00    +0.000 C 
BRANCH  27  30
ATOM     30  O   UNL     1      -5.450  12.157  22.532  0.00  0.00    +0.000 OA
ATOM     31  H   UNL     1      -5.095  12.830  23.148  0.00  0.00    +0.000 HD
ENDBRANCH  27  30
ENDBRANCH  26  27
BRANCH  26  32
ATOM     32  O   UNL     1      -4.873  12.487  19.559  0.00  0.00    +0.000 OA
ATOM     33  H   UNL     1      -3.939  12.600  19.305  0.00  0.00    +0.000 HD
ENDBRANCH  26  32
ENDBRANCH  25  26
ENDBRANCH  24  25
ENDBRANCH  22  24
ENDBRANCH   8  22
TORSDOF 9
ENDMDL
MODEL 8
REMARK VINA RESULT:      -6.9      1.610     10.201
REMARK  Name = 
REMARK  13 active torsions:
REMARK  status: ('A' for Active; 'I' for Inactive)
REMARK    1  A    between atoms: C_5  and  O_6
REMARK    2  A    between atoms: C_9  and  C_10
REMARK    3  A    between atoms: C_15  and  C_16
REMARK    4  A    between atoms: C_17  and  C_18
REMARK    5  A    between atoms: C_18  and  C_19
REMARK    6  A    between atoms: C_18  and  C_20
REMARK    7  A    between atoms: C_20  and  C_21
REMARK    8  A    between atoms: C_21  and  C_22
REMARK    9  A    between atoms: C_22  and  O_23
REMARK   10  A    between atoms: C_22  and  C_24
REMARK   11  A    between atoms: C_24  and  C_25
REMARK   12  A    between atoms: C_24  and  C_26
REMARK   13  A    between atoms: C_24  and  O_27
REMARK                            x       y       z     vdW  Elec       q    Type
REMARK                         _______ _______ _______ _____ _____    ______ ____
ROOT
ATOM      1  C   UNL     1      -1.608  12.747  22.247  0.00  0.00    +0.000 C 
ATOM      2  C   UNL     1      -1.544  12.046  21.090  0.00  0.00    +0.000 C 
ATOM      3  C   UNL     1      -2.085  12.565  19.757  0.00  0.00    +0.000 C 
ATOM      4  C   UNL     1      -1.114  12.407  18.584  0.00  0.00    +0.000 C 
ATOM      5  C   UNL     1      -0.506  11.012  18.508  0.00  0.00    +0.000 C 
ATOM      6  C   UNL     1       0.155  10.599  19.839  0.00  0.00    +0.000 C 
ATOM      7  C   UNL     1       1.350  11.524  20.185  0.00  0.00    +0.000 C 
ATOM      8  C   UNL     1       0.552   9.091  19.890  0.00  0.00    +0.000 C 
ATOM      9  C   UNL     1       0.460   8.745  21.405  0.00  0.00    +0.000 C 
ATOM     10  C   UNL     1      -0.307   9.890  22.095  0.00  0.00    +0.000 C 
ATOM     11  C   UNL     1      -0.945  10.657  20.937  0.00  0.00    +0.000 C 
ENDROOT
BRANCH   1  19
ATOM     12  C   UNL     1      -5.130  12.590  21.338  0.00  0.00    +0.000 C 
ATOM     13  C   UNL     1      -4.724  13.229  22.444  0.00  0.00    +0.000 C 
ATOM     14  C   UNL     1      -5.498  13.180  23.739  0.00  0.00    +0.000 C 
ATOM     15  C   UNL     1      -6.170  14.541  23.927  0.00  0.00    +0.000 C 
ATOM     16  C   UNL     1      -5.131  15.669  23.931  0.00  0.00    +0.000 C 
ATOM     17  C   UNL     1      -4.194  15.614  22.709  0.00  0.00    +0.000 C 
ATOM     18  C   UNL     1      -3.661  14.216  22.455  0.00  0.00    +0.000 C 
ATOM     19  C   UNL     1      -2.329  13.995  22.367  0.00  0.00    +0.000 C 
BRANCH  16  20
ATOM     20  O   UNL     1      -5.803  16.928  23.967  0.00  0.00    +0.000 OA
ATOM     21  H   UNL     1      -6.101  17.077  24.882  0.00  0.00    +0.000 HD
ENDBRANCH  16  20
ENDBRANCH   1  19
BRANCH   8  22
ATOM     22  C   UNL     1       1.905   8.682  19.227  0.00  0.00    +0.000 C 
ATOM     23  C   UNL     1       1.872   8.842  17.701  0.00  0.00    +0.000 C 
BRANCH  22  24
ATOM     24  C   UNL     1       2.311   7.228  19.578  0.00  0.00    +0.000 C 
BRANCH  24  25
ATOM     25  C   UNL     1       2.545   6.306  18.359  0.00  0.00    +0.000 C 
BRANCH  25  26
ATOM     26  C   UNL     1       2.963   4.877  18.735  0.00  0.00    +0.000 C 
BRANCH  26  27
ATOM     27  C   UNL     1       1.882   3.782  18.521  0.00  0.00    +0.000 C 
ATOM     28  C   UNL     1       2.472   2.414  18.178  0.00  0.00    +0.000 C 
ATOM     29  C   UNL     1       0.935   3.672  19.718  0.00  0.00    +0.000 C 
BRANCH  27  30
ATOM     30  O   UNL     1       1.082   4.183  17.394  0.00  0.00    +0.000 OA
ATOM     31  H   UNL     1       1.544   4.954  17.004  0.00  0.00    +0.000 HD
ENDBRANCH  27  30
ENDBRANCH  26  27
BRANCH  26  32
ATOM     32  O   UNL     1       3.383   4.843  20.110  0.00  0.00    +0.000 OA
ATOM     33  H   UNL     1       2.809   5.447  20.614  0.00  0.00    +0.000 HD
ENDBRANCH  26  32
ENDBRANCH  25  26
ENDBRANCH  24  25
ENDBRANCH  22  24
ENDBRANCH   8  22
TORSDOF 9
ENDMDL
MODEL 9
REMARK VINA RESULT:      -6.9      0.958      1.172
REMARK  Name = 
REMARK  13 active torsions:
REMARK  status: ('A' for Active; 'I' for Inactive)
REMARK    1  A    between atoms: C_5  and  O_6
REMARK    2  A    between atoms: C_9  and  C_10
REMARK    3  A    between atoms: C_15  and  C_16
REMARK    4  A    between atoms: C_17  and  C_18
REMARK    5  A    between atoms: C_18  and  C_19
REMARK    6  A    between atoms: C_18  and  C_20
REMARK    7  A    between atoms: C_20  and  C_21
REMARK    8  A    between atoms: C_21  and  C_22
REMARK    9  A    between atoms: C_22  and  O_23
REMARK   10  A    between atoms: C_22  and  C_24
REMARK   11  A    between atoms: C_24  and  C_25
REMARK   12  A    between atoms: C_24  and  C_26
REMARK   13  A    between atoms: C_24  and  O_27
REMARK                            x       y       z     vdW  Elec       q    Type
REMARK                         _______ _______ _______ _____ _____    ______ ____
ROOT
ATOM      1  C   UNL     1       1.540   7.176  20.252  0.00  0.00    +0.000 C 
ATOM      2  C   UNL     1       1.589   8.517  20.070  0.00  0.00    +0.000 C 
ATOM      3  C   UNL     1       2.195   9.178  18.831  0.00  0.00    +0.000 C 
ATOM      4  C   UNL     1       1.316  10.268  18.211  0.00  0.00    +0.000 C 
ATOM      5  C   UNL     1       0.782  11.252  19.244  0.00  0.00    +0.000 C 
ATOM      6  C   UNL     1       0.052  10.535  20.398  0.00  0.00    +0.000 C 
ATOM      7  C   UNL     1      -1.207   9.787  19.889  0.00  0.00    +0.000 C 
ATOM      8  C   UNL     1      -0.275  11.474  21.601  0.00  0.00    +0.000 C 
ATOM      9  C   UNL     1      -0.271  10.510  22.823  0.00  0.00    +0.000 C 
ATOM     10  C   UNL     1       0.391   9.194  22.371  0.00  0.00    +0.000 C 
ATOM     11  C   UNL     1       1.069   9.556  21.050  0.00  0.00    +0.000 C 
ENDROOT
BRANCH   1  19
ATOM     12  C   UNL     1       2.239   3.908  21.695  0.00  0.00    +0.000 C 
ATOM     13  C   UNL     1       1.715   4.029  20.467  0.00  0.00    +0.000 C 
ATOM     14  C   UNL     1       0.653   3.094  19.942  0.00  0.00    +0.000 C 
ATOM     15  C   UNL     1       1.314   2.174  18.913  0.00  0.00    +0.000 C 
ATOM     16  C   UNL     1       1.958   2.989  17.786  0.00  0.00    +0.000 C 
ATOM     17  C   UNL     1       2.898   4.091  18.314  0.00  0.00    +0.000 C 
ATOM     18  C   UNL     1       2.270   4.891  19.440  0.00  0.00    +0.000 C 
ATOM     19  C   UNL     1       2.189   6.239  19.362  0.00  0.00    +0.000 C 
BRANCH  16  20
ATOM     20  O   UNL     1       2.681   2.111  16.925  0.00  0.00    +0.000 OA
ATOM     21  H   UNL     1       3.352   1.655  17.463  0.00  0.00    +0.000 HD
ENDBRANCH  16  20
ENDBRANCH   1  19
BRANCH   8  22
ATOM     22  C   UNL     1      -1.557  12.357  21.494  0.00  0.00    +0.000 C 
ATOM     23  C   UNL     1      -1.235  13.856  21.570  0.00  0.00    +0.000 C 
BRANCH  22  24
ATOM     24  C   UNL     1      -2.601  12.005  22.584  0.00  0.00    +0.000 C 
BRANCH  24  25
ATOM     25  C   UNL     1      -2.839  13.111  23.637  0.00  0.00    +0.000 C 
BRANCH  25  26
ATOM     26  C   UNL     1      -4.324  13.403  23.904  0.00  0.00    +0.000 C 
BRANCH  26  27
ATOM     27  C   UNL     1      -4.740  14.897  23.821  0.00  0.00    +0.000 C 
ATOM     28  C   UNL     1      -3.858  15.814  24.668  0.00  0.00    +0.000 C 
ATOM     29  C   UNL     1      -4.799  15.396  22.376  0.00  0.00    +0.000 C 
BRANCH  27  30
ATOM     30  O   UNL     1      -6.074  15.001  24.351  0.00  0.00    +0.000 OA
ATOM     31  H   UNL     1      -6.334  14.088  24.592  0.00  0.00    +0.000 HD
ENDBRANCH  27  30
ENDBRANCH  26  27
BRANCH  26  32
ATOM     32  O   UNL     1      -4.690  12.897  25.200  0.00  0.00    +0.000 OA
ATOM     33  H   UNL     1      -5.289  13.542  25.616  0.00  0.00    +0.000 HD
ENDBRANCH  26  32
ENDBRANCH  25  26
ENDBRANCH  24  25
ENDBRANCH  22  24
ENDBRANCH   8  22
TORSDOF 9
ENDMDL
