MODEL 1
REMARK VINA RESULT:      -8.0      0.000      0.000
REMARK  Name = 
REMARK  10 active torsions:
REMARK  status: ('A' for Active; 'I' for Inactive)
REMARK    1  A    between atoms: C_1  and  O_2
REMARK    2  A    between atoms: O_2  and  C_3
REMARK    3  A    between atoms: C_7  and  C_8
REMARK    4  A    between atoms: C_8  and  N_9
REMARK    5  A    between atoms: C_10  and  C_12
REMARK    6  A    between atoms: C_17  and  C_18
REMARK    7  A    between atoms: C_18  and  C_19
REMARK    8  A    between atoms: C_19  and  C_20
REMARK    9  A    between atoms: C_29  and  O_30
REMARK   10  A    between atoms: O_30  and  C_31
REMARK                            x       y       z     vdW  Elec       q    Type
REMARK                         _______ _______ _______ _____ _____    ______ ____
ROOT
ATOM      1  C   UNL     1       1.525   7.787  20.142  0.00  0.00    +0.000 A 
ATOM      2  C   UNL     1       1.769   8.487  18.945  0.00  0.00    +0.000 A 
ATOM      3  C   UNL     1       1.298   9.786  18.746  0.00  0.00    +0.000 A 
ATOM      4  C   UNL     1       0.576  10.391  19.777  0.00  0.00    +0.000 A 
ATOM      5  N   UNL     1       0.048  11.644  19.832  0.00  0.00    +0.000 NA
ATOM      6  C   UNL     1      -0.575  11.694  20.989  0.00  0.00    +0.000 A 
ATOM      7  O   UNL     1      -0.464  10.541  21.745  0.00  0.00    +0.000 OA
ATOM      8  C   UNL     1       0.303   9.690  20.944  0.00  0.00    +0.000 A 
ATOM      9  C   UNL     1       0.755   8.373  21.178  0.00  0.00    +0.000 A 
ENDROOT
BRANCH   1  11
ATOM     10  N   UNL     1       3.404   6.273  19.588  0.00  0.00    +0.000 N 
ATOM     11  C   UNL     1       2.194   6.441  20.214  0.00  0.00    +0.000 C 
ATOM     12  O   UNL     1       1.662   5.553  20.873  0.00  0.00    +0.000 OA
ATOM     13  H   UNL     1       3.863   7.034  19.112  0.00  0.00    +0.000 HD
BRANCH  10  14
ATOM     14  C   UNL     1       4.185   5.053  19.771  0.00  0.00    +0.000 C 
BRANCH  14  19
ATOM     15  C   UNL     1       6.116   4.211  16.576  0.00  0.00    +0.000 A 
ATOM     16  C   UNL     1       7.384   4.712  16.917  0.00  0.00    +0.000 A 
ATOM     17  C   UNL     1       7.619   5.266  18.172  0.00  0.00    +0.000 A 
ATOM     18  C   UNL     1       6.579   5.355  19.088  0.00  0.00    +0.000 A 
ATOM     19  C   UNL     1       5.283   4.936  18.741  0.00  0.00    +0.000 A 
ATOM     20  C   UNL     1       5.037   4.381  17.464  0.00  0.00    +0.000 A 
BRANCH  15  22
ATOM     21  C   UNL     1       6.428   4.255  14.237  0.00  0.00    +0.000 C 
ATOM     22  O   UNL     1       5.928   3.562  15.383  0.00  0.00    +0.000 OA
ENDBRANCH  15  22
BRANCH  20  23
ATOM     23  O   UNL     1       3.725   4.032  17.268  0.00  0.00    +0.000 OA
ATOM     24  C   UNL     1       3.298   2.706  17.532  0.00  0.00    +0.000 C 
ENDBRANCH  20  23
ENDBRANCH  14  19
ENDBRANCH  10  14
ENDBRANCH   1  11
BRANCH   6  25
ATOM     25  C   UNL     1      -1.495  12.827  21.352  0.00  0.00    +0.000 C 
BRANCH  25  26
ATOM     26  C   UNL     1      -2.948  12.851  20.894  0.00  0.00    +0.000 C 
BRANCH  26  27
ATOM     27  C   UNL     1      -3.860  12.853  22.125  0.00  0.00    +0.000 A 
ATOM     28  C   UNL     1      -3.362  12.534  23.397  0.00  0.00    +0.000 A 
ATOM     29  C   UNL     1      -4.216  12.431  24.501  0.00  0.00    +0.000 A 
ATOM     30  C   UNL     1      -5.588  12.644  24.351  0.00  0.00    +0.000 A 
ATOM     31  C   UNL     1      -6.099  12.967  23.098  0.00  0.00    +0.000 A 
ATOM     32  C   UNL     1      -5.241  13.070  21.991  0.00  0.00    +0.000 A 
ENDBRANCH  26  27
ENDBRANCH  25  26
ENDBRANCH   6  25
TORSDOF 8
ENDMDL
MODEL 2
REMARK VINA RESULT:      -7.9      6.392      9.960
REMARK  Name = 
REMARK  10 active torsions:
REMARK  status: ('A' for Active; 'I' for Inactive)
REMARK    1  A    between atoms: C_1  and  O_2
REMARK    2  A    between atoms: O_2  and  C_3
REMARK    3  A    between atoms: C_7  and  C_8
REMARK    4  A    between atoms: C_8  and  N_9
REMARK    5  A    between atoms: C_10  and  C_12
REMARK    6  A    between atoms: C_17  and  C_18
REMARK    7  A    between atoms: C_18  and  C_19
REMARK    8  A    between atoms: C_19  and  C_20
REMARK    9  A    between atoms: C_29  and  O_30
REMARK   10  A    between atoms: O_30  and  C_31
REMARK                            x       y       z     vdW  Elec       q    Type
REMARK                         _______ _______ _______ _____ _____    ______ ____
ROOT
ATOM      1  C   UNL     1       7.605   7.849  18.122  0.00  0.00    +0.000 A 
ATOM      2  C   UNL     1       8.231   6.878  18.926  0.00  0.00    +0.000 A 
ATOM      3  C   UNL     1       7.776   5.559  18.969  0.00  0.00    +0.000 A 
ATOM      4  C   UNL     1       6.677   5.213  18.181  0.00  0.00    +0.000 A 
ATOM      5  N   UNL     1       6.078   4.000  18.031  0.00  0.00    +0.000 NA
ATOM      6  C   UNL     1       5.062   4.226  17.226  0.00  0.00    +0.000 A 
ATOM      7  O   UNL     1       4.963   5.534  16.789  0.00  0.00    +0.000 OA
ATOM      8  C   UNL     1       6.036   6.177  17.416  0.00  0.00    +0.000 A 
ATOM      9  C   UNL     1       6.461   7.522  17.352  0.00  0.00    +0.000 A 
ENDROOT
BRANCH   1  11
ATOM     10  N   UNL     1       9.201   9.457  19.120  0.00  0.00    +0.000 N 
ATOM     11  C   UNL     1       8.293   9.187  18.126  0.00  0.00    +0.000 C 
ATOM     12  O   UNL     1       8.059   9.974  17.214  0.00  0.00    +0.000 OA
ATOM     13  H   UNL     1       9.436   8.772  19.821  0.00  0.00    +0.000 HD
BRANCH  10  14
ATOM     14  C   UNL     1      10.030  10.658  19.079  0.00  0.00    +0.000 C 
BRANCH  14  19
ATOM     15  C   UNL     1       8.616  14.074  20.069  0.00  0.00    +0.000 A 
ATOM     16  C   UNL     1       8.322  13.834  21.422  0.00  0.00    +0.000 A 
ATOM     17  C   UNL     1       8.621  12.609  22.012  0.00  0.00    +0.000 A 
ATOM     18  C   UNL     1       9.186  11.599  21.246  0.00  0.00    +0.000 A 
ATOM     19  C   UNL     1       9.413  11.786  19.871  0.00  0.00    +0.000 A 
ATOM     20  C   UNL     1       9.104  13.026  19.266  0.00  0.00    +0.000 A 
BRANCH  15  22
ATOM     21  C   UNL     1       9.430  16.280  19.871  0.00  0.00    +0.000 C 
ATOM     22  O   UNL     1       8.426  15.320  19.531  0.00  0.00    +0.000 OA
ENDBRANCH  15  22
BRANCH  20  23
ATOM     23  O   UNL     1       9.367  13.053  17.919  0.00  0.00    +0.000 OA
ATOM     24  C   UNL     1      10.560  13.654  17.444  0.00  0.00    +0.000 C 
ENDBRANCH  20  23
ENDBRANCH  14  19
ENDBRANCH  10  14
ENDBRANCH   1  11
BRANCH   6  25
ATOM     25  C   UNL     1       3.994   3.197  16.982  0.00  0.00    +0.000 C 
BRANCH  25  26
ATOM     26  C   UNL     1       2.515   3.533  17.136  0.00  0.00    +0.000 C 
BRANCH  26  27
ATOM     27  C   UNL     1       2.174   3.616  18.627  0.00  0.00    +0.000 A 
ATOM     28  C   UNL     1       2.133   4.850  19.294  0.00  0.00    +0.000 A 
ATOM     29  C   UNL     1       1.929   4.916  20.677  0.00  0.00    +0.000 A 
ATOM     30  C   UNL     1       1.763   3.745  21.420  0.00  0.00    +0.000 A 
ATOM     31  C   UNL     1       1.795   2.513  20.774  0.00  0.00    +0.000 A 
ATOM     32  C   UNL     1       1.999   2.448  19.387  0.00  0.00    +0.000 A 
ENDBRANCH  26  27
ENDBRANCH  25  26
ENDBRANCH   6  25
TORSDOF 8
ENDMDL
MODEL 3
REMARK VINA RESULT:      -7.9      2.354     10.774
REMARK  Name = 
REMARK  10 active torsions:
REMARK  status: ('A' for Active; 'I' for Inactive)
REMARK    1  A    between atoms: C_1  and  O_2
REMARK    2  A    between atoms: O_2  and  C_3
REMARK    3  A    between atoms: C_7  and  C_8
REMARK    4  A    between atoms: C_8  and  N_9
REMARK    5  A    between atoms: C_10  and  C_12
REMARK    6  A    between atoms: C_17  and  C_18
REMARK    7  A    between atoms: C_18  and  C_19
REMARK    8  A    between atoms: C_19  and  C_20
REMARK    9  A    between atoms: C_29  and  O_30
REMARK   10  A    between atoms: O_30  and  C_31
REMARK                            x       y       z     vdW  Elec       q    Type
REMARK                         _______ _______ _______ _____ _____    ______ ____
ROOT
ATOM      1  C   UNL     1       1.049   9.591  19.941  0.00  0.00    +0.000 A 
ATOM      2  C   UNL     1       0.961   8.714  21.039  0.00  0.00    +0.000 A 
ATOM      3  C   UNL     1       1.492   7.424  20.991  0.00  0.00    +0.000 A 
ATOM      4  C   UNL     1       2.130   7.016  19.818  0.00  0.00    +0.000 A 
ATOM      5  N   UNL     1       2.746   5.834  19.544  0.00  0.00    +0.000 NA
ATOM      6  C   UNL     1       3.130   5.939  18.291  0.00  0.00    +0.000 A 
ATOM      7  O   UNL     1       2.837   7.158  17.706  0.00  0.00    +0.000 OA
ATOM      8  C   UNL     1       2.185   7.866  18.721  0.00  0.00    +0.000 A 
ATOM      9  C   UNL     1       1.653   9.173  18.729  0.00  0.00    +0.000 A 
ENDROOT
BRANCH   1  11
ATOM     10  N   UNL     1      -0.505  11.446  19.421  0.00  0.00    +0.000 N 
ATOM     11  C   UNL     1       0.511  10.970  20.211  0.00  0.00    +0.000 C 
ATOM     12  O   UNL     1       0.962  11.604  21.160  0.00  0.00    +0.000 OA
ATOM     13  H   UNL     1      -0.914  10.884  18.691  0.00  0.00    +0.000 HD
BRANCH  10  14
ATOM     14  C   UNL     1      -1.189  12.695  19.742  0.00  0.00    +0.000 C 
BRANCH  14  19
ATOM     15  C   UNL     1      -4.848  11.904  18.942  0.00  0.00    +0.000 A 
ATOM     16  C   UNL     1      -5.440  12.207  20.179  0.00  0.00    +0.000 A 
ATOM     17  C   UNL     1      -4.678  12.703  21.233  0.00  0.00    +0.000 A 
ATOM     18  C   UNL     1      -3.309  12.869  21.071  0.00  0.00    +0.000 A 
ATOM     19  C   UNL     1      -2.681  12.495  19.870  0.00  0.00    +0.000 A 
ATOM     20  C   UNL     1      -3.449  11.983  18.800  0.00  0.00    +0.000 A 
BRANCH  15  22
ATOM     21  C   UNL     1      -7.023  11.788  18.033  0.00  0.00    +0.000 C 
ATOM     22  O   UNL     1      -5.625  11.529  17.877  0.00  0.00    +0.000 OA
ENDBRANCH  15  22
BRANCH  20  23
ATOM     23  O   UNL     1      -2.696  11.651  17.702  0.00  0.00    +0.000 OA
ATOM     24  C   UNL     1      -2.734  10.329  17.192  0.00  0.00    +0.000 C 
ENDBRANCH  20  23
ENDBRANCH  14  19
ENDBRANCH  10  14
ENDBRANCH   1  11
BRANCH   6  25
ATOM     25  C   UNL     1       3.649   4.761  17.513  0.00  0.00    +0.000 C 
BRANCH  25  26
ATOM     26  C   UNL     1       4.875   4.878  16.614  0.00  0.00    +0.000 C 
BRANCH  26  27
ATOM     27  C   UNL     1       5.968   5.651  17.358  0.00  0.00    +0.000 A 
ATOM     28  C   UNL     1       6.379   6.921  16.928  0.00  0.00    +0.000 A 
ATOM     29  C   UNL     1       7.451   7.579  17.542  0.00  0.00    +0.000 A 
ATOM     30  C   UNL     1       8.133   6.976  18.601  0.00  0.00    +0.000 A 
ATOM     31  C   UNL     1       7.734   5.719  19.046  0.00  0.00    +0.000 A 
ATOM     32  C   UNL     1       6.659   5.060  18.429  0.00  0.00    +0.000 A 
ENDBRANCH  26  27
ENDBRANCH  25  26
ENDBRANCH   6  25
TORSDOF 8
ENDMDL
MODEL 4
REMARK VINA RESULT:      -7.9      0.852      1.316
REMARK  Name = 
REMARK  10 active torsions:
REMARK  status: ('A' for Active; 'I' for Inactive)
REMARK    1  A    between atoms: C_1  and  O_2
REMARK    2  A    between atoms: O_2  and  C_3
REMARK    3  A    between atoms: C_7  and  C_8
REMARK    4  A    between atoms: C_8  and  N_9
REMARK    5  A    between atoms: C_10  and  C_12
REMARK    6  A    between atoms: C_17  and  C_18
REMARK    7  A    between atoms: C_18  and  C_19
REMARK    8  A    between atoms: C_19  and  C_20
REMARK    9  A    between atoms: C_29  and  O_30
REMARK   10  A    between atoms: O_30  and  C_31
REMARK                            x       y       z     vdW  Elec       q    Type
REMARK                         _______ _______ _______ _____ _____    ______ ____
ROOT
ATOM      1  C   UNL     1       1.891   7.982  19.328  0.00  0.00    +0.000 A 
ATOM      2  C   UNL     1       1.708   8.855  18.239  0.00  0.00    +0.000 A 
ATOM      3  C   UNL     1       1.162  10.128  18.404  0.00  0.00    +0.000 A 
ATOM      4  C   UNL     1       0.803  10.531  19.692  0.00  0.00    +0.000 A 
ATOM      5  N   UNL     1       0.288  11.720  20.106  0.00  0.00    +0.000 NA
ATOM      6  C   UNL     1       0.079  11.564  21.395  0.00  0.00    +0.000 A 
ATOM      7  O   UNL     1       0.463  10.331  21.888  0.00  0.00    +0.000 OA
ATOM      8  C   UNL     1       0.947   9.658  20.762  0.00  0.00    +0.000 A 
ATOM      9  C   UNL     1       1.488   8.360  20.633  0.00  0.00    +0.000 A 
ENDROOT
BRANCH   1  11
ATOM     10  N   UNL     1       3.359   6.080  19.926  0.00  0.00    +0.000 N 
ATOM     11  C   UNL     1       2.583   6.694  18.974  0.00  0.00    +0.000 C 
ATOM     12  O   UNL     1       2.392   6.206  17.865  0.00  0.00    +0.000 OA
ATOM     13  H   UNL     1       3.448   6.456  20.857  0.00  0.00    +0.000 HD
BRANCH  10  14
ATOM     14  C   UNL     1       3.908   4.746  19.707  0.00  0.00    +0.000 C 
BRANCH  14  19
ATOM     15  C   UNL     1       6.124   4.077  16.659  0.00  0.00    +0.000 A 
ATOM     16  C   UNL     1       7.257   4.830  17.011  0.00  0.00    +0.000 A 
ATOM     17  C   UNL     1       7.320   5.499  18.229  0.00  0.00    +0.000 A 
ATOM     18  C   UNL     1       6.237   5.449  19.096  0.00  0.00    +0.000 A 
ATOM     19  C   UNL     1       5.060   4.771  18.731  0.00  0.00    +0.000 A 
ATOM     20  C   UNL     1       4.988   4.097  17.491  0.00  0.00    +0.000 A 
BRANCH  15  22
ATOM     21  C   UNL     1       6.414   4.058  14.317  0.00  0.00    +0.000 C 
ATOM     22  O   UNL     1       6.121   3.328  15.511  0.00  0.00    +0.000 OA
ENDBRANCH  15  22
BRANCH  20  23
ATOM     23  O   UNL     1       3.775   3.495  17.270  0.00  0.00    +0.000 OA
ATOM     24  C   UNL     1       3.582   2.140  17.639  0.00  0.00    +0.000 C 
ENDBRANCH  20  23
ENDBRANCH  14  19
ENDBRANCH  10  14
ENDBRANCH   1  11
BRANCH   6  25
ATOM     25  C   UNL     1      -0.702  12.563  22.203  0.00  0.00    +0.000 C 
BRANCH  25  26
ATOM     26  C   UNL     1      -1.543  12.135  23.401  0.00  0.00    +0.000 C 
BRANCH  26  27
ATOM     27  C   UNL     1      -3.015  12.453  23.116  0.00  0.00    +0.000 A 
ATOM     28  C   UNL     1      -3.481  12.615  21.802  0.00  0.00    +0.000 A 
ATOM     29  C   UNL     1      -4.799  13.011  21.549  0.00  0.00    +0.000 A 
ATOM     30  C   UNL     1      -5.677  13.253  22.608  0.00  0.00    +0.000 A 
ATOM     31  C   UNL     1      -5.234  13.090  23.917  0.00  0.00    +0.000 A 
ATOM     32  C   UNL     1      -3.911  12.693  24.170  0.00  0.00    +0.000 A 
ENDBRANCH  26  27
ENDBRANCH  25  26
ENDBRANCH   6  25
TORSDOF 8
ENDMDL
MODEL 5
REMARK VINA RESULT:      -7.9      2.427     11.393
REMARK  Name = 
REMARK  10 active torsions:
REMARK  status: ('A' for Active; 'I' for Inactive)
REMARK    1  A    between atoms: C_1  and  O_2
REMARK    2  A    between atoms: O_2  and  C_3
REMARK    3  A    between atoms: C_7  and  C_8
REMARK    4  A    between atoms: C_8  and  N_9
REMARK    5  A    between atoms: C_10  and  C_12
REMARK    6  A    between atoms: C_17  and  C_18
REMARK    7  A    between atoms: C_18  and  C_19
REMARK    8  A    between atoms: C_19  and  C_20
REMARK    9  A    between atoms: C_29  and  O_30
REMARK   10  A    between atoms: O_30  and  C_31
REMARK                            x       y       z     vdW  Elec       q    Type
REMARK                         _______ _______ _______ _____ _____    ______ ____
ROOT
ATOM      1  C   UNL     1       1.876   7.508  19.813  0.00  0.00    +0.000 A 
ATOM      2  C   UNL     1       1.879   6.342  20.601  0.00  0.00    +0.000 A 
ATOM      3  C   UNL     1       2.691   5.250  20.291  0.00  0.00    +0.000 A 
ATOM      4  C   UNL     1       3.520   5.340  19.171  0.00  0.00    +0.000 A 
ATOM      5  N   UNL     1       4.413   4.432  18.690  0.00  0.00    +0.000 NA
ATOM      6  C   UNL     1       4.888   4.979  17.593  0.00  0.00    +0.000 A 
ATOM      7  O   UNL     1       4.386   6.239  17.321  0.00  0.00    +0.000 OA
ATOM      8  C   UNL     1       3.491   6.474  18.371  0.00  0.00    +0.000 A 
ATOM      9  C   UNL     1       2.679   7.594  18.647  0.00  0.00    +0.000 A 
ENDROOT
BRANCH   1  11
ATOM     10  N   UNL     1       0.827   9.740  19.590  0.00  0.00    +0.000 N 
ATOM     11  C   UNL     1       1.015   8.615  20.356  0.00  0.00    +0.000 C 
ATOM     12  O   UNL     1       0.465   8.457  21.441  0.00  0.00    +0.000 OA
ATOM     13  H   UNL     1       1.227   9.823  18.668  0.00  0.00    +0.000 HD
BRANCH  10  14
ATOM     14  C   UNL     1      -0.135  10.766  19.978  0.00  0.00    +0.000 C 
BRANCH  14  19
ATOM     15  C   UNL     1      -3.497  11.611  18.357  0.00  0.00    +0.000 A 
ATOM     16  C   UNL     1      -3.352  10.943  17.129  0.00  0.00    +0.000 A 
ATOM     17  C   UNL     1      -2.210  10.196  16.854  0.00  0.00    +0.000 A 
ATOM     18  C   UNL     1      -1.187  10.136  17.790  0.00  0.00    +0.000 A 
ATOM     19  C   UNL     1      -1.274  10.862  18.991  0.00  0.00    +0.000 A 
ATOM     20  C   UNL     1      -2.428  11.629  19.271  0.00  0.00    +0.000 A 
BRANCH  15  22
ATOM     21  C   UNL     1      -5.733  12.031  17.727  0.00  0.00    +0.000 C 
ATOM     22  O   UNL     1      -4.674  12.245  18.663  0.00  0.00    +0.000 OA
ENDBRANCH  15  22
BRANCH  20  23
ATOM     23  O   UNL     1      -2.360  12.291  20.472  0.00  0.00    +0.000 OA
ATOM     24  C   UNL     1      -2.194  13.699  20.495  0.00  0.00    +0.000 C 
ENDBRANCH  20  23
ENDBRANCH  14  19
ENDBRANCH  10  14
ENDBRANCH   1  11
BRANCH   6  25
ATOM     25  C   UNL     1       5.736   4.208  16.620  0.00  0.00    +0.000 C 
BRANCH  25  26
ATOM     26  C   UNL     1       6.980   4.822  15.988  0.00  0.00    +0.000 C 
BRANCH  26  27
ATOM     27  C   UNL     1       6.968   4.537  14.483  0.00  0.00    +0.000 A 
ATOM     28  C   UNL     1       7.785   5.260  13.600  0.00  0.00    +0.000 A 
ATOM     29  C   UNL     1       7.693   5.073  12.216  0.00  0.00    +0.000 A 
ATOM     30  C   UNL     1       6.780   4.158  11.689  0.00  0.00    +0.000 A 
ATOM     31  C   UNL     1       5.967   3.427  12.549  0.00  0.00    +0.000 A 
ATOM     32  C   UNL     1       6.060   3.615  13.937  0.00  0.00    +0.000 A 
ENDBRANCH  26  27
ENDBRANCH  25  26
ENDBRANCH   6  25
TORSDOF 8
ENDMDL
MODEL 6
REMARK VINA RESULT:      -7.8      2.249     10.960
REMARK  Name = 
REMARK  10 active torsions:
REMARK  status: ('A' for Active; 'I' for Inactive)
REMARK    1  A    between atoms: C_1  and  O_2
REMARK    2  A    between atoms: O_2  and  C_3
REMARK    3  A    between atoms: C_7  and  C_8
REMARK    4  A    between atoms: C_8  and  N_9
REMARK    5  A    between atoms: C_10  and  C_12
REMARK    6  A    between atoms: C_17  and  C_18
REMARK    7  A    between atoms: C_18  and  C_19
REMARK    8  A    between atoms: C_19  and  C_20
REMARK    9  A    between atoms: C_29  and  O_30
REMARK   10  A    between atoms: O_30  and  C_31
REMARK                            x       y       z     vdW  Elec       q    Type
REMARK                         _______ _______ _______ _____ _____    ______ ____
ROOT
ATOM      1  C   UNL     1       1.148   9.389  19.266  0.00  0.00    +0.000 A 
ATOM      2  C   UNL     1       1.087   8.734  20.511  0.00  0.00    +0.000 A 
ATOM      3  C   UNL     1       1.693   7.493  20.716  0.00  0.00    +0.000 A 
ATOM      4  C   UNL     1       2.379   6.909  19.650  0.00  0.00    +0.000 A 
ATOM      5  N   UNL     1       3.068   5.735  19.614  0.00  0.00    +0.000 NA
ATOM      6  C   UNL     1       3.472   5.623  18.368  0.00  0.00    +0.000 A 
ATOM      7  O   UNL     1       3.122   6.687  17.557  0.00  0.00    +0.000 OA
ATOM      8  C   UNL     1       2.408   7.535  18.411  0.00  0.00    +0.000 A 
ATOM      9  C   UNL     1       1.802   8.785  18.163  0.00  0.00    +0.000 A 
ENDROOT
BRANCH   1  11
ATOM     10  N   UNL     1      -0.351  11.079  18.255  0.00  0.00    +0.000 N 
ATOM     11  C   UNL     1       0.526  10.758  19.261  0.00  0.00    +0.000 C 
ATOM     12  O   UNL     1       0.780  11.526  20.184  0.00  0.00    +0.000 OA
ATOM     13  H   UNL     1      -0.606  10.411  17.544  0.00  0.00    +0.000 HD
BRANCH  10  14
ATOM     14  C   UNL     1      -1.122  12.318  18.291  0.00  0.00    +0.000 C 
BRANCH  14  19
ATOM     15  C   UNL     1      -4.712  12.057  19.592  0.00  0.00    +0.000 A 
ATOM     16  C   UNL     1      -5.333  11.463  18.480  0.00  0.00    +0.000 A 
ATOM     17  C   UNL     1      -4.595  11.111  17.354  0.00  0.00    +0.000 A 
ATOM     18  C   UNL     1      -3.234  11.379  17.315  0.00  0.00    +0.000 A 
ATOM     19  C   UNL     1      -2.605  12.048  18.380  0.00  0.00    +0.000 A 
ATOM     20  C   UNL     1      -3.352  12.415  19.523  0.00  0.00    +0.000 A 
BRANCH  15  22
ATOM     21  C   UNL     1      -6.306  13.416  20.679  0.00  0.00    +0.000 C 
ATOM     22  O   UNL     1      -5.426  12.291  20.739  0.00  0.00    +0.000 OA
ENDBRANCH  15  22
BRANCH  20  23
ATOM     23  O   UNL     1      -2.607  13.070  20.471  0.00  0.00    +0.000 OA
ATOM     24  C   UNL     1      -2.307  12.431  21.700  0.00  0.00    +0.000 C 
ENDBRANCH  20  23
ENDBRANCH  14  19
ENDBRANCH  10  14
ENDBRANCH   1  11
BRANCH   6  25
ATOM     25  C   UNL     1       4.075   4.352  17.836  0.00  0.00    +0.000 C 
BRANCH  25  26
ATOM     26  C   UNL     1       5.259   4.373  16.876  0.00  0.00    +0.000 C 
BRANCH  26  27
ATOM     27  C   UNL     1       6.339   5.305  17.435  0.00  0.00    +0.000 A 
ATOM     28  C   UNL     1       7.035   4.986  18.611  0.00  0.00    +0.000 A 
ATOM     29  C   UNL     1       7.943   5.887  19.179  0.00  0.00    +0.000 A 
ATOM     30  C   UNL     1       8.170   7.128  18.581  0.00  0.00    +0.000 A 
ATOM     31  C   UNL     1       7.493   7.459  17.410  0.00  0.00    +0.000 A 
ATOM     32  C   UNL     1       6.583   6.554  16.841  0.00  0.00    +0.000 A 
ENDBRANCH  26  27
ENDBRANCH  25  26
ENDBRANCH   6  25
TORSDOF 8
ENDMDL
MODEL 7
REMARK VINA RESULT:      -7.8      2.327     10.926
REMARK  Name = 
REMARK  10 active torsions:
REMARK  status: ('A' for Active; 'I' for Inactive)
REMARK    1  A    between atoms: C_1  and  O_2
REMARK    2  A    between atoms: O_2  and  C_3
REMARK    3  A    between atoms: C_7  and  C_8
REMARK    4  A    between atoms: C_8  and  N_9
REMARK    5  A    between atoms: C_10  and  C_12
REMARK    6  A    between atoms: C_17  and  C_18
REMARK    7  A    between atoms: C_18  and  C_19
REMARK    8  A    between atoms: C_19  and  C_20
REMARK    9  A    between atoms: C_29  and  O_30
REMARK   10  A    between atoms: O_30  and  C_31
REMARK                            x       y       z     vdW  Elec       q    Type
REMARK                         _______ _______ _______ _____ _____    ______ ____
ROOT
ATOM      1  C   UNL     1       1.128   9.658  18.996  0.00  0.00    +0.000 A 
ATOM      2  C   UNL     1       0.983   9.121  20.289  0.00  0.00    +0.000 A 
ATOM      3  C   UNL     1       1.531   7.885  20.635  0.00  0.00    +0.000 A 
ATOM      4  C   UNL     1       2.245   7.184  19.661  0.00  0.00    +0.000 A 
ATOM      5  N   UNL     1       2.890   5.990  19.765  0.00  0.00    +0.000 NA
ATOM      6  C   UNL     1       3.350   5.752  18.556  0.00  0.00    +0.000 A 
ATOM      7  O   UNL     1       3.078   6.749  17.637  0.00  0.00    +0.000 OA
ATOM      8  C   UNL     1       2.357   7.694  18.375  0.00  0.00    +0.000 A 
ATOM      9  C   UNL     1       1.810   8.935  17.986  0.00  0.00    +0.000 A 
ENDROOT
BRANCH   1  11
ATOM     10  N   UNL     1      -0.636  11.189  18.177  0.00  0.00    +0.000 N 
ATOM     11  C   UNL     1       0.558  11.041  18.837  0.00  0.00    +0.000 C 
ATOM     12  O   UNL     1       1.151  11.986  19.348  0.00  0.00    +0.000 OA
ATOM     13  H   UNL     1      -1.148  10.395  17.826  0.00  0.00    +0.000 HD
BRANCH  10  14
ATOM     14  C   UNL     1      -1.328  12.474  18.146  0.00  0.00    +0.000 C 
BRANCH  14  19
ATOM     15  C   UNL     1      -4.713  12.064  19.885  0.00  0.00    +0.000 A 
ATOM     16  C   UNL     1      -4.452  12.737  21.090  0.00  0.00    +0.000 A 
ATOM     17  C   UNL     1      -3.223  13.352  21.313  0.00  0.00    +0.000 A 
ATOM     18  C   UNL     1      -2.230  13.271  20.347  0.00  0.00    +0.000 A 
ATOM     19  C   UNL     1      -2.438  12.533  19.168  0.00  0.00    +0.000 A 
ATOM     20  C   UNL     1      -3.682  11.900  18.940  0.00  0.00    +0.000 A 
BRANCH  15  22
ATOM     21  C   UNL     1      -7.001  12.547  19.566  0.00  0.00    +0.000 C 
ATOM     22  O   UNL     1      -5.964  11.565  19.629  0.00  0.00    +0.000 OA
ENDBRANCH  15  22
BRANCH  20  23
ATOM     23  O   UNL     1      -3.730  11.209  17.756  0.00  0.00    +0.000 OA
ATOM     24  C   UNL     1      -4.548  11.676  16.697  0.00  0.00    +0.000 C 
ENDBRANCH  20  23
ENDBRANCH  14  19
ENDBRANCH  10  14
ENDBRANCH   1  11
BRANCH   6  25
ATOM     25  C   UNL     1       3.929   4.419  18.171  0.00  0.00    +0.000 C 
BRANCH  25  26
ATOM     26  C   UNL     1       5.080   4.308  17.177  0.00  0.00    +0.000 C 
BRANCH  26  27
ATOM     27  C   UNL     1       6.224   5.217  17.636  0.00  0.00    +0.000 A 
ATOM     28  C   UNL     1       6.913   4.970  18.833  0.00  0.00    +0.000 A 
ATOM     29  C   UNL     1       7.884   5.861  19.304  0.00  0.00    +0.000 A 
ATOM     30  C   UNL     1       8.183   7.020  18.585  0.00  0.00    +0.000 A 
ATOM     31  C   UNL     1       7.515   7.278  17.392  0.00  0.00    +0.000 A 
ATOM     32  C   UNL     1       6.542   6.383  16.920  0.00  0.00    +0.000 A 
ENDBRANCH  26  27
ENDBRANCH  25  26
ENDBRANCH   6  25
TORSDOF 8
ENDMDL
MODEL 8
REMARK VINA RESULT:      -7.8      2.624     10.438
REMARK  Name = 
REMARK  10 active torsions:
REMARK  status: ('A' for Active; 'I' for Inactive)
REMARK    1  A    between atoms: C_1  and  O_2
REMARK    2  A    between atoms: O_2  and  C_3
REMARK    3  A    between atoms: C_7  and  C_8
REMARK    4  A    between atoms: C_8  and  N_9
REMARK    5  A    between atoms: C_10  and  C_12
REMARK    6  A    between atoms: C_17  and  C_18
REMARK    7  A    between atoms: C_18  and  C_19
REMARK    8  A    between atoms: C_19  and  C_20
REMARK    9  A    between atoms: C_29  and  O_30
REMARK   10  A    between atoms: O_30  and  C_31
REMARK                            x       y       z     vdW  Elec       q    Type
REMARK                         _______ _______ _______ _____ _____    ______ ____
ROOT
ATOM      1  C   UNL     1       0.956   9.406  19.721  0.00  0.00    +0.000 A 
ATOM      2  C   UNL     1       1.351   9.794  18.426  0.00  0.00    +0.000 A 
ATOM      3  C   UNL     1       2.222   9.015  17.662  0.00  0.00    +0.000 A 
ATOM      4  C   UNL     1       2.695   7.821  18.211  0.00  0.00    +0.000 A 
ATOM      5  N   UNL     1       3.516   6.889  17.656  0.00  0.00    +0.000 NA
ATOM      6  C   UNL     1       3.695   5.994  18.602  0.00  0.00    +0.000 A 
ATOM      7  O   UNL     1       3.000   6.254  19.770  0.00  0.00    +0.000 OA
ATOM      8  C   UNL     1       2.336   7.456  19.501  0.00  0.00    +0.000 A 
ATOM      9  C   UNL     1       1.465   8.220  20.307  0.00  0.00    +0.000 A 
ENDROOT
BRANCH   1  11
ATOM     10  N   UNL     1      -0.450  11.443  19.669  0.00  0.00    +0.000 N 
ATOM     11  C   UNL     1      -0.062  10.317  20.351  0.00  0.00    +0.000 C 
ATOM     12  O   UNL     1      -0.551   9.998  21.430  0.00  0.00    +0.000 OA
ATOM     13  H   UNL     1      -0.092  11.653  18.750  0.00  0.00    +0.000 HD
BRANCH  10  14
ATOM     14  C   UNL     1      -1.558  12.268  20.141  0.00  0.00    +0.000 C 
BRANCH  14  19
ATOM     15  C   UNL     1      -5.190  12.275  18.935  0.00  0.00    +0.000 A 
ATOM     16  C   UNL     1      -5.041  11.614  17.704  0.00  0.00    +0.000 A 
ATOM     17  C   UNL     1      -3.799  11.135  17.297  0.00  0.00    +0.000 A 
ATOM     18  C   UNL     1      -2.687  11.340  18.102  0.00  0.00    +0.000 A 
ATOM     19  C   UNL     1      -2.796  12.070  19.299  0.00  0.00    +0.000 A 
ATOM     20  C   UNL     1      -4.053  12.567  19.713  0.00  0.00    +0.000 A 
BRANCH  15  22
ATOM     21  C   UNL     1      -6.939  13.855  18.823  0.00  0.00    +0.000 C 
ATOM     22  O   UNL     1      -6.436  12.638  19.378  0.00  0.00    +0.000 OA
ENDBRANCH  15  22
BRANCH  20  23
ATOM     23  O   UNL     1      -3.998  13.268  20.891  0.00  0.00    +0.000 OA
ATOM     24  C   UNL     1      -4.555  12.713  22.070  0.00  0.00    +0.000 C 
ENDBRANCH  20  23
ENDBRANCH  14  19
ENDBRANCH  10  14
ENDBRANCH   1  11
BRANCH   6  25
ATOM     25  C   UNL     1       4.727   4.907  18.488  0.00  0.00    +0.000 C 
BRANCH  25  26
ATOM     26  C   UNL     1       4.329   3.446  18.309  0.00  0.00    +0.000 C 
BRANCH  26  27
ATOM     27  C   UNL     1       3.184   3.119  19.273  0.00  0.00    +0.000 A 
ATOM     28  C   UNL     1       1.845   3.187  18.859  0.00  0.00    +0.000 A 
ATOM     29  C   UNL     1       0.799   2.993  19.769  0.00  0.00    +0.000 A 
ATOM     30  C   UNL     1       1.074   2.729  21.112  0.00  0.00    +0.000 A 
ATOM     31  C   UNL     1       2.396   2.651  21.539  0.00  0.00    +0.000 A 
ATOM     32  C   UNL     1       3.445   2.845  20.626  0.00  0.00    +0.000 A 
ENDBRANCH  26  27
ENDBRANCH  25  26
ENDBRANCH   6  25
TORSDOF 8
ENDMDL
MODEL 9
REMARK VINA RESULT:      -7.8      2.057      3.584
REMARK  Name = 
REMARK  10 active torsions:
REMARK  status: ('A' for Active; 'I' for Inactive)
REMARK    1  A    between atoms: C_1  and  O_2
REMARK    2  A    between atoms: O_2  and  C_3
REMARK    3  A    between atoms: C_7  and  C_8
REMARK    4  A    between atoms: C_8  and  N_9
REMARK    5  A    between atoms: C_10  and  C_12
REMARK    6  A    between atoms: C_17  and  C_18
REMARK    7  A    between atoms: C_18  and  C_19
REMARK    8  A    between atoms: C_19  and  C_20
REMARK    9  A    between atoms: C_29  and  O_30
REMARK   10  A    between atoms: O_30  and  C_31
REMARK                            x       y       z     vdW  Elec       q    Type
REMARK                         _______ _______ _______ _____ _____    ______ ____
ROOT
ATOM      1  C   UNL     1       0.620   9.682  20.259  0.00  0.00    +0.000 A 
ATOM      2  C   UNL     1       0.599   9.291  21.611  0.00  0.00    +0.000 A 
ATOM      3  C   UNL     1      -0.176   9.964  22.557  0.00  0.00    +0.000 A 
ATOM      4  C   UNL     1      -0.948  11.046  22.128  0.00  0.00    +0.000 A 
ATOM      5  N   UNL     1      -1.798  11.830  22.846  0.00  0.00    +0.000 NA
ATOM      6  C   UNL     1      -2.226  12.731  21.989  0.00  0.00    +0.000 A 
ATOM      7  O   UNL     1      -1.735  12.575  20.706  0.00  0.00    +0.000 OA
ATOM      8  C   UNL     1      -0.900  11.457  20.803  0.00  0.00    +0.000 A 
ATOM      9  C   UNL     1      -0.123  10.807  19.820  0.00  0.00    +0.000 A 
ENDROOT
BRANCH   1  11
ATOM     10  N   UNL     1       2.037   7.679  19.926  0.00  0.00    +0.000 N 
ATOM     11  C   UNL     1       1.432   8.780  19.371  0.00  0.00    +0.000 C 
ATOM     12  O   UNL     1       1.486   9.026  18.170  0.00  0.00    +0.000 OA
ATOM     13  H   UNL     1       1.922   7.450  20.901  0.00  0.00    +0.000 HD
BRANCH  10  14
ATOM     14  C   UNL     1       2.684   6.672  19.092  0.00  0.00    +0.000 C 
BRANCH  14  19
ATOM     15  C   UNL     1       3.379   3.010  19.961  0.00  0.00    +0.000 A 
ATOM     16  C   UNL     1       2.322   2.766  20.855  0.00  0.00    +0.000 A 
ATOM     17  C   UNL     1       1.379   3.751  21.131  0.00  0.00    +0.000 A 
ATOM     18  C   UNL     1       1.501   5.002  20.542  0.00  0.00    +0.000 A 
ATOM     19  C   UNL     1       2.595   5.297  19.709  0.00  0.00    +0.000 A 
ATOM     20  C   UNL     1       3.560   4.302  19.432  0.00  0.00    +0.000 A 
BRANCH  15  22
ATOM     21  C   UNL     1       3.833   1.251  18.455  0.00  0.00    +0.000 C 
ATOM     22  O   UNL     1       4.232   1.997  19.607  0.00  0.00    +0.000 OA
ENDBRANCH  15  22
BRANCH  20  23
ATOM     23  O   UNL     1       4.573   4.741  18.617  0.00  0.00    +0.000 OA
ATOM     24  C   UNL     1       5.846   5.037  19.167  0.00  0.00    +0.000 C 
ENDBRANCH  20  23
ENDBRANCH  14  19
ENDBRANCH  10  14
ENDBRANCH   1  11
BRANCH   6  25
ATOM     25  C   UNL     1      -3.010  13.938  22.425  0.00  0.00    +0.000 C 
BRANCH  25  26
ATOM     26  C   UNL     1      -3.439  14.128  23.876  0.00  0.00    +0.000 C 
BRANCH  26  27
ATOM     27  C   UNL     1      -4.964  14.012  23.963  0.00  0.00    +0.000 A 
ATOM     28  C   UNL     1      -5.591  12.762  24.085  0.00  0.00    +0.000 A 
ATOM     29  C   UNL     1      -6.986  12.650  24.056  0.00  0.00    +0.000 A 
ATOM     30  C   UNL     1      -7.781  13.788  23.904  0.00  0.00    +0.000 A 
ATOM     31  C   UNL     1      -7.176  15.036  23.789  0.00  0.00    +0.000 A 
ATOM     32  C   UNL     1      -5.777  15.148  23.818  0.00  0.00    +0.000 A 
ENDBRANCH  26  27
ENDBRANCH  25  26
ENDBRANCH   6  25
TORSDOF 8
ENDMDL
