MODEL 1
REMARK VINA RESULT:      -8.2      0.000      0.000
REMARK  Name = 
REMARK  8 active torsions:
REMARK  status: ('A' for Active; 'I' for Inactive)
REMARK    1  A    between atoms: C_1  and  C_2
REMARK    2  A    between atoms: C_4  and  C_5
REMARK    3  A    between atoms: C_5  and  C_7
REMARK    4  A    between atoms: C_7  and  S_8
REMARK    5  A    between atoms: S_8  and  C_9
REMARK    6  A    between atoms: C_12  and  C_13
REMARK    7  A    between atoms: N_19  and  C_20
REMARK    8  A    between atoms: C_26  and  C_27
REMARK                            x       y       z     vdW  Elec       q    Type
REMARK                         _______ _______ _______ _____ _____    ______ ____
ROOT
ATOM      1  S   UNL     1       2.537   5.578  20.728  0.00  0.00    +0.000 S 
ENDROOT
BRANCH   1   2
ATOM      2  C   UNL     1       2.230   6.858  19.590  0.00  0.00    +0.000 A 
ATOM      3  N   UNL     1       2.569   6.829  18.322  0.00  0.00    +0.000 NA
ATOM      4  N   UNL     1       2.227   8.031  17.760  0.00  0.00    +0.000 NA
ATOM      5  C   UNL     1       1.699   8.813  18.701  0.00  0.00    +0.000 A 
ATOM      6  N   UNL     1       1.586   8.052  19.890  0.00  0.00    +0.000 N 
BRANCH   5   7
ATOM      7  C   UNL     1       1.347  10.246  18.519  0.00  0.00    +0.000 A 
ATOM      8  C   UNL     1       0.014  10.670  18.611  0.00  0.00    +0.000 A 
ATOM      9  C   UNL     1      -0.304  12.034  18.619  0.00  0.00    +0.000 A 
ATOM     10  C   UNL     1       0.702  12.999  18.567  0.00  0.00    +0.000 A 
ATOM     11  C   UNL     1       2.018  12.597  18.401  0.00  0.00    +0.000 A 
ATOM     12  C   UNL     1       2.322  11.236  18.305  0.00  0.00    +0.000 A 
ENDBRANCH   5   7
BRANCH   6  13
ATOM     13  C   UNL     1       0.980   8.469  21.118  0.00  0.00    +0.000 A 
ATOM     14  C   UNL     1      -0.412   8.393  21.285  0.00  0.00    +0.000 A 
ATOM     15  C   UNL     1      -1.030   9.032  22.363  0.00  0.00    +0.000 A 
ATOM     16  C   UNL     1      -0.256   9.662  23.335  0.00  0.00    +0.000 A 
ATOM     17  C   UNL     1       1.132   9.656  23.227  0.00  0.00    +0.000 A 
ATOM     18  C   UNL     1       1.750   9.086  22.114  0.00  0.00    +0.000 A 
ENDBRANCH   6  13
ENDBRANCH   1   2
BRANCH   1  19
ATOM     19  C   UNL     1       2.515   4.067  19.746  0.00  0.00    +0.000 C 
BRANCH  19  20
ATOM     20  C   UNL     1       3.877   3.416  19.559  0.00  0.00    +0.000 C 
ATOM     21  O   UNL     1       4.168   2.364  20.118  0.00  0.00    +0.000 OA
BRANCH  20  25
ATOM     22  C   UNL     1       7.591   6.570  17.979  0.00  0.00    +0.000 C 
ATOM     23  C   UNL     1       6.526   5.531  18.028  0.00  0.00    +0.000 A 
ATOM     24  C   UNL     1       5.778   5.139  19.131  0.00  0.00    +0.000 A 
ATOM     25  C   UNL     1       4.862   4.130  18.718  0.00  0.00    +0.000 A 
ATOM     26  C   UNL     1       5.087   3.939  17.349  0.00  0.00    +0.000 A 
ATOM     27  C   UNL     1       4.404   2.992  16.411  0.00  0.00    +0.000 C 
ATOM     28  N   UNL     1       6.100   4.802  16.925  0.00  0.00    +0.000 N 
ATOM     29  C   UNL     1       6.603   4.910  15.571  0.00  0.00    +0.000 A 
ATOM     30  N   UNL     1       6.062   4.207  14.523  0.00  0.00    +0.000 NA
ATOM     31  C   UNL     1       6.786   4.599  13.505  0.00  0.00    +0.000 A 
ATOM     32  N   UNL     1       7.727   5.480  13.926  0.00  0.00    +0.000 N 
ATOM     33  N   UNL     1       7.630   5.704  15.239  0.00  0.00    +0.000 NA
ATOM     34  H   UNL     1       8.445   5.956  13.392  0.00  0.00    +0.000 HD
ENDBRANCH  20  25
ENDBRANCH  19  20
ENDBRANCH   1  19
TORSDOF 6
ENDMDL
MODEL 2
REMARK VINA RESULT:      -8.0      2.335      8.675
REMARK  Name = 
REMARK  8 active torsions:
REMARK  status: ('A' for Active; 'I' for Inactive)
REMARK    1  A    between atoms: C_1  and  C_2
REMARK    2  A    between atoms: C_4  and  C_5
REMARK    3  A    between atoms: C_5  and  C_7
REMARK    4  A    between atoms: C_7  and  S_8
REMARK    5  A    between atoms: S_8  and  C_9
REMARK    6  A    between atoms: C_12  and  C_13
REMARK    7  A    between atoms: N_19  and  C_20
REMARK    8  A    between atoms: C_26  and  C_27
REMARK                            x       y       z     vdW  Elec       q    Type
REMARK                         _______ _______ _______ _____ _____    ______ ____
ROOT
ATOM      1  S   UNL     1       3.927   5.005  19.689  0.00  0.00    +0.000 S 
ENDROOT
BRANCH   1   2
ATOM      2  C   UNL     1       4.077   4.619  17.999  0.00  0.00    +0.000 A 
ATOM      3  N   UNL     1       3.205   3.918  17.312  0.00  0.00    +0.000 NA
ATOM      4  N   UNL     1       3.688   3.762  16.039  0.00  0.00    +0.000 NA
ATOM      5  C   UNL     1       4.882   4.350  15.956  0.00  0.00    +0.000 A 
ATOM      6  N   UNL     1       5.131   5.010  17.183  0.00  0.00    +0.000 N 
BRANCH   5   7
ATOM      7  C   UNL     1       5.793   4.265  14.784  0.00  0.00    +0.000 A 
ATOM      8  C   UNL     1       5.425   3.534  13.646  0.00  0.00    +0.000 A 
ATOM      9  C   UNL     1       6.192   3.596  12.476  0.00  0.00    +0.000 A 
ATOM     10  C   UNL     1       7.322   4.411  12.409  0.00  0.00    +0.000 A 
ATOM     11  C   UNL     1       7.741   5.082  13.548  0.00  0.00    +0.000 A 
ATOM     12  C   UNL     1       7.021   4.948  14.739  0.00  0.00    +0.000 A 
ENDBRANCH   5   7
BRANCH   6  13
ATOM     13  C   UNL     1       6.250   5.848  17.492  0.00  0.00    +0.000 A 
ATOM     14  C   UNL     1       7.255   5.400  18.364  0.00  0.00    +0.000 A 
ATOM     15  C   UNL     1       8.200   6.295  18.871  0.00  0.00    +0.000 A 
ATOM     16  C   UNL     1       8.213   7.617  18.433  0.00  0.00    +0.000 A 
ATOM     17  C   UNL     1       7.279   8.044  17.493  0.00  0.00    +0.000 A 
ATOM     18  C   UNL     1       6.286   7.175  17.041  0.00  0.00    +0.000 A 
ENDBRANCH   6  13
ENDBRANCH   1   2
BRANCH   1  19
ATOM     19  C   UNL     1       2.332   5.830  19.838  0.00  0.00    +0.000 C 
BRANCH  19  20
ATOM     20  C   UNL     1       2.326   7.280  19.376  0.00  0.00    +0.000 C 
ATOM     21  O   UNL     1       3.016   7.657  18.435  0.00  0.00    +0.000 OA
BRANCH  20  25
ATOM     22  C   UNL     1      -0.145   9.658  23.182  0.00  0.00    +0.000 C 
ATOM     23  C   UNL     1       0.410   9.292  21.849  0.00  0.00    +0.000 A 
ATOM     24  C   UNL     1       1.219   8.205  21.541  0.00  0.00    +0.000 A 
ATOM     25  C   UNL     1       1.497   8.234  20.144  0.00  0.00    +0.000 A 
ATOM     26  C   UNL     1       0.834   9.359  19.640  0.00  0.00    +0.000 A 
ATOM     27  C   UNL     1       0.790   9.868  18.232  0.00  0.00    +0.000 C 
ATOM     28  N   UNL     1       0.161  10.002  20.682  0.00  0.00    +0.000 N 
ATOM     29  C   UNL     1      -0.650  11.195  20.552  0.00  0.00    +0.000 A 
ATOM     30  N   UNL     1      -0.911  11.784  19.340  0.00  0.00    +0.000 NA
ATOM     31  C   UNL     1      -1.672  12.797  19.665  0.00  0.00    +0.000 A 
ATOM     32  N   UNL     1      -1.844  12.826  21.010  0.00  0.00    +0.000 N 
ATOM     33  N   UNL     1      -1.210  11.810  21.603  0.00  0.00    +0.000 NA
ATOM     34  H   UNL     1      -2.366  13.484  21.577  0.00  0.00    +0.000 HD
ENDBRANCH  20  25
ENDBRANCH  19  20
ENDBRANCH   1  19
TORSDOF 6
ENDMDL
MODEL 3
REMARK VINA RESULT:      -7.9      3.479      5.564
REMARK  Name = 
REMARK  8 active torsions:
REMARK  status: ('A' for Active; 'I' for Inactive)
REMARK    1  A    between atoms: C_1  and  C_2
REMARK    2  A    between atoms: C_4  and  C_5
REMARK    3  A    between atoms: C_5  and  C_7
REMARK    4  A    between atoms: C_7  and  S_8
REMARK    5  A    between atoms: S_8  and  C_9
REMARK    6  A    between atoms: C_12  and  C_13
REMARK    7  A    between atoms: N_19  and  C_20
REMARK    8  A    between atoms: C_26  and  C_27
REMARK                            x       y       z     vdW  Elec       q    Type
REMARK                         _______ _______ _______ _____ _____    ______ ____
ROOT
ATOM      1  S   UNL     1      -0.256  10.136  21.037  0.00  0.00    +0.000 S 
ENDROOT
BRANCH   1   2
ATOM      2  C   UNL     1       0.083  11.814  20.727  0.00  0.00    +0.000 A 
ATOM      3  N   UNL     1       1.117  12.469  21.202  0.00  0.00    +0.000 NA
ATOM      4  N   UNL     1       1.015  13.777  20.804  0.00  0.00    +0.000 NA
ATOM      5  C   UNL     1      -0.107  13.928  20.101  0.00  0.00    +0.000 A 
ATOM      6  N   UNL     1      -0.697  12.651  19.938  0.00  0.00    +0.000 N 
BRANCH   5   7
ATOM      7  C   UNL     1      -0.646  15.230  19.628  0.00  0.00    +0.000 A 
ATOM      8  C   UNL     1      -1.662  15.882  20.341  0.00  0.00    +0.000 A 
ATOM      9  C   UNL     1      -2.049  17.186  20.006  0.00  0.00    +0.000 A 
ATOM     10  C   UNL     1      -1.410  17.874  18.975  0.00  0.00    +0.000 A 
ATOM     11  C   UNL     1      -0.456  17.218  18.213  0.00  0.00    +0.000 A 
ATOM     12  C   UNL     1      -0.135  15.887  18.495  0.00  0.00    +0.000 A 
ENDBRANCH   5   7
BRANCH   6  13
ATOM     13  C   UNL     1      -1.860  12.338  19.164  0.00  0.00    +0.000 A 
ATOM     14  C   UNL     1      -3.142  12.469  19.722  0.00  0.00    +0.000 A 
ATOM     15  C   UNL     1      -4.253  11.924  19.074  0.00  0.00    +0.000 A 
ATOM     16  C   UNL     1      -4.108  11.337  17.818  0.00  0.00    +0.000 A 
ATOM     17  C   UNL     1      -2.854  11.292  17.216  0.00  0.00    +0.000 A 
ATOM     18  C   UNL     1      -1.730  11.766  17.891  0.00  0.00    +0.000 A 
ENDBRANCH   6  13
ENDBRANCH   1   2
BRANCH   1  19
ATOM     19  C   UNL     1       1.253   9.265  20.577  0.00  0.00    +0.000 C 
BRANCH  19  20
ATOM     20  C   UNL     1       1.361   8.927  19.097  0.00  0.00    +0.000 C 
ATOM     21  O   UNL     1       0.650   9.472  18.261  0.00  0.00    +0.000 OA
BRANCH  20  25
ATOM     22  C   UNL     1       5.042   6.298  16.692  0.00  0.00    +0.000 C 
ATOM     23  C   UNL     1       3.969   6.713  17.639  0.00  0.00    +0.000 A 
ATOM     24  C   UNL     1       3.260   7.907  17.641  0.00  0.00    +0.000 A 
ATOM     25  C   UNL     1       2.320   7.870  18.710  0.00  0.00    +0.000 A 
ATOM     26  C   UNL     1       2.492   6.628  19.335  0.00  0.00    +0.000 A 
ATOM     27  C   UNL     1       1.767   6.067  20.518  0.00  0.00    +0.000 C 
ATOM     28  N   UNL     1       3.496   5.917  18.674  0.00  0.00    +0.000 N 
ATOM     29  C   UNL     1       3.950   4.584  19.016  0.00  0.00    +0.000 A 
ATOM     30  N   UNL     1       3.364   3.836  20.007  0.00  0.00    +0.000 NA
ATOM     31  C   UNL     1       4.052   2.723  19.976  0.00  0.00    +0.000 A 
ATOM     32  N   UNL     1       5.017   2.807  19.027  0.00  0.00    +0.000 N 
ATOM     33  N   UNL     1       4.971   3.982  18.392  0.00  0.00    +0.000 NA
ATOM     34  H   UNL     1       5.718   2.126  18.761  0.00  0.00    +0.000 HD
ENDBRANCH  20  25
ENDBRANCH  19  20
ENDBRANCH   1  19
TORSDOF 6
ENDMDL
MODEL 4
REMARK VINA RESULT:      -7.9      1.094      1.423
REMARK  Name = 
REMARK  8 active torsions:
REMARK  status: ('A' for Active; 'I' for Inactive)
REMARK    1  A    between atoms: C_1  and  C_2
REMARK    2  A    between atoms: C_4  and  C_5
REMARK    3  A    between atoms: C_5  and  C_7
REMARK    4  A    between atoms: C_7  and  S_8
REMARK    5  A    between atoms: S_8  and  C_9
REMARK    6  A    between atoms: C_12  and  C_13
REMARK    7  A    between atoms: N_19  and  C_20
REMARK    8  A    between atoms: C_26  and  C_27
REMARK                            x       y       z     vdW  Elec       q    Type
REMARK                         _______ _______ _______ _____ _____    ______ ____
ROOT
ATOM      1  S   UNL     1       1.795   6.865  20.534  0.00  0.00    +0.000 S 
ENDROOT
BRANCH   1   2
ATOM      2  C   UNL     1       1.692   8.233  19.464  0.00  0.00    +0.000 A 
ATOM      3  N   UNL     1       2.098   8.239  18.216  0.00  0.00    +0.000 NA
ATOM      4  N   UNL     1       1.921   9.502  17.714  0.00  0.00    +0.000 NA
ATOM      5  C   UNL     1       1.427  10.283  18.674  0.00  0.00    +0.000 A 
ATOM      6  N   UNL     1       1.166   9.473  19.806  0.00  0.00    +0.000 N 
BRANCH   5   7
ATOM      7  C   UNL     1       1.243  11.754  18.565  0.00  0.00    +0.000 A 
ATOM      8  C   UNL     1      -0.016  12.296  18.275  0.00  0.00    +0.000 A 
ATOM      9  C   UNL     1      -0.236  13.677  18.347  0.00  0.00    +0.000 A 
ATOM     10  C   UNL     1       0.787  14.540  18.740  0.00  0.00    +0.000 A 
ATOM     11  C   UNL     1       2.057  14.029  18.958  0.00  0.00    +0.000 A 
ATOM     12  C   UNL     1       2.293  12.660  18.799  0.00  0.00    +0.000 A 
ENDBRANCH   5   7
BRANCH   6  13
ATOM     13  C   UNL     1       0.539   9.884  21.026  0.00  0.00    +0.000 A 
ATOM     14  C   UNL     1       0.885   9.274  22.243  0.00  0.00    +0.000 A 
ATOM     15  C   UNL     1       0.103   9.480  23.383  0.00  0.00    +0.000 A 
ATOM     16  C   UNL     1      -0.965  10.373  23.342  0.00  0.00    +0.000 A 
ATOM     17  C   UNL     1      -1.253  11.056  22.163  0.00  0.00    +0.000 A 
ATOM     18  C   UNL     1      -0.524  10.798  21.003  0.00  0.00    +0.000 A 
ENDBRANCH   6  13
ENDBRANCH   1   2
BRANCH   1  19
ATOM     19  C   UNL     1       1.890   5.431  19.446  0.00  0.00    +0.000 C 
BRANCH  19  20
ATOM     20  C   UNL     1       3.141   4.584  19.626  0.00  0.00    +0.000 C 
ATOM     21  O   UNL     1       3.186   3.671  20.443  0.00  0.00    +0.000 OA
BRANCH  20  25
ATOM     22  C   UNL     1       7.656   6.484  18.128  0.00  0.00    +0.000 C 
ATOM     23  C   UNL     1       6.343   5.781  18.163  0.00  0.00    +0.000 A 
ATOM     24  C   UNL     1       5.463   5.688  19.233  0.00  0.00    +0.000 A 
ATOM     25  C   UNL     1       4.325   4.940  18.816  0.00  0.00    +0.000 A 
ATOM     26  C   UNL     1       4.556   4.597  17.477  0.00  0.00    +0.000 A 
ATOM     27  C   UNL     1       3.686   3.808  16.549  0.00  0.00    +0.000 C 
ATOM     28  N   UNL     1       5.788   5.119  17.075  0.00  0.00    +0.000 N 
ATOM     29  C   UNL     1       6.367   4.988  15.754  0.00  0.00    +0.000 A 
ATOM     30  N   UNL     1       5.706   4.386  14.713  0.00  0.00    +0.000 NA
ATOM     31  C   UNL     1       6.559   4.492  13.726  0.00  0.00    +0.000 A 
ATOM     32  N   UNL     1       7.686   5.110  14.159  0.00  0.00    +0.000 N 
ATOM     33  N   UNL     1       7.589   5.446  15.449  0.00  0.00    +0.000 NA
ATOM     34  H   UNL     1       8.532   5.334  13.650  0.00  0.00    +0.000 HD
ENDBRANCH  20  25
ENDBRANCH  19  20
ENDBRANCH   1  19
TORSDOF 6
ENDMDL
MODEL 5
REMARK VINA RESULT:      -7.8      3.320      5.420
REMARK  Name = 
REMARK  8 active torsions:
REMARK  status: ('A' for Active; 'I' for Inactive)
REMARK    1  A    between atoms: C_1  and  C_2
REMARK    2  A    between atoms: C_4  and  C_5
REMARK    3  A    between atoms: C_5  and  C_7
REMARK    4  A    between atoms: C_7  and  S_8
REMARK    5  A    between atoms: S_8  and  C_9
REMARK    6  A    between atoms: C_12  and  C_13
REMARK    7  A    between atoms: N_19  and  C_20
REMARK    8  A    between atoms: C_26  and  C_27
REMARK                            x       y       z     vdW  Elec       q    Type
REMARK                         _______ _______ _______ _____ _____    ______ ____
ROOT
ATOM      1  S   UNL     1       1.835  10.898  18.458  0.00  0.00    +0.000 S 
ENDROOT
BRANCH   1   2
ATOM      2  C   UNL     1       0.928  11.619  19.756  0.00  0.00    +0.000 A 
ATOM      3  N   UNL     1       1.458  12.165  20.826  0.00  0.00    +0.000 NA
ATOM      4  N   UNL     1       0.439  12.564  21.652  0.00  0.00    +0.000 NA
ATOM      5  C   UNL     1      -0.724  12.233  21.093  0.00  0.00    +0.000 A 
ATOM      6  N   UNL     1      -0.458  11.705  19.806  0.00  0.00    +0.000 N 
BRANCH   5   7
ATOM      7  C   UNL     1      -2.052  12.359  21.751  0.00  0.00    +0.000 A 
ATOM      8  C   UNL     1      -2.238  11.922  23.069  0.00  0.00    +0.000 A 
ATOM      9  C   UNL     1      -3.428  12.199  23.754  0.00  0.00    +0.000 A 
ATOM     10  C   UNL     1      -4.440  12.942  23.148  0.00  0.00    +0.000 A 
ATOM     11  C   UNL     1      -4.302  13.318  21.821  0.00  0.00    +0.000 A 
ATOM     12  C   UNL     1      -3.150  12.964  21.114  0.00  0.00    +0.000 A 
ENDBRANCH   5   7
BRANCH   6  13
ATOM     13  C   UNL     1      -1.424  11.318  18.823  0.00  0.00    +0.000 A 
ATOM     14  C   UNL     1      -2.080  10.080  18.921  0.00  0.00    +0.000 A 
ATOM     15  C   UNL     1      -2.819   9.586  17.843  0.00  0.00    +0.000 A 
ATOM     16  C   UNL     1      -2.992  10.366  16.701  0.00  0.00    +0.000 A 
ATOM     17  C   UNL     1      -2.424  11.636  16.638  0.00  0.00    +0.000 A 
ATOM     18  C   UNL     1      -1.624  12.103  17.679  0.00  0.00    +0.000 A 
ENDBRANCH   6  13
ENDBRANCH   1   2
BRANCH   1  19
ATOM     19  C   UNL     1       1.210   9.211  18.336  0.00  0.00    +0.000 C 
BRANCH  19  20
ATOM     20  C   UNL     1       1.871   8.223  19.286  0.00  0.00    +0.000 C 
ATOM     21  O   UNL     1       1.838   8.381  20.501  0.00  0.00    +0.000 OA
BRANCH  20  25
ATOM     22  C   UNL     1       5.051   5.433  16.397  0.00  0.00    +0.000 C 
ATOM     23  C   UNL     1       4.035   5.859  17.400  0.00  0.00    +0.000 A 
ATOM     24  C   UNL     1       3.596   7.150  17.660  0.00  0.00    +0.000 A 
ATOM     25  C   UNL     1       2.606   7.091  18.684  0.00  0.00    +0.000 A 
ATOM     26  C   UNL     1       2.474   5.737  19.017  0.00  0.00    +0.000 A 
ATOM     27  C   UNL     1       1.577   5.106  20.036  0.00  0.00    +0.000 C 
ATOM     28  N   UNL     1       3.343   4.982  18.225  0.00  0.00    +0.000 N 
ATOM     29  C   UNL     1       3.483   3.541  18.266  0.00  0.00    +0.000 A 
ATOM     30  N   UNL     1       2.694   2.743  19.058  0.00  0.00    +0.000 NA
ATOM     31  C   UNL     1       3.132   1.540  18.788  0.00  0.00    +0.000 A 
ATOM     32  N   UNL     1       4.149   1.614  17.893  0.00  0.00    +0.000 N 
ATOM     33  N   UNL     1       4.390   2.878  17.535  0.00  0.00    +0.000 NA
ATOM     34  H   UNL     1       4.705   0.869  17.489  0.00  0.00    +0.000 HD
ENDBRANCH  20  25
ENDBRANCH  19  20
ENDBRANCH   1  19
TORSDOF 6
ENDMDL
MODEL 6
REMARK VINA RESULT:      -7.7      3.235      5.344
REMARK  Name = 
REMARK  8 active torsions:
REMARK  status: ('A' for Active; 'I' for Inactive)
REMARK    1  A    between atoms: C_1  and  C_2
REMARK    2  A    between atoms: C_4  and  C_5
REMARK    3  A    between atoms: C_5  and  C_7
REMARK    4  A    between atoms: C_7  and  S_8
REMARK    5  A    between atoms: S_8  and  C_9
REMARK    6  A    between atoms: C_12  and  C_13
REMARK    7  A    between atoms: N_19  and  C_20
REMARK    8  A    between atoms: C_26  and  C_27
REMARK                            x       y       z     vdW  Elec       q    Type
REMARK                         _______ _______ _______ _____ _____    ______ ____
ROOT
ATOM      1  S   UNL     1      -0.313   9.314  21.115  0.00  0.00    +0.000 S 
ENDROOT
BRANCH   1   2
ATOM      2  C   UNL     1       0.010  11.017  20.965  0.00  0.00    +0.000 A 
ATOM      3  N   UNL     1       0.882  11.680  21.689  0.00  0.00    +0.000 NA
ATOM      4  N   UNL     1       0.812  13.003  21.337  0.00  0.00    +0.000 NA
ATOM      5  C   UNL     1      -0.131  13.154  20.408  0.00  0.00    +0.000 A 
ATOM      6  N   UNL     1      -0.612  11.868  20.060  0.00  0.00    +0.000 N 
BRANCH   5   7
ATOM      7  C   UNL     1      -0.611  14.461  19.886  0.00  0.00    +0.000 A 
ATOM      8  C   UNL     1      -1.574  15.198  20.588  0.00  0.00    +0.000 A 
ATOM      9  C   UNL     1      -1.898  16.505  20.200  0.00  0.00    +0.000 A 
ATOM     10  C   UNL     1      -1.246  17.109  19.125  0.00  0.00    +0.000 A 
ATOM     11  C   UNL     1      -0.346  16.368  18.376  0.00  0.00    +0.000 A 
ATOM     12  C   UNL     1      -0.090  15.036  18.713  0.00  0.00    +0.000 A 
ENDBRANCH   5   7
BRANCH   6  13
ATOM     13  C   UNL     1      -1.558  11.559  19.031  0.00  0.00    +0.000 A 
ATOM     14  C   UNL     1      -2.892  11.983  19.141  0.00  0.00    +0.000 A 
ATOM     15  C   UNL     1      -3.869  11.469  18.285  0.00  0.00    +0.000 A 
ATOM     16  C   UNL     1      -3.506  10.609  17.251  0.00  0.00    +0.000 A 
ATOM     17  C   UNL     1      -2.169  10.262  17.076  0.00  0.00    +0.000 A 
ATOM     18  C   UNL     1      -1.201  10.711  17.973  0.00  0.00    +0.000 A 
ENDBRANCH   6  13
ENDBRANCH   1   2
BRANCH   1  19
ATOM     19  C   UNL     1       1.311   8.545  21.261  0.00  0.00    +0.000 C 
BRANCH  19  20
ATOM     20  C   UNL     1       1.807   7.871  19.990  0.00  0.00    +0.000 C 
ATOM     21  O   UNL     1       2.029   8.512  18.968  0.00  0.00    +0.000 OA
BRANCH  20  25
ATOM     22  C   UNL     1       1.499   2.941  21.347  0.00  0.00    +0.000 C 
ATOM     23  C   UNL     1       1.804   4.206  20.623  0.00  0.00    +0.000 A 
ATOM     24  C   UNL     1       1.439   5.496  20.986  0.00  0.00    +0.000 A 
ATOM     25  C   UNL     1       1.958   6.400  20.016  0.00  0.00    +0.000 A 
ATOM     26  C   UNL     1       2.636   5.614  19.076  0.00  0.00    +0.000 A 
ATOM     27  C   UNL     1       3.366   6.048  17.843  0.00  0.00    +0.000 C 
ATOM     28  N   UNL     1       2.549   4.271  19.453  0.00  0.00    +0.000 N 
ATOM     29  C   UNL     1       3.140   3.156  18.741  0.00  0.00    +0.000 A 
ATOM     30  N   UNL     1       3.934   3.323  17.634  0.00  0.00    +0.000 NA
ATOM     31  C   UNL     1       4.260   2.095  17.321  0.00  0.00    +0.000 A 
ATOM     32  N   UNL     1       3.673   1.232  18.186  0.00  0.00    +0.000 N 
ATOM     33  N   UNL     1       2.957   1.881  19.109  0.00  0.00    +0.000 NA
ATOM     34  H   UNL     1       3.715   0.220  18.213  0.00  0.00    +0.000 HD
ENDBRANCH  20  25
ENDBRANCH  19  20
ENDBRANCH   1  19
TORSDOF 6
ENDMDL
MODEL 7
REMARK VINA RESULT:      -7.6      4.033      5.793
REMARK  Name = 
REMARK  8 active torsions:
REMARK  status: ('A' for Active; 'I' for Inactive)
REMARK    1  A    between atoms: C_1  and  C_2
REMARK    2  A    between atoms: C_4  and  C_5
REMARK    3  A    between atoms: C_5  and  C_7
REMARK    4  A    between atoms: C_7  and  S_8
REMARK    5  A    between atoms: S_8  and  C_9
REMARK    6  A    between atoms: C_12  and  C_13
REMARK    7  A    between atoms: N_19  and  C_20
REMARK    8  A    between atoms: C_26  and  C_27
REMARK                            x       y       z     vdW  Elec       q    Type
REMARK                         _______ _______ _______ _____ _____    ______ ____
ROOT
ATOM      1  S   UNL     1       0.634  11.526  19.152  0.00  0.00    +0.000 S 
ENDROOT
BRANCH   1   2
ATOM      2  C   UNL     1      -1.030  11.264  18.715  0.00  0.00    +0.000 A 
ATOM      3  N   UNL     1      -1.432  10.510  17.718  0.00  0.00    +0.000 NA
ATOM      4  N   UNL     1      -2.798  10.598  17.638  0.00  0.00    +0.000 NA
ATOM      5  C   UNL     1      -3.232  11.436  18.578  0.00  0.00    +0.000 A 
ATOM      6  N   UNL     1      -2.122  11.818  19.371  0.00  0.00    +0.000 N 
BRANCH   5   7
ATOM      7  C   UNL     1      -4.634  11.912  18.714  0.00  0.00    +0.000 A 
ATOM      8  C   UNL     1      -5.456  12.035  17.586  0.00  0.00    +0.000 A 
ATOM      9  C   UNL     1      -6.824  12.308  17.723  0.00  0.00    +0.000 A 
ATOM     10  C   UNL     1      -7.400  12.433  18.987  0.00  0.00    +0.000 A 
ATOM     11  C   UNL     1      -6.587  12.387  20.109  0.00  0.00    +0.000 A 
ATOM     12  C   UNL     1      -5.210  12.202  19.963  0.00  0.00    +0.000 A 
ENDBRANCH   5   7
BRANCH   6  13
ATOM     13  C   UNL     1      -2.152  12.628  20.551  0.00  0.00    +0.000 A 
ATOM     14  C   UNL     1      -2.244  12.033  21.820  0.00  0.00    +0.000 A 
ATOM     15  C   UNL     1      -2.534  12.810  22.944  0.00  0.00    +0.000 A 
ATOM     16  C   UNL     1      -2.633  14.195  22.827  0.00  0.00    +0.000 A 
ATOM     17  C   UNL     1      -2.445  14.800  21.588  0.00  0.00    +0.000 A 
ATOM     18  C   UNL     1      -2.230  14.024  20.450  0.00  0.00    +0.000 A 
ENDBRANCH   6  13
ENDBRANCH   1   2
BRANCH   1  19
ATOM     19  C   UNL     1       1.528  10.139  18.427  0.00  0.00    +0.000 C 
BRANCH  19  20
ATOM     20  C   UNL     1       1.493   8.863  19.256  0.00  0.00    +0.000 C 
ATOM     21  O   UNL     1       0.798   8.770  20.261  0.00  0.00    +0.000 OA
BRANCH  20  25
ATOM     22  C   UNL     1       4.902   6.023  16.695  0.00  0.00    +0.000 C 
ATOM     23  C   UNL     1       3.904   6.503  17.692  0.00  0.00    +0.000 A 
ATOM     24  C   UNL     1       3.257   7.732  17.714  0.00  0.00    +0.000 A 
ATOM     25  C   UNL     1       2.376   7.755  18.833  0.00  0.00    +0.000 A 
ATOM     26  C   UNL     1       2.520   6.514  19.466  0.00  0.00    +0.000 A 
ATOM     27  C   UNL     1       1.834   6.004  20.695  0.00  0.00    +0.000 C 
ATOM     28  N   UNL     1       3.450   5.745  18.763  0.00  0.00    +0.000 N 
ATOM     29  C   UNL     1       3.855   4.395  19.100  0.00  0.00    +0.000 A 
ATOM     30  N   UNL     1       3.288   3.690  20.132  0.00  0.00    +0.000 NA
ATOM     31  C   UNL     1       3.917   2.543  20.081  0.00  0.00    +0.000 A 
ATOM     32  N   UNL     1       4.831   2.567  19.080  0.00  0.00    +0.000 N 
ATOM     33  N   UNL     1       4.809   3.735  18.430  0.00  0.00    +0.000 NA
ATOM     34  H   UNL     1       5.482   1.849  18.787  0.00  0.00    +0.000 HD
ENDBRANCH  20  25
ENDBRANCH  19  20
ENDBRANCH   1  19
TORSDOF 6
ENDMDL
MODEL 8
REMARK VINA RESULT:      -7.5      7.427     10.902
REMARK  Name = 
REMARK  8 active torsions:
REMARK  status: ('A' for Active; 'I' for Inactive)
REMARK    1  A    between atoms: C_1  and  C_2
REMARK    2  A    between atoms: C_4  and  C_5
REMARK    3  A    between atoms: C_5  and  C_7
REMARK    4  A    between atoms: C_7  and  S_8
REMARK    5  A    between atoms: S_8  and  C_9
REMARK    6  A    between atoms: C_12  and  C_13
REMARK    7  A    between atoms: N_19  and  C_20
REMARK    8  A    between atoms: C_26  and  C_27
REMARK                            x       y       z     vdW  Elec       q    Type
REMARK                         _______ _______ _______ _____ _____    ______ ____
ROOT
ATOM      1  S   UNL     1       0.648  14.649  22.108  0.00  0.00    +0.000 S 
ENDROOT
BRANCH   1   2
ATOM      2  C   UNL     1       0.047  14.083  20.577  0.00  0.00    +0.000 A 
ATOM      3  N   UNL     1      -0.046  14.817  19.492  0.00  0.00    +0.000 NA
ATOM      4  N   UNL     1      -0.622  14.056  18.508  0.00  0.00    +0.000 NA
ATOM      5  C   UNL     1      -0.910  12.854  19.006  0.00  0.00    +0.000 A 
ATOM      6  N   UNL     1      -0.398  12.791  20.324  0.00  0.00    +0.000 N 
BRANCH   5   7
ATOM      7  C   UNL     1      -1.681  11.801  18.294  0.00  0.00    +0.000 A 
ATOM      8  C   UNL     1      -1.021  10.743  17.655  0.00  0.00    +0.000 A 
ATOM      9  C   UNL     1      -1.741   9.657  17.140  0.00  0.00    +0.000 A 
ATOM     10  C   UNL     1      -3.127   9.592  17.280  0.00  0.00    +0.000 A 
ATOM     11  C   UNL     1      -3.801  10.664  17.843  0.00  0.00    +0.000 A 
ATOM     12  C   UNL     1      -3.087  11.785  18.276  0.00  0.00    +0.000 A 
ENDBRANCH   5   7
BRANCH   6  13
ATOM     13  C   UNL     1      -0.396  11.650  21.188  0.00  0.00    +0.000 A 
ATOM     14  C   UNL     1      -1.343  11.538  22.220  0.00  0.00    +0.000 A 
ATOM     15  C   UNL     1      -1.188  10.572  23.218  0.00  0.00    +0.000 A 
ATOM     16  C   UNL     1      -0.147   9.649  23.138  0.00  0.00    +0.000 A 
ATOM     17  C   UNL     1       0.737   9.694  22.064  0.00  0.00    +0.000 A 
ATOM     18  C   UNL     1       0.633  10.701  21.106  0.00  0.00    +0.000 A 
ENDBRANCH   6  13
ENDBRANCH   1   2
BRANCH   1  19
ATOM     19  C   UNL     1      -0.005  16.321  22.275  0.00  0.00    +0.000 C 
BRANCH  19  20
ATOM     20  C   UNL     1      -1.145  16.456  23.274  0.00  0.00    +0.000 C 
ATOM     21  O   UNL     1      -1.202  17.395  24.060  0.00  0.00    +0.000 OA
BRANCH  20  25
ATOM     22  C   UNL     1      -4.063  12.514  24.754  0.00  0.00    +0.000 C 
ATOM     23  C   UNL     1      -3.459  13.630  23.974  0.00  0.00    +0.000 A 
ATOM     24  C   UNL     1      -2.423  14.469  24.363  0.00  0.00    +0.000 A 
ATOM     25  C   UNL     1      -2.157  15.378  23.299  0.00  0.00    +0.000 A 
ATOM     26  C   UNL     1      -3.059  15.054  22.277  0.00  0.00    +0.000 A 
ATOM     27  C   UNL     1      -3.221  15.694  20.934  0.00  0.00    +0.000 C 
ATOM     28  N   UNL     1      -3.850  13.978  22.687  0.00  0.00    +0.000 N 
ATOM     29  C   UNL     1      -4.887  13.346  21.898  0.00  0.00    +0.000 A 
ATOM     30  N   UNL     1      -5.149  13.704  20.599  0.00  0.00    +0.000 NA
ATOM     31  C   UNL     1      -6.124  12.897  20.265  0.00  0.00    +0.000 A 
ATOM     32  N   UNL     1      -6.445  12.107  21.319  0.00  0.00    +0.000 N 
ATOM     33  N   UNL     1      -5.666  12.365  22.374  0.00  0.00    +0.000 NA
ATOM     34  H   UNL     1      -7.156  11.390  21.391  0.00  0.00    +0.000 HD
ENDBRANCH  20  25
ENDBRANCH  19  20
ENDBRANCH   1  19
TORSDOF 6
ENDMDL
MODEL 9
REMARK VINA RESULT:      -7.5      7.300     10.924
REMARK  Name = 
REMARK  8 active torsions:
REMARK  status: ('A' for Active; 'I' for Inactive)
REMARK    1  A    between atoms: C_1  and  C_2
REMARK    2  A    between atoms: C_4  and  C_5
REMARK    3  A    between atoms: C_5  and  C_7
REMARK    4  A    between atoms: C_7  and  S_8
REMARK    5  A    between atoms: S_8  and  C_9
REMARK    6  A    between atoms: C_12  and  C_13
REMARK    7  A    between atoms: N_19  and  C_20
REMARK    8  A    between atoms: C_26  and  C_27
REMARK                            x       y       z     vdW  Elec       q    Type
REMARK                         _______ _______ _______ _____ _____    ______ ____
ROOT
ATOM      1  S   UNL     1       1.264  14.415  21.534  0.00  0.00    +0.000 S 
ENDROOT
BRANCH   1   2
ATOM      2  C   UNL     1       0.460  13.786  20.125  0.00  0.00    +0.000 A 
ATOM      3  N   UNL     1       0.376  14.408  18.972  0.00  0.00    +0.000 NA
ATOM      4  N   UNL     1      -0.383  13.641  18.126  0.00  0.00    +0.000 NA
ATOM      5  C   UNL     1      -0.789  12.553  18.778  0.00  0.00    +0.000 A 
ATOM      6  N   UNL     1      -0.179  12.554  20.056  0.00  0.00    +0.000 N 
BRANCH   5   7
ATOM      7  C   UNL     1      -1.757  11.555  18.250  0.00  0.00    +0.000 A 
ATOM      8  C   UNL     1      -3.136  11.748  18.407  0.00  0.00    +0.000 A 
ATOM      9  C   UNL     1      -4.054  10.911  17.760  0.00  0.00    +0.000 A 
ATOM     10  C   UNL     1      -3.614   9.887  16.922  0.00  0.00    +0.000 A 
ATOM     11  C   UNL     1      -2.255   9.636  16.816  0.00  0.00    +0.000 A 
ATOM     12  C   UNL     1      -1.345  10.419  17.532  0.00  0.00    +0.000 A 
ENDBRANCH   5   7
BRANCH   6  13
ATOM     13  C   UNL     1      -0.259  11.522  21.045  0.00  0.00    +0.000 A 
ATOM     14  C   UNL     1      -1.213  11.595  22.073  0.00  0.00    +0.000 A 
ATOM     15  C   UNL     1      -1.129  10.741  23.176  0.00  0.00    +0.000 A 
ATOM     16  C   UNL     1      -0.156   9.744  23.211  0.00  0.00    +0.000 A 
ATOM     17  C   UNL     1       0.731   9.603  22.148  0.00  0.00    +0.000 A 
ATOM     18  C   UNL     1       0.700  10.500  21.081  0.00  0.00    +0.000 A 
ENDBRANCH   6  13
ENDBRANCH   1   2
BRANCH   1  19
ATOM     19  C   UNL     1       0.982  16.195  21.474  0.00  0.00    +0.000 C 
BRANCH  19  20
ATOM     20  C   UNL     1      -0.206  16.674  22.297  0.00  0.00    +0.000 C 
ATOM     21  O   UNL     1      -0.113  17.626  23.063  0.00  0.00    +0.000 OA
BRANCH  20  25
ATOM     22  C   UNL     1      -4.606  14.728  20.537  0.00  0.00    +0.000 C 
ATOM     23  C   UNL     1      -3.418  15.039  21.380  0.00  0.00    +0.000 A 
ATOM     24  C   UNL     1      -2.372  15.902  21.081  0.00  0.00    +0.000 A 
ATOM     25  C   UNL     1      -1.466  15.909  22.179  0.00  0.00    +0.000 A 
ATOM     26  C   UNL     1      -2.002  15.032  23.130  0.00  0.00    +0.000 A 
ATOM     27  C   UNL     1      -1.456  14.658  24.473  0.00  0.00    +0.000 C 
ATOM     28  N   UNL     1      -3.202  14.506  22.645  0.00  0.00    +0.000 N 
ATOM     29  C   UNL     1      -4.059  13.574  23.348  0.00  0.00    +0.000 A 
ATOM     30  N   UNL     1      -3.808  13.163  24.633  0.00  0.00    +0.000 NA
ATOM     31  C   UNL     1      -4.808  12.357  24.883  0.00  0.00    +0.000 A 
ATOM     32  N   UNL     1      -5.610  12.272  23.792  0.00  0.00    +0.000 N 
ATOM     33  N   UNL     1      -5.161  13.044  22.798  0.00  0.00    +0.000 NA
ATOM     34  H   UNL     1      -6.454  11.729  23.656  0.00  0.00    +0.000 HD
ENDBRANCH  20  25
ENDBRANCH  19  20
ENDBRANCH   1  19
TORSDOF 6
ENDMDL
