MODEL 1
REMARK VINA RESULT:      -6.5      0.000      0.000
REMARK  Name = 
REMARK  7 active torsions:
REMARK  status: ('A' for Active; 'I' for Inactive)
REMARK    1  A    between atoms: C_1  and  C_2
REMARK    2  A    between atoms: C_2  and  C_3
REMARK    3  A    between atoms: C_3  and  N_4
REMARK    4  A    between atoms: N_4  and  C_5
REMARK    5  A    between atoms: C_5  and  C_6
REMARK    6  A    between atoms: C_7  and  C_9
REMARK    7  A    between atoms: N_15  and  C_16
REMARK                            x       y       z     vdW  Elec       q    Type
REMARK                         _______ _______ _______ _____ _____    ______ ____
ROOT
ATOM      1  C   UNL     1       2.837   5.529  18.705  0.00  0.00    +0.000 A 
ATOM      2  N   UNL     1       2.071   4.513  18.164  0.00  0.00    +0.000 NA
ATOM      3  C   UNL     1       2.774   4.037  17.161  0.00  0.00    +0.000 A 
ATOM      4  N   UNL     1       3.986   4.667  17.027  0.00  0.00    +0.000 N 
ATOM      5  C   UNL     1       4.032   5.651  18.002  0.00  0.00    +0.000 A 
ATOM      6  C   UNL     1       5.088   6.692  18.093  0.00  0.00    +0.000 C 
ATOM      7  N   UNL     1       6.453   6.206  18.396  0.00  0.00    +0.000 NA
ATOM      8  C   UNL     1       7.470   7.218  18.036  0.00  0.00    +0.000 C 
ATOM      9  S   UNL     1       6.865   4.610  18.023  0.00  0.00    +0.000 S 
ATOM     10  O   UNL     1       6.050   3.690  18.784  0.00  0.00    +0.000 OA
ATOM     11  O   UNL     1       8.309   4.495  18.045  0.00  0.00    +0.000 OA
ATOM     12  C   UNL     1       6.332   4.526  16.330  0.00  0.00    +0.000 A 
ATOM     13  C   UNL     1       7.291   4.461  15.313  0.00  0.00    +0.000 A 
ATOM     14  C   UNL     1       6.879   4.263  13.997  0.00  0.00    +0.000 A 
ATOM     15  C   UNL     1       5.524   4.080  13.707  0.00  0.00    +0.000 A 
ATOM     16  C   UNL     1       4.565   4.140  14.723  0.00  0.00    +0.000 A 
ATOM     17  C   UNL     1       4.966   4.414  16.035  0.00  0.00    +0.000 A 
ENDROOT
BRANCH   1  19
ATOM     18  N   UNL     1       1.990   7.742  19.428  0.00  0.00    +0.000 N 
ATOM     19  C   UNL     1       2.380   6.440  19.766  0.00  0.00    +0.000 C 
ATOM     20  O   UNL     1       2.337   6.039  20.930  0.00  0.00    +0.000 OA
BRANCH  18  21
ATOM     21  C   UNL     1       1.830   8.235  18.055  0.00  0.00    +0.000 C 
ATOM     22  C   UNL     1       1.931   9.749  17.936  0.00  0.00    +0.000 C 
ENDBRANCH  18  21
BRANCH  18  23
ATOM     23  C   UNL     1       1.586   8.634  20.516  0.00  0.00    +0.000 C 
BRANCH  23  25
ATOM     24  C   UNL     1      -0.174   9.140  22.303  0.00  0.00    +0.000 C 
ATOM     25  C   UNL     1       0.148   8.428  20.998  0.00  0.00    +0.000 C 
ENDBRANCH  23  25
ENDBRANCH  18  23
ENDBRANCH   1  19
TORSDOF 4
ENDMDL
MODEL 2
REMARK VINA RESULT:      -6.5      2.480      3.636
REMARK  Name = 
REMARK  7 active torsions:
REMARK  status: ('A' for Active; 'I' for Inactive)
REMARK    1  A    between atoms: C_1  and  C_2
REMARK    2  A    between atoms: C_2  and  C_3
REMARK    3  A    between atoms: C_3  and  N_4
REMARK    4  A    between atoms: N_4  and  C_5
REMARK    5  A    between atoms: C_5  and  C_6
REMARK    6  A    between atoms: C_7  and  C_9
REMARK    7  A    between atoms: N_15  and  C_16
REMARK                            x       y       z     vdW  Elec       q    Type
REMARK                         _______ _______ _______ _____ _____    ______ ____
ROOT
ATOM      1  C   UNL     1       1.937   7.957  19.380  0.00  0.00    +0.000 A 
ATOM      2  N   UNL     1       2.165   8.826  18.328  0.00  0.00    +0.000 NA
ATOM      3  C   UNL     1       2.941   8.172  17.493  0.00  0.00    +0.000 A 
ATOM      4  N   UNL     1       3.215   6.898  17.923  0.00  0.00    +0.000 N 
ATOM      5  C   UNL     1       2.594   6.752  19.153  0.00  0.00    +0.000 A 
ATOM      6  C   UNL     1       2.789   5.588  20.057  0.00  0.00    +0.000 C 
ATOM      7  N   UNL     1       2.295   4.287  19.554  0.00  0.00    +0.000 NA
ATOM      8  C   UNL     1       2.911   3.163  20.294  0.00  0.00    +0.000 C 
ATOM      9  S   UNL     1       2.137   4.049  17.889  0.00  0.00    +0.000 S 
ATOM     10  O   UNL     1       1.160   4.964  17.341  0.00  0.00    +0.000 OA
ATOM     11  O   UNL     1       2.022   2.626  17.640  0.00  0.00    +0.000 OA
ATOM     12  C   UNL     1       3.739   4.577  17.333  0.00  0.00    +0.000 A 
ATOM     13  C   UNL     1       4.647   3.624  16.855  0.00  0.00    +0.000 A 
ATOM     14  C   UNL     1       5.850   4.047  16.298  0.00  0.00    +0.000 A 
ATOM     15  C   UNL     1       6.124   5.411  16.172  0.00  0.00    +0.000 A 
ATOM     16  C   UNL     1       5.216   6.366  16.644  0.00  0.00    +0.000 A 
ATOM     17  C   UNL     1       4.040   5.945  17.273  0.00  0.00    +0.000 A 
ENDROOT
BRANCH   1  19
ATOM     18  N   UNL     1       0.498   9.510  20.666  0.00  0.00    +0.000 N 
ATOM     19  C   UNL     1       1.231   8.318  20.619  0.00  0.00    +0.000 C 
ATOM     20  O   UNL     1       1.286   7.560  21.589  0.00  0.00    +0.000 OA
BRANCH  18  21
ATOM     21  C   UNL     1       0.226  10.368  19.506  0.00  0.00    +0.000 C 
ATOM     22  C   UNL     1      -1.153  10.148  18.897  0.00  0.00    +0.000 C 
ENDBRANCH  18  21
BRANCH  18  23
ATOM     23  C   UNL     1      -0.152   9.859  21.930  0.00  0.00    +0.000 C 
BRANCH  23  25
ATOM     24  C   UNL     1      -1.590  11.678  23.012  0.00  0.00    +0.000 C 
ATOM     25  C   UNL     1      -0.404  11.357  22.115  0.00  0.00    +0.000 C 
ENDBRANCH  23  25
ENDBRANCH  18  23
ENDBRANCH   1  19
TORSDOF 4
ENDMDL
MODEL 3
REMARK VINA RESULT:      -6.3      6.021      8.495
REMARK  Name = 
REMARK  7 active torsions:
REMARK  status: ('A' for Active; 'I' for Inactive)
REMARK    1  A    between atoms: C_1  and  C_2
REMARK    2  A    between atoms: C_2  and  C_3
REMARK    3  A    between atoms: C_3  and  N_4
REMARK    4  A    between atoms: N_4  and  C_5
REMARK    5  A    between atoms: C_5  and  C_6
REMARK    6  A    between atoms: C_7  and  C_9
REMARK    7  A    between atoms: N_15  and  C_16
REMARK                            x       y       z     vdW  Elec       q    Type
REMARK                         _______ _______ _______ _____ _____    ______ ____
ROOT
ATOM      1  C   UNL     1      -1.038  11.367  22.736  0.00  0.00    +0.000 A 
ATOM      2  N   UNL     1      -0.372  10.413  23.483  0.00  0.00    +0.000 NA
ATOM      3  C   UNL     1       0.423   9.795  22.640  0.00  0.00    +0.000 A 
ATOM      4  N   UNL     1       0.342  10.312  21.371  0.00  0.00    +0.000 N 
ATOM      5  C   UNL     1      -0.616  11.313  21.411  0.00  0.00    +0.000 A 
ATOM      6  C   UNL     1      -1.151  12.008  20.211  0.00  0.00    +0.000 C 
ATOM      7  N   UNL     1      -0.186  12.841  19.460  0.00  0.00    +0.000 NA
ATOM      8  C   UNL     1      -0.676  13.117  18.091  0.00  0.00    +0.000 C 
ATOM      9  S   UNL     1       1.465  12.503  19.576  0.00  0.00    +0.000 S 
ATOM     10  O   UNL     1       1.920  12.683  20.937  0.00  0.00    +0.000 OA
ATOM     11  O   UNL     1       2.146  13.171  18.486  0.00  0.00    +0.000 OA
ATOM     12  C   UNL     1       1.464  10.759  19.238  0.00  0.00    +0.000 A 
ATOM     13  C   UNL     1       1.986  10.297  18.024  0.00  0.00    +0.000 A 
ATOM     14  C   UNL     1       2.107   8.926  17.811  0.00  0.00    +0.000 A 
ATOM     15  C   UNL     1       1.756   8.026  18.820  0.00  0.00    +0.000 A 
ATOM     16  C   UNL     1       1.237   8.486  20.035  0.00  0.00    +0.000 A 
ATOM     17  C   UNL     1       1.043   9.858  20.226  0.00  0.00    +0.000 A 
ENDROOT
BRANCH   1  19
ATOM     18  N   UNL     1      -1.927  13.579  23.411  0.00  0.00    +0.000 N 
ATOM     19  C   UNL     1      -2.136  12.204  23.242  0.00  0.00    +0.000 C 
ATOM     20  O   UNL     1      -3.224  11.685  23.496  0.00  0.00    +0.000 OA
BRANCH  18  21
ATOM     21  C   UNL     1      -0.734  14.302  22.956  0.00  0.00    +0.000 C 
ATOM     22  C   UNL     1      -1.034  15.385  21.928  0.00  0.00    +0.000 C 
ENDBRANCH  18  21
BRANCH  18  23
ATOM     23  C   UNL     1      -3.028  14.371  23.961  0.00  0.00    +0.000 C 
BRANCH  23  25
ATOM     24  C   UNL     1      -2.176  16.155  25.586  0.00  0.00    +0.000 C 
ATOM     25  C   UNL     1      -2.832  14.792  25.420  0.00  0.00    +0.000 C 
ENDBRANCH  23  25
ENDBRANCH  18  23
ENDBRANCH   1  19
TORSDOF 4
ENDMDL
MODEL 4
REMARK VINA RESULT:      -6.1      8.197     10.504
REMARK  Name = 
REMARK  7 active torsions:
REMARK  status: ('A' for Active; 'I' for Inactive)
REMARK    1  A    between atoms: C_1  and  C_2
REMARK    2  A    between atoms: C_2  and  C_3
REMARK    3  A    between atoms: C_3  and  N_4
REMARK    4  A    between atoms: N_4  and  C_5
REMARK    5  A    between atoms: C_5  and  C_6
REMARK    6  A    between atoms: C_7  and  C_9
REMARK    7  A    between atoms: N_15  and  C_16
REMARK                            x       y       z     vdW  Elec       q    Type
REMARK                         _______ _______ _______ _____ _____    ______ ____
ROOT
ATOM      1  C   UNL     1       0.237  14.039  19.066  0.00  0.00    +0.000 A 
ATOM      2  N   UNL     1       0.565  13.039  18.168  0.00  0.00    +0.000 NA
ATOM      3  C   UNL     1       0.513  11.919  18.853  0.00  0.00    +0.000 A 
ATOM      4  N   UNL     1       0.136  12.120  20.157  0.00  0.00    +0.000 N 
ATOM      5  C   UNL     1      -0.022  13.488  20.318  0.00  0.00    +0.000 A 
ATOM      6  C   UNL     1      -0.245  14.158  21.625  0.00  0.00    +0.000 C 
ATOM      7  N   UNL     1      -1.519  13.841  22.307  0.00  0.00    +0.000 NA
ATOM      8  C   UNL     1      -1.453  14.186  23.744  0.00  0.00    +0.000 C 
ATOM      9  S   UNL     1      -2.310  12.391  21.953  0.00  0.00    +0.000 S 
ATOM     10  O   UNL     1      -2.706  12.361  20.562  0.00  0.00    +0.000 OA
ATOM     11  O   UNL     1      -3.285  12.136  22.994  0.00  0.00    +0.000 OA
ATOM     12  C   UNL     1      -0.975  11.236  22.155  0.00  0.00    +0.000 A 
ATOM     13  C   UNL     1      -0.982  10.367  23.252  0.00  0.00    +0.000 A 
ATOM     14  C   UNL     1      -0.009   9.375  23.344  0.00  0.00    +0.000 A 
ATOM     15  C   UNL     1       0.932   9.221  22.323  0.00  0.00    +0.000 A 
ATOM     16  C   UNL     1       0.939  10.085  21.223  0.00  0.00    +0.000 A 
ATOM     17  C   UNL     1       0.010  11.131  21.164  0.00  0.00    +0.000 A 
ENDROOT
BRANCH   1  19
ATOM     18  N   UNL     1       1.545  16.129  18.824  0.00  0.00    +0.000 N 
ATOM     19  C   UNL     1       0.306  15.478  18.771  0.00  0.00    +0.000 C 
ATOM     20  O   UNL     1      -0.724  16.083  18.469  0.00  0.00    +0.000 OA
BRANCH  18  21
ATOM     21  C   UNL     1       2.836  15.450  18.985  0.00  0.00    +0.000 C 
ATOM     22  C   UNL     1       3.524  15.128  17.665  0.00  0.00    +0.000 C 
ENDBRANCH  18  21
BRANCH  18  23
ATOM     23  C   UNL     1       1.567  17.570  18.570  0.00  0.00    +0.000 C 
BRANCH  23  25
ATOM     24  C   UNL     1       0.439  18.631  16.532  0.00  0.00    +0.000 C 
ATOM     25  C   UNL     1       1.678  17.946  17.090  0.00  0.00    +0.000 C 
ENDBRANCH  23  25
ENDBRANCH  18  23
ENDBRANCH   1  19
TORSDOF 4
ENDMDL
MODEL 5
REMARK VINA RESULT:      -6.0      5.976      8.432
REMARK  Name = 
REMARK  7 active torsions:
REMARK  status: ('A' for Active; 'I' for Inactive)
REMARK    1  A    between atoms: C_1  and  C_2
REMARK    2  A    between atoms: C_2  and  C_3
REMARK    3  A    between atoms: C_3  and  N_4
REMARK    4  A    between atoms: N_4  and  C_5
REMARK    5  A    between atoms: C_5  and  C_6
REMARK    6  A    between atoms: C_7  and  C_9
REMARK    7  A    between atoms: N_15  and  C_16
REMARK                            x       y       z     vdW  Elec       q    Type
REMARK                         _______ _______ _______ _____ _____    ______ ____
ROOT
ATOM      1  C   UNL     1      -1.041  11.229  22.768  0.00  0.00    +0.000 A 
ATOM      2  N   UNL     1      -0.313  10.329  23.526  0.00  0.00    +0.000 NA
ATOM      3  C   UNL     1       0.496   9.730  22.681  0.00  0.00    +0.000 A 
ATOM      4  N   UNL     1       0.364  10.209  21.402  0.00  0.00    +0.000 N 
ATOM      5  C   UNL     1      -0.643  11.161  21.437  0.00  0.00    +0.000 A 
ATOM      6  C   UNL     1      -1.236  11.797  20.232  0.00  0.00    +0.000 C 
ATOM      7  N   UNL     1      -0.330  12.657  19.439  0.00  0.00    +0.000 NA
ATOM      8  C   UNL     1      -0.860  12.873  18.075  0.00  0.00    +0.000 C 
ATOM      9  S   UNL     1       1.339  12.406  19.529  0.00  0.00    +0.000 S 
ATOM     10  O   UNL     1       1.810  12.644  20.876  0.00  0.00    +0.000 OA
ATOM     11  O   UNL     1       1.963  13.078  18.409  0.00  0.00    +0.000 OA
ATOM     12  C   UNL     1       1.419  10.656  19.235  0.00  0.00    +0.000 A 
ATOM     13  C   UNL     1       1.940  10.189  18.023  0.00  0.00    +0.000 A 
ATOM     14  C   UNL     1       2.126   8.821  17.841  0.00  0.00    +0.000 A 
ATOM     15  C   UNL     1       1.841   7.931  18.880  0.00  0.00    +0.000 A 
ATOM     16  C   UNL     1       1.324   8.395  20.093  0.00  0.00    +0.000 A 
ATOM     17  C   UNL     1       1.065   9.761  20.254  0.00  0.00    +0.000 A 
ENDROOT
BRANCH   1  19
ATOM     18  N   UNL     1      -2.026  13.409  23.411  0.00  0.00    +0.000 N 
ATOM     19  C   UNL     1      -2.170  12.022  23.277  0.00  0.00    +0.000 C 
ATOM     20  O   UNL     1      -3.226  11.456  23.563  0.00  0.00    +0.000 OA
BRANCH  18  21
ATOM     21  C   UNL     1      -0.878  14.179  22.917  0.00  0.00    +0.000 C 
ATOM     22  C   UNL     1      -0.576  15.420  23.747  0.00  0.00    +0.000 C 
ENDBRANCH  18  21
BRANCH  18  23
ATOM     23  C   UNL     1      -3.154  14.159  23.964  0.00  0.00    +0.000 C 
BRANCH  23  25
ATOM     24  C   UNL     1      -4.601  14.205  21.854  0.00  0.00    +0.000 C 
ATOM     25  C   UNL     1      -3.904  15.013  22.939  0.00  0.00    +0.000 C 
ENDBRANCH  23  25
ENDBRANCH  18  23
ENDBRANCH   1  19
TORSDOF 4
ENDMDL
MODEL 6
REMARK VINA RESULT:      -6.0      8.114     13.107
REMARK  Name = 
REMARK  7 active torsions:
REMARK  status: ('A' for Active; 'I' for Inactive)
REMARK    1  A    between atoms: C_1  and  C_2
REMARK    2  A    between atoms: C_2  and  C_3
REMARK    3  A    between atoms: C_3  and  N_4
REMARK    4  A    between atoms: N_4  and  C_5
REMARK    5  A    between atoms: C_5  and  C_6
REMARK    6  A    between atoms: C_7  and  C_9
REMARK    7  A    between atoms: N_15  and  C_16
REMARK                            x       y       z     vdW  Elec       q    Type
REMARK                         _______ _______ _______ _____ _____    ______ ____
ROOT
ATOM      1  C   UNL     1      -1.094  13.556  22.684  0.00  0.00    +0.000 A 
ATOM      2  N   UNL     1      -0.621  14.166  23.832  0.00  0.00    +0.000 NA
ATOM      3  C   UNL     1      -1.651  14.802  24.343  0.00  0.00    +0.000 A 
ATOM      4  N   UNL     1      -2.795  14.620  23.608  0.00  0.00    +0.000 N 
ATOM      5  C   UNL     1      -2.447  13.838  22.519  0.00  0.00    +0.000 A 
ATOM      6  C   UNL     1      -3.344  13.556  21.368  0.00  0.00    +0.000 C 
ATOM      7  N   UNL     1      -4.551  12.755  21.668  0.00  0.00    +0.000 NA
ATOM      8  C   UNL     1      -5.566  12.903  20.602  0.00  0.00    +0.000 C 
ATOM      9  S   UNL     1      -5.162  12.737  23.244  0.00  0.00    +0.000 S 
ATOM     10  O   UNL     1      -4.195  12.161  24.151  0.00  0.00    +0.000 OA
ATOM     11  O   UNL     1      -6.517  12.226  23.202  0.00  0.00    +0.000 OA
ATOM     12  C   UNL     1      -5.242  14.480  23.579  0.00  0.00    +0.000 A 
ATOM     13  C   UNL     1      -6.492  15.105  23.659  0.00  0.00    +0.000 A 
ATOM     14  C   UNL     1      -6.564  16.440  24.050  0.00  0.00    +0.000 A 
ATOM     15  C   UNL     1      -5.403  17.129  24.408  0.00  0.00    +0.000 A 
ATOM     16  C   UNL     1      -4.153  16.505  24.333  0.00  0.00    +0.000 A 
ATOM     17  C   UNL     1      -4.068  15.188  23.868  0.00  0.00    +0.000 A 
ENDROOT
BRANCH   1  19
ATOM     18  N   UNL     1      -0.101  11.459  21.816  0.00  0.00    +0.000 N 
ATOM     19  C   UNL     1      -0.250  12.848  21.710  0.00  0.00    +0.000 C 
ATOM     20  O   UNL     1       0.302  13.485  20.811  0.00  0.00    +0.000 OA
BRANCH  18  21
ATOM     21  C   UNL     1      -0.868  10.607  22.732  0.00  0.00    +0.000 C 
ATOM     22  C   UNL     1      -0.037   9.509  23.382  0.00  0.00    +0.000 C 
ENDBRANCH  18  21
BRANCH  18  23
ATOM     23  C   UNL     1       0.783  10.795  20.858  0.00  0.00    +0.000 C 
BRANCH  23  25
ATOM     24  C   UNL     1      -0.884  10.591  18.928  0.00  0.00    +0.000 C 
ATOM     25  C   UNL     1       0.064   9.869  19.875  0.00  0.00    +0.000 C 
ENDBRANCH  23  25
ENDBRANCH  18  23
ENDBRANCH   1  19
TORSDOF 4
ENDMDL
MODEL 7
REMARK VINA RESULT:      -5.9      7.579     11.840
REMARK  Name = 
REMARK  7 active torsions:
REMARK  status: ('A' for Active; 'I' for Inactive)
REMARK    1  A    between atoms: C_1  and  C_2
REMARK    2  A    between atoms: C_2  and  C_3
REMARK    3  A    between atoms: C_3  and  N_4
REMARK    4  A    between atoms: N_4  and  C_5
REMARK    5  A    between atoms: C_5  and  C_6
REMARK    6  A    between atoms: C_7  and  C_9
REMARK    7  A    between atoms: N_15  and  C_16
REMARK                            x       y       z     vdW  Elec       q    Type
REMARK                         _______ _______ _______ _____ _____    ______ ____
ROOT
ATOM      1  C   UNL     1      -0.534  12.854  20.262  0.00  0.00    +0.000 A 
ATOM      2  N   UNL     1       0.684  13.272  20.766  0.00  0.00    +0.000 NA
ATOM      3  C   UNL     1       0.403  13.943  21.860  0.00  0.00    +0.000 A 
ATOM      4  N   UNL     1      -0.943  13.965  22.127  0.00  0.00    +0.000 N 
ATOM      5  C   UNL     1      -1.565  13.287  21.091  0.00  0.00    +0.000 A 
ATOM      6  C   UNL     1      -3.036  13.236  20.886  0.00  0.00    +0.000 C 
ATOM      7  N   UNL     1      -3.811  12.530  21.930  0.00  0.00    +0.000 NA
ATOM      8  C   UNL     1      -5.241  12.905  21.875  0.00  0.00    +0.000 C 
ATOM      9  S   UNL     1      -3.166  12.386  23.485  0.00  0.00    +0.000 S 
ATOM     10  O   UNL     1      -1.945  11.612  23.453  0.00  0.00    +0.000 OA
ATOM     11  O   UNL     1      -4.236  12.021  24.392  0.00  0.00    +0.000 OA
ATOM     12  C   UNL     1      -2.723  14.075  23.809  0.00  0.00    +0.000 A 
ATOM     13  C   UNL     1      -3.459  14.809  24.747  0.00  0.00    +0.000 A 
ATOM     14  C   UNL     1      -3.035  16.088  25.099  0.00  0.00    +0.000 A 
ATOM     15  C   UNL     1      -1.858  16.610  24.557  0.00  0.00    +0.000 A 
ATOM     16  C   UNL     1      -1.118  15.877  23.623  0.00  0.00    +0.000 A 
ATOM     17  C   UNL     1      -1.580  14.623  23.209  0.00  0.00    +0.000 A 
ENDROOT
BRANCH   1  19
ATOM     18  N   UNL     1      -0.665  10.787  18.903  0.00  0.00    +0.000 N 
ATOM     19  C   UNL     1      -0.713  12.185  18.965  0.00  0.00    +0.000 C 
ATOM     20  O   UNL     1      -0.915  12.865  17.957  0.00  0.00    +0.000 OA
BRANCH  18  21
ATOM     21  C   UNL     1      -0.620   9.902  20.074  0.00  0.00    +0.000 C 
ATOM     22  C   UNL     1       0.760   9.319  20.344  0.00  0.00    +0.000 C 
ENDBRANCH  18  21
BRANCH  18  23
ATOM     23  C   UNL     1      -0.800  10.159  17.588  0.00  0.00    +0.000 C 
BRANCH  23  25
ATOM     24  C   UNL     1      -2.661  10.483  15.862  0.00  0.00    +0.000 C 
ATOM     25  C   UNL     1      -2.244   9.853  17.183  0.00  0.00    +0.000 C 
ENDBRANCH  23  25
ENDBRANCH  18  23
ENDBRANCH   1  19
TORSDOF 4
ENDMDL
MODEL 8
REMARK VINA RESULT:      -5.9      6.719      9.287
REMARK  Name = 
REMARK  7 active torsions:
REMARK  status: ('A' for Active; 'I' for Inactive)
REMARK    1  A    between atoms: C_1  and  C_2
REMARK    2  A    between atoms: C_2  and  C_3
REMARK    3  A    between atoms: C_3  and  N_4
REMARK    4  A    between atoms: N_4  and  C_5
REMARK    5  A    between atoms: C_5  and  C_6
REMARK    6  A    between atoms: C_7  and  C_9
REMARK    7  A    between atoms: N_15  and  C_16
REMARK                            x       y       z     vdW  Elec       q    Type
REMARK                         _______ _______ _______ _____ _____    ______ ____
ROOT
ATOM      1  C   UNL     1      -1.669  11.829  22.762  0.00  0.00    +0.000 A 
ATOM      2  N   UNL     1      -1.159  10.706  23.389  0.00  0.00    +0.000 NA
ATOM      3  C   UNL     1      -0.272  10.210  22.556  0.00  0.00    +0.000 A 
ATOM      4  N   UNL     1      -0.144  10.965  21.417  0.00  0.00    +0.000 N 
ATOM      5  C   UNL     1      -1.058  12.002  21.524  0.00  0.00    +0.000 A 
ATOM      6  C   UNL     1      -1.383  12.948  20.425  0.00  0.00    +0.000 C 
ATOM      7  N   UNL     1      -0.287  13.843  19.995  0.00  0.00    +0.000 NA
ATOM      8  C   UNL     1      -0.558  14.410  18.655  0.00  0.00    +0.000 C 
ATOM      9  S   UNL     1       1.315  13.380  20.268  0.00  0.00    +0.000 S 
ATOM     10  O   UNL     1       1.570  13.265  21.687  0.00  0.00    +0.000 OA
ATOM     11  O   UNL     1       2.175  14.198  19.437  0.00  0.00    +0.000 OA
ATOM     12  C   UNL     1       1.297  11.738  19.591  0.00  0.00    +0.000 A 
ATOM     13  C   UNL     1       1.975  11.483  18.393  0.00  0.00    +0.000 A 
ATOM     14  C   UNL     1       2.074  10.174  17.929  0.00  0.00    +0.000 A 
ATOM     15  C   UNL     1       1.542   9.122  18.680  0.00  0.00    +0.000 A 
ATOM     16  C   UNL     1       0.868   9.374  19.879  0.00  0.00    +0.000 A 
ATOM     17  C   UNL     1       0.701  10.694  20.312  0.00  0.00    +0.000 A 
ENDROOT
BRANCH   1  19
ATOM     18  N   UNL     1      -2.543  13.855  23.888  0.00  0.00    +0.000 N 
ATOM     19  C   UNL     1      -2.797  12.624  23.270  0.00  0.00    +0.000 C 
ATOM     20  O   UNL     1      -3.946  12.201  23.131  0.00  0.00    +0.000 OA
BRANCH  18  21
ATOM     21  C   UNL     1      -1.233  14.515  23.923  0.00  0.00    +0.000 C 
ATOM     22  C   UNL     1      -1.049  15.439  25.119  0.00  0.00    +0.000 C 
ENDBRANCH  18  21
BRANCH  18  23
ATOM     23  C   UNL     1      -3.687  14.596  24.422  0.00  0.00    +0.000 C 
BRANCH  23  25
ATOM     24  C   UNL     1      -5.658  15.315  22.957  0.00  0.00    +0.000 C 
ATOM     25  C   UNL     1      -4.261  15.642  23.464  0.00  0.00    +0.000 C 
ENDBRANCH  23  25
ENDBRANCH  18  23
ENDBRANCH   1  19
TORSDOF 4
ENDMDL
MODEL 9
REMARK VINA RESULT:      -5.9      8.028     12.494
REMARK  Name = 
REMARK  7 active torsions:
REMARK  status: ('A' for Active; 'I' for Inactive)
REMARK    1  A    between atoms: C_1  and  C_2
REMARK    2  A    between atoms: C_2  and  C_3
REMARK    3  A    between atoms: C_3  and  N_4
REMARK    4  A    between atoms: N_4  and  C_5
REMARK    5  A    between atoms: C_5  and  C_6
REMARK    6  A    between atoms: C_7  and  C_9
REMARK    7  A    between atoms: N_15  and  C_16
REMARK                            x       y       z     vdW  Elec       q    Type
REMARK                         _______ _______ _______ _____ _____    ______ ____
ROOT
ATOM      1  C   UNL     1      -1.238  12.242  21.587  0.00  0.00    +0.000 A 
ATOM      2  N   UNL     1      -0.268  12.866  22.350  0.00  0.00    +0.000 NA
ATOM      3  C   UNL     1      -0.888  13.834  22.987  0.00  0.00    +0.000 A 
ATOM      4  N   UNL     1      -2.231  13.866  22.709  0.00  0.00    +0.000 N 
ATOM      5  C   UNL     1      -2.470  12.859  21.787  0.00  0.00    +0.000 A 
ATOM      6  C   UNL     1      -3.759  12.664  21.074  0.00  0.00    +0.000 C 
ATOM      7  N   UNL     1      -4.915  12.286  21.917  0.00  0.00    +0.000 NA
ATOM      8  C   UNL     1      -6.191  12.544  21.216  0.00  0.00    +0.000 C 
ATOM      9  S   UNL     1      -4.906  12.681  23.560  0.00  0.00    +0.000 S 
ATOM     10  O   UNL     1      -3.818  12.006  24.233  0.00  0.00    +0.000 OA
ATOM     11  O   UNL     1      -6.259  12.566  24.065  0.00  0.00    +0.000 OA
ATOM     12  C   UNL     1      -4.495  14.408  23.475  0.00  0.00    +0.000 A 
ATOM     13  C   UNL     1      -5.473  15.360  23.786  0.00  0.00    +0.000 A 
ATOM     14  C   UNL     1      -5.121  16.706  23.847  0.00  0.00    +0.000 A 
ATOM     15  C   UNL     1      -3.793  17.092  23.651  0.00  0.00    +0.000 A 
ATOM     16  C   UNL     1      -2.813  16.142  23.345  0.00  0.00    +0.000 A 
ATOM     17  C   UNL     1      -3.176  14.798  23.207  0.00  0.00    +0.000 A 
ENDROOT
BRANCH   1  19
ATOM     18  N   UNL     1      -0.886  11.523  19.243  0.00  0.00    +0.000 N 
ATOM     19  C   UNL     1      -0.969  11.186  20.600  0.00  0.00    +0.000 C 
ATOM     20  O   UNL     1      -0.807  10.026  20.984  0.00  0.00    +0.000 OA
BRANCH  18  21
ATOM     21  C   UNL     1      -0.876  12.896  18.725  0.00  0.00    +0.000 C 
ATOM     22  C   UNL     1       0.524  13.465  18.537  0.00  0.00    +0.000 C 
ENDBRANCH  18  21
BRANCH  18  23
ATOM     23  C   UNL     1      -0.664  10.438  18.286  0.00  0.00    +0.000 C 
BRANCH  23  25
ATOM     24  C   UNL     1      -3.050   9.733  17.690  0.00  0.00    +0.000 C 
ATOM     25  C   UNL     1      -1.737  10.327  17.201  0.00  0.00    +0.000 C 
ENDBRANCH  23  25
ENDBRANCH  18  23
ENDBRANCH   1  19
TORSDOF 4
ENDMDL
