MODEL 1
REMARK VINA RESULT:      -7.7      0.000      0.000
REMARK  Name = 
REMARK  7 active torsions:
REMARK  status: ('A' for Active; 'I' for Inactive)
REMARK    1  A    between atoms: C_1  and  O_2
REMARK    2  A    between atoms: O_2  and  C_3
REMARK    3  A    between atoms: C_8  and  C_9
REMARK    4  A    between atoms: C_10  and  C_11
REMARK    5  A    between atoms: N_13  and  C_14
REMARK    6  A    between atoms: C_14  and  C_15
REMARK    7  A    between atoms: C_15  and  C_16
REMARK                            x       y       z     vdW  Elec       q    Type
REMARK                         _______ _______ _______ _____ _____    ______ ____
ROOT
ATOM      1  C   UNL     1       7.726   7.630  17.877  0.00  0.00    +0.000 C 
ATOM      2  O   UNL     1       8.021   6.827  18.752  0.00  0.00    +0.000 OA
ATOM      3  N   UNL     1       6.915   7.338  16.801  0.00  0.00    +0.000 N 
ATOM      4  H   UNL     1       6.597   8.097  16.214  0.00  0.00    +0.000 HD
ENDROOT
BRANCH   1   6
ATOM      5  C   UNL     1       9.104   9.444  18.778  0.00  0.00    +0.000 C 
ATOM      6  C   UNL     1       8.171   9.047  17.897  0.00  0.00    +0.000 C 
BRANCH   5  12
ATOM      7  C   UNL     1       9.558  11.541  20.173  0.00  0.00    +0.000 A 
ATOM      8  C   UNL     1      10.092  12.836  20.236  0.00  0.00    +0.000 A 
ATOM      9  C   UNL     1      10.684  13.420  19.116  0.00  0.00    +0.000 A 
ATOM     10  C   UNL     1      10.740  12.718  17.918  0.00  0.00    +0.000 A 
ATOM     11  C   UNL     1      10.195  11.435  17.837  0.00  0.00    +0.000 A 
ATOM     12  C   UNL     1       9.583  10.832  18.952  0.00  0.00    +0.000 A 
BRANCH   7  14
ATOM     13  C   UNL     1       8.473  11.761  22.280  0.00  0.00    +0.000 C 
ATOM     14  O   UNL     1       8.985  10.918  21.256  0.00  0.00    +0.000 OA
ENDBRANCH   7  14
ENDBRANCH   5  12
ENDBRANCH   1   6
BRANCH   3  15
ATOM     15  C   UNL     1       6.212   6.065  16.742  0.00  0.00    +0.000 C 
BRANCH  15  16
ATOM     16  C   UNL     1       7.119   4.910  16.327  0.00  0.00    +0.000 C 
BRANCH  16  17
ATOM     17  C   UNL     1       7.094   4.707  14.835  0.00  0.00    +0.000 A 
ATOM     18  C   UNL     1       6.254   3.755  14.262  0.00  0.00    +0.000 A 
ATOM     19  C   UNL     1       6.236   3.615  12.878  0.00  0.00    +0.000 A 
ATOM     20  C   UNL     1       7.053   4.427  12.102  0.00  0.00    +0.000 A 
ATOM     21  C   UNL     1       7.854   5.351  12.748  0.00  0.00    +0.000 A 
ATOM     22  N   UNL     1       7.894   5.507  14.090  0.00  0.00    +0.000 NA
ENDBRANCH  16  17
ENDBRANCH  15  16
ENDBRANCH   3  15
TORSDOF 6
ENDMDL
MODEL 2
REMARK VINA RESULT:      -7.4      5.103      7.469
REMARK  Name = 
REMARK  7 active torsions:
REMARK  status: ('A' for Active; 'I' for Inactive)
REMARK    1  A    between atoms: C_1  and  O_2
REMARK    2  A    between atoms: O_2  and  C_3
REMARK    3  A    between atoms: C_8  and  C_9
REMARK    4  A    between atoms: C_10  and  C_11
REMARK    5  A    between atoms: N_13  and  C_14
REMARK    6  A    between atoms: C_14  and  C_15
REMARK    7  A    between atoms: C_15  and  C_16
REMARK                            x       y       z     vdW  Elec       q    Type
REMARK                         _______ _______ _______ _____ _____    ______ ____
ROOT
ATOM      1  C   UNL     1       2.760   6.796  19.034  0.00  0.00    +0.000 C 
ATOM      2  O   UNL     1       1.908   7.674  19.011  0.00  0.00    +0.000 OA
ATOM      3  N   UNL     1       2.786   5.767  19.951  0.00  0.00    +0.000 N 
ATOM      4  H   UNL     1       3.429   5.002  19.802  0.00  0.00    +0.000 HD
ENDROOT
BRANCH   1   6
ATOM      5  C   UNL     1       4.253   5.503  17.585  0.00  0.00    +0.000 C 
ATOM      6  C   UNL     1       3.851   6.704  18.030  0.00  0.00    +0.000 C 
BRANCH   5  12
ATOM      7  C   UNL     1       6.656   4.823  17.025  0.00  0.00    +0.000 A 
ATOM      8  C   UNL     1       7.625   4.578  16.041  0.00  0.00    +0.000 A 
ATOM      9  C   UNL     1       7.322   4.727  14.688  0.00  0.00    +0.000 A 
ATOM     10  C   UNL     1       6.051   5.134  14.304  0.00  0.00    +0.000 A 
ATOM     11  C   UNL     1       5.083   5.400  15.274  0.00  0.00    +0.000 A 
ATOM     12  C   UNL     1       5.370   5.266  16.645  0.00  0.00    +0.000 A 
BRANCH   7  14
ATOM     13  C   UNL     1       7.683   5.679  18.994  0.00  0.00    +0.000 C 
ATOM     14  O   UNL     1       6.902   4.669  18.368  0.00  0.00    +0.000 OA
ENDBRANCH   7  14
ENDBRANCH   5  12
ENDBRANCH   1   6
BRANCH   3  15
ATOM     15  C   UNL     1       1.670   5.577  20.865  0.00  0.00    +0.000 C 
BRANCH  15  16
ATOM     16  C   UNL     1       1.084   4.169  20.793  0.00  0.00    +0.000 C 
BRANCH  16  17
ATOM     17  C   UNL     1       1.904   3.283  19.894  0.00  0.00    +0.000 A 
ATOM     18  C   UNL     1       1.445   2.940  18.623  0.00  0.00    +0.000 A 
ATOM     19  C   UNL     1       2.243   2.143  17.810  0.00  0.00    +0.000 A 
ATOM     20  C   UNL     1       3.476   1.710  18.279  0.00  0.00    +0.000 A 
ATOM     21  C   UNL     1       3.861   2.099  19.550  0.00  0.00    +0.000 A 
ATOM     22  N   UNL     1       3.106   2.871  20.364  0.00  0.00    +0.000 NA
ENDBRANCH  16  17
ENDBRANCH  15  16
ENDBRANCH   3  15
TORSDOF 6
ENDMDL
MODEL 3
REMARK VINA RESULT:      -7.2      2.208      3.944
REMARK  Name = 
REMARK  7 active torsions:
REMARK  status: ('A' for Active; 'I' for Inactive)
REMARK    1  A    between atoms: C_1  and  O_2
REMARK    2  A    between atoms: O_2  and  C_3
REMARK    3  A    between atoms: C_8  and  C_9
REMARK    4  A    between atoms: C_10  and  C_11
REMARK    5  A    between atoms: N_13  and  C_14
REMARK    6  A    between atoms: C_14  and  C_15
REMARK    7  A    between atoms: C_15  and  C_16
REMARK                            x       y       z     vdW  Elec       q    Type
REMARK                         _______ _______ _______ _____ _____    ______ ____
ROOT
ATOM      1  C   UNL     1       7.871   7.689  17.890  0.00  0.00    +0.000 C 
ATOM      2  O   UNL     1       8.105   6.902  18.797  0.00  0.00    +0.000 OA
ATOM      3  N   UNL     1       7.053   7.410  16.816  0.00  0.00    +0.000 N 
ATOM      4  H   UNL     1       6.791   8.166  16.197  0.00  0.00    +0.000 HD
ENDROOT
BRANCH   1   6
ATOM      5  C   UNL     1       8.987   9.589  18.961  0.00  0.00    +0.000 C 
ATOM      6  C   UNL     1       8.407   9.074  17.864  0.00  0.00    +0.000 C 
BRANCH   5  12
ATOM      7  C   UNL     1       9.572  11.683  20.310  0.00  0.00    +0.000 A 
ATOM      8  C   UNL     1      10.126  12.971  20.328  0.00  0.00    +0.000 A 
ATOM      9  C   UNL     1      10.640  13.544  19.164  0.00  0.00    +0.000 A 
ATOM     10  C   UNL     1      10.596  12.839  17.968  0.00  0.00    +0.000 A 
ATOM     11  C   UNL     1      10.029  11.562  17.933  0.00  0.00    +0.000 A 
ATOM     12  C   UNL     1       9.496  10.971  19.093  0.00  0.00    +0.000 A 
BRANCH   7  14
ATOM     13  C   UNL     1       8.363  11.897  22.349  0.00  0.00    +0.000 C 
ATOM     14  O   UNL     1       9.075  11.071  21.435  0.00  0.00    +0.000 OA
ENDBRANCH   7  14
ENDBRANCH   5  12
ENDBRANCH   1   6
BRANCH   3  15
ATOM     15  C   UNL     1       6.270   6.184  16.795  0.00  0.00    +0.000 C 
BRANCH  15  16
ATOM     16  C   UNL     1       4.818   6.420  16.385  0.00  0.00    +0.000 C 
BRANCH  16  17
ATOM     17  C   UNL     1       3.933   6.592  17.591  0.00  0.00    +0.000 A 
ATOM     18  C   UNL     1       3.072   7.683  17.690  0.00  0.00    +0.000 A 
ATOM     19  C   UNL     1       2.249   7.793  18.805  0.00  0.00    +0.000 A 
ATOM     20  C   UNL     1       2.301   6.816  19.790  0.00  0.00    +0.000 A 
ATOM     21  C   UNL     1       3.180   5.762  19.614  0.00  0.00    +0.000 A 
ATOM     22  N   UNL     1       3.994   5.629  18.542  0.00  0.00    +0.000 NA
ENDBRANCH  16  17
ENDBRANCH  15  16
ENDBRANCH   3  15
TORSDOF 6
ENDMDL
MODEL 4
REMARK VINA RESULT:      -7.2      2.316      3.546
REMARK  Name = 
REMARK  7 active torsions:
REMARK  status: ('A' for Active; 'I' for Inactive)
REMARK    1  A    between atoms: C_1  and  O_2
REMARK    2  A    between atoms: O_2  and  C_3
REMARK    3  A    between atoms: C_8  and  C_9
REMARK    4  A    between atoms: C_10  and  C_11
REMARK    5  A    between atoms: N_13  and  C_14
REMARK    6  A    between atoms: C_14  and  C_15
REMARK    7  A    between atoms: C_15  and  C_16
REMARK                            x       y       z     vdW  Elec       q    Type
REMARK                         _______ _______ _______ _____ _____    ______ ____
ROOT
ATOM      1  C   UNL     1       7.744   7.655  17.889  0.00  0.00    +0.000 C 
ATOM      2  O   UNL     1       8.084   6.833  18.729  0.00  0.00    +0.000 OA
ATOM      3  N   UNL     1       6.821   7.410  16.895  0.00  0.00    +0.000 N 
ATOM      4  H   UNL     1       6.483   8.187  16.345  0.00  0.00    +0.000 HD
ENDROOT
BRANCH   1   6
ATOM      5  C   UNL     1       9.001   9.503  18.892  0.00  0.00    +0.000 C 
ATOM      6  C   UNL     1       8.254   9.050  17.872  0.00  0.00    +0.000 C 
BRANCH   5  12
ATOM      7  C   UNL     1       9.518  11.614  20.243  0.00  0.00    +0.000 A 
ATOM      8  C   UNL     1      10.078  12.900  20.275  0.00  0.00    +0.000 A 
ATOM      9  C   UNL     1      10.666  13.451  19.137  0.00  0.00    +0.000 A 
ATOM     10  C   UNL     1      10.691  12.728  17.951  0.00  0.00    +0.000 A 
ATOM     11  C   UNL     1      10.119  11.455  17.901  0.00  0.00    +0.000 A 
ATOM     12  C   UNL     1       9.511  10.884  19.034  0.00  0.00    +0.000 A 
BRANCH   7  14
ATOM     13  C   UNL     1       8.444  11.895  22.348  0.00  0.00    +0.000 C 
ATOM     14  O   UNL     1       8.948  11.023  21.344  0.00  0.00    +0.000 OA
ENDBRANCH   7  14
ENDBRANCH   5  12
ENDBRANCH   1   6
BRANCH   3  15
ATOM     15  C   UNL     1       6.057   6.170  16.900  0.00  0.00    +0.000 C 
BRANCH  15  16
ATOM     16  C   UNL     1       4.673   6.334  17.521  0.00  0.00    +0.000 C 
BRANCH  16  17
ATOM     17  C   UNL     1       4.146   5.019  18.032  0.00  0.00    +0.000 A 
ATOM     18  C   UNL     1       4.876   4.272  18.954  0.00  0.00    +0.000 A 
ATOM     19  C   UNL     1       4.345   3.076  19.425  0.00  0.00    +0.000 A 
ATOM     20  C   UNL     1       3.103   2.656  18.969  0.00  0.00    +0.000 A 
ATOM     21  C   UNL     1       2.440   3.458  18.057  0.00  0.00    +0.000 A 
ATOM     22  N   UNL     1       2.932   4.624  17.580  0.00  0.00    +0.000 NA
ENDBRANCH  16  17
ENDBRANCH  15  16
ENDBRANCH   3  15
TORSDOF 6
ENDMDL
MODEL 5
REMARK VINA RESULT:      -7.1      2.632      3.563
REMARK  Name = 
REMARK  7 active torsions:
REMARK  status: ('A' for Active; 'I' for Inactive)
REMARK    1  A    between atoms: C_1  and  O_2
REMARK    2  A    between atoms: O_2  and  C_3
REMARK    3  A    between atoms: C_8  and  C_9
REMARK    4  A    between atoms: C_10  and  C_11
REMARK    5  A    between atoms: N_13  and  C_14
REMARK    6  A    between atoms: C_14  and  C_15
REMARK    7  A    between atoms: C_15  and  C_16
REMARK                            x       y       z     vdW  Elec       q    Type
REMARK                         _______ _______ _______ _____ _____    ______ ____
ROOT
ATOM      1  C   UNL     1       7.618   7.828  17.825  0.00  0.00    +0.000 C 
ATOM      2  O   UNL     1       6.817   8.251  17.004  0.00  0.00    +0.000 OA
ATOM      3  N   UNL     1       7.653   6.523  18.271  0.00  0.00    +0.000 N 
ATOM      4  H   UNL     1       8.442   6.222  18.827  0.00  0.00    +0.000 HD
ENDROOT
BRANCH   1   6
ATOM      5  C   UNL     1       8.659  10.001  18.264  0.00  0.00    +0.000 C 
ATOM      6  C   UNL     1       8.696   8.667  18.409  0.00  0.00    +0.000 C 
BRANCH   5  12
ATOM      7  C   UNL     1       9.885  11.325  20.079  0.00  0.00    +0.000 A 
ATOM      8  C   UNL     1      10.940  12.185  20.418  0.00  0.00    +0.000 A 
ATOM      9  C   UNL     1      11.832  12.637  19.446  0.00  0.00    +0.000 A 
ATOM     10  C   UNL     1      11.674  12.243  18.124  0.00  0.00    +0.000 A 
ATOM     11  C   UNL     1      10.616  11.403  17.770  0.00  0.00    +0.000 A 
ATOM     12  C   UNL     1       9.698  10.944  18.732  0.00  0.00    +0.000 A 
BRANCH   7  14
ATOM     13  C   UNL     1       8.623  11.718  22.059  0.00  0.00    +0.000 C 
ATOM     14  O   UNL     1       8.995  10.837  21.006  0.00  0.00    +0.000 OA
ENDBRANCH   7  14
ENDBRANCH   5  12
ENDBRANCH   1   6
BRANCH   3  15
ATOM     15  C   UNL     1       6.816   5.514  17.639  0.00  0.00    +0.000 C 
BRANCH  15  16
ATOM     16  C   UNL     1       6.059   4.659  18.652  0.00  0.00    +0.000 C 
BRANCH  16  17
ATOM     17  C   UNL     1       4.580   4.664  18.371  0.00  0.00    +0.000 A 
ATOM     18  C   UNL     1       3.867   5.861  18.338  0.00  0.00    +0.000 A 
ATOM     19  C   UNL     1       2.508   5.829  18.047  0.00  0.00    +0.000 A 
ATOM     20  C   UNL     1       1.894   4.609  17.795  0.00  0.00    +0.000 A 
ATOM     21  C   UNL     1       2.673   3.467  17.843  0.00  0.00    +0.000 A 
ATOM     22  N   UNL     1       3.995   3.467  18.125  0.00  0.00    +0.000 NA
ENDBRANCH  16  17
ENDBRANCH  15  16
ENDBRANCH   3  15
TORSDOF 6
ENDMDL
MODEL 6
REMARK VINA RESULT:      -7.1      7.070      9.869
REMARK  Name = 
REMARK  7 active torsions:
REMARK  status: ('A' for Active; 'I' for Inactive)
REMARK    1  A    between atoms: C_1  and  O_2
REMARK    2  A    between atoms: O_2  and  C_3
REMARK    3  A    between atoms: C_8  and  C_9
REMARK    4  A    between atoms: C_10  and  C_11
REMARK    5  A    between atoms: N_13  and  C_14
REMARK    6  A    between atoms: C_14  and  C_15
REMARK    7  A    between atoms: C_15  and  C_16
REMARK                            x       y       z     vdW  Elec       q    Type
REMARK                         _______ _______ _______ _____ _____    ______ ____
ROOT
ATOM      1  C   UNL     1       1.579   8.957  18.662  0.00  0.00    +0.000 C 
ATOM      2  O   UNL     1       1.544   8.837  19.879  0.00  0.00    +0.000 OA
ATOM      3  N   UNL     1       0.887   9.921  17.959  0.00  0.00    +0.000 N 
ATOM      4  H   UNL     1       1.094  10.047  16.978  0.00  0.00    +0.000 HD
ENDROOT
BRANCH   1   6
ATOM      5  C   UNL     1       2.917   6.944  18.263  0.00  0.00    +0.000 C 
ATOM      6  C   UNL     1       2.422   8.099  17.790  0.00  0.00    +0.000 C 
BRANCH   5  12
ATOM      7  C   UNL     1       3.798   4.627  17.629  0.00  0.00    +0.000 A 
ATOM      8  C   UNL     1       4.668   3.858  16.843  0.00  0.00    +0.000 A 
ATOM      9  C   UNL     1       5.531   4.466  15.931  0.00  0.00    +0.000 A 
ATOM     10  C   UNL     1       5.541   5.849  15.803  0.00  0.00    +0.000 A 
ATOM     11  C   UNL     1       4.693   6.627  16.595  0.00  0.00    +0.000 A 
ATOM     12  C   UNL     1       3.823   6.035  17.528  0.00  0.00    +0.000 A 
BRANCH   7  14
ATOM     13  C   UNL     1       1.816   3.354  17.975  0.00  0.00    +0.000 C 
ATOM     14  O   UNL     1       2.916   4.071  18.524  0.00  0.00    +0.000 OA
ENDBRANCH   7  14
ENDBRANCH   5  12
ENDBRANCH   1   6
BRANCH   3  15
ATOM     15  C   UNL     1       0.190  10.982  18.671  0.00  0.00    +0.000 C 
BRANCH  15  16
ATOM     16  C   UNL     1      -1.216  10.576  19.104  0.00  0.00    +0.000 C 
BRANCH  16  17
ATOM     17  C   UNL     1      -2.179  10.631  17.948  0.00  0.00    +0.000 A 
ATOM     18  C   UNL     1      -3.310  11.443  18.003  0.00  0.00    +0.000 A 
ATOM     19  C   UNL     1      -4.162  11.489  16.905  0.00  0.00    +0.000 A 
ATOM     20  C   UNL     1      -3.866  10.730  15.781  0.00  0.00    +0.000 A 
ATOM     21  C   UNL     1      -2.721   9.954  15.804  0.00  0.00    +0.000 A 
ATOM     22  N   UNL     1      -1.876   9.887  16.857  0.00  0.00    +0.000 NA
ENDBRANCH  16  17
ENDBRANCH  15  16
ENDBRANCH   3  15
TORSDOF 6
ENDMDL
MODEL 7
REMARK VINA RESULT:      -6.9      2.092      3.401
REMARK  Name = 
REMARK  7 active torsions:
REMARK  status: ('A' for Active; 'I' for Inactive)
REMARK    1  A    between atoms: C_1  and  O_2
REMARK    2  A    between atoms: O_2  and  C_3
REMARK    3  A    between atoms: C_8  and  C_9
REMARK    4  A    between atoms: C_10  and  C_11
REMARK    5  A    between atoms: N_13  and  C_14
REMARK    6  A    between atoms: C_14  and  C_15
REMARK    7  A    between atoms: C_15  and  C_16
REMARK                            x       y       z     vdW  Elec       q    Type
REMARK                         _______ _______ _______ _____ _____    ______ ____
ROOT
ATOM      1  C   UNL     1       8.022   7.828  17.948  0.00  0.00    +0.000 C 
ATOM      2  O   UNL     1       8.453   7.080  18.815  0.00  0.00    +0.000 OA
ATOM      3  N   UNL     1       7.206   7.422  16.913  0.00  0.00    +0.000 N 
ATOM      4  H   UNL     1       6.771   8.128  16.334  0.00  0.00    +0.000 HD
ENDROOT
BRANCH   1   6
ATOM      5  C   UNL     1       9.078   9.834  18.875  0.00  0.00    +0.000 C 
ATOM      6  C   UNL     1       8.289   9.289  17.936  0.00  0.00    +0.000 C 
BRANCH   5  12
ATOM      7  C   UNL     1       9.278  11.993  20.234  0.00  0.00    +0.000 A 
ATOM      8  C   UNL     1       9.631  13.350  20.267  0.00  0.00    +0.000 A 
ATOM      9  C   UNL     1      10.108  13.992  19.124  0.00  0.00    +0.000 A 
ATOM     10  C   UNL     1      10.228  13.287  17.933  0.00  0.00    +0.000 A 
ATOM     11  C   UNL     1       9.861  11.941  17.882  0.00  0.00    +0.000 A 
ATOM     12  C   UNL     1       9.368  11.277  19.020  0.00  0.00    +0.000 A 
BRANCH   7  14
ATOM     13  C   UNL     1       8.719  12.059  22.546  0.00  0.00    +0.000 C 
ATOM     14  O   UNL     1       8.825  11.314  21.339  0.00  0.00    +0.000 OA
ENDBRANCH   7  14
ENDBRANCH   5  12
ENDBRANCH   1   6
BRANCH   3  15
ATOM     15  C   UNL     1       6.664   6.072  16.898  0.00  0.00    +0.000 C 
BRANCH  15  16
ATOM     16  C   UNL     1       5.319   5.985  16.182  0.00  0.00    +0.000 C 
BRANCH  16  17
ATOM     17  C   UNL     1       4.227   5.554  17.125  0.00  0.00    +0.000 A 
ATOM     18  C   UNL     1       3.960   4.202  17.332  0.00  0.00    +0.000 A 
ATOM     19  C   UNL     1       2.964   3.840  18.231  0.00  0.00    +0.000 A 
ATOM     20  C   UNL     1       2.260   4.831  18.903  0.00  0.00    +0.000 A 
ATOM     21  C   UNL     1       2.590   6.150  18.645  0.00  0.00    +0.000 A 
ATOM     22  N   UNL     1       3.552   6.531  17.775  0.00  0.00    +0.000 NA
ENDBRANCH  16  17
ENDBRANCH  15  16
ENDBRANCH   3  15
TORSDOF 6
ENDMDL
MODEL 8
REMARK VINA RESULT:      -6.9      6.353      7.913
REMARK  Name = 
REMARK  7 active torsions:
REMARK  status: ('A' for Active; 'I' for Inactive)
REMARK    1  A    between atoms: C_1  and  O_2
REMARK    2  A    between atoms: O_2  and  C_3
REMARK    3  A    between atoms: C_8  and  C_9
REMARK    4  A    between atoms: C_10  and  C_11
REMARK    5  A    between atoms: N_13  and  C_14
REMARK    6  A    between atoms: C_14  and  C_15
REMARK    7  A    between atoms: C_15  and  C_16
REMARK                            x       y       z     vdW  Elec       q    Type
REMARK                         _______ _______ _______ _____ _____    ______ ____
ROOT
ATOM      1  C   UNL     1       4.140   5.716  18.213  0.00  0.00    +0.000 C 
ATOM      2  O   UNL     1       4.983   5.561  19.086  0.00  0.00    +0.000 OA
ATOM      3  N   UNL     1       3.846   4.776  17.248  0.00  0.00    +0.000 N 
ATOM      4  H   UNL     1       3.032   4.919  16.665  0.00  0.00    +0.000 HD
ENDROOT
BRANCH   1   6
ATOM      5  C   UNL     1       2.532   7.299  19.165  0.00  0.00    +0.000 C 
ATOM      6  C   UNL     1       3.288   6.928  18.119  0.00  0.00    +0.000 C 
BRANCH   5  12
ATOM      7  C   UNL     1       1.020   8.989  20.350  0.00  0.00    +0.000 A 
ATOM      8  C   UNL     1       0.179  10.108  20.253  0.00  0.00    +0.000 A 
ATOM      9  C   UNL     1      -0.069  10.708  19.019  0.00  0.00    +0.000 A 
ATOM     10  C   UNL     1       0.511  10.191  17.867  0.00  0.00    +0.000 A 
ATOM     11  C   UNL     1       1.334   9.066  17.949  0.00  0.00    +0.000 A 
ATOM     12  C   UNL     1       1.589   8.438  19.181  0.00  0.00    +0.000 A 
BRANCH   7  14
ATOM     13  C   UNL     1       1.132   9.159  22.722  0.00  0.00    +0.000 C 
ATOM     14  O   UNL     1       1.311   8.379  21.546  0.00  0.00    +0.000 OA
ENDBRANCH   7  14
ENDBRANCH   5  12
ENDBRANCH   1   6
BRANCH   3  15
ATOM     15  C   UNL     1       4.426   3.444  17.325  0.00  0.00    +0.000 C 
BRANCH  15  16
ATOM     16  C   UNL     1       3.401   2.376  17.695  0.00  0.00    +0.000 C 
BRANCH  16  17
ATOM     17  C   UNL     1       2.691   2.722  18.977  0.00  0.00    +0.000 A 
ATOM     18  C   UNL     1       3.277   2.446  20.210  0.00  0.00    +0.000 A 
ATOM     19  C   UNL     1       2.605   2.806  21.373  0.00  0.00    +0.000 A 
ATOM     20  C   UNL     1       1.369   3.433  21.279  0.00  0.00    +0.000 A 
ATOM     21  C   UNL     1       0.858   3.676  20.016  0.00  0.00    +0.000 A 
ATOM     22  N   UNL     1       1.488   3.335  18.869  0.00  0.00    +0.000 NA
ENDBRANCH  16  17
ENDBRANCH  15  16
ENDBRANCH   3  15
TORSDOF 6
ENDMDL
MODEL 9
REMARK VINA RESULT:      -6.8      3.113      4.165
REMARK  Name = 
REMARK  7 active torsions:
REMARK  status: ('A' for Active; 'I' for Inactive)
REMARK    1  A    between atoms: C_1  and  O_2
REMARK    2  A    between atoms: O_2  and  C_3
REMARK    3  A    between atoms: C_8  and  C_9
REMARK    4  A    between atoms: C_10  and  C_11
REMARK    5  A    between atoms: N_13  and  C_14
REMARK    6  A    between atoms: C_14  and  C_15
REMARK    7  A    between atoms: C_15  and  C_16
REMARK                            x       y       z     vdW  Elec       q    Type
REMARK                         _______ _______ _______ _____ _____    ______ ____
ROOT
ATOM      1  C   UNL     1       7.425   7.444  17.378  0.00  0.00    +0.000 C 
ATOM      2  O   UNL     1       7.776   6.797  16.401  0.00  0.00    +0.000 OA
ATOM      3  N   UNL     1       6.204   7.302  18.001  0.00  0.00    +0.000 N 
ATOM      4  H   UNL     1       6.057   7.761  18.890  0.00  0.00    +0.000 HD
ENDROOT
BRANCH   1   6
ATOM      5  C   UNL     1       8.108   9.749  17.845  0.00  0.00    +0.000 C 
ATOM      6  C   UNL     1       8.304   8.437  18.047  0.00  0.00    +0.000 C 
BRANCH   5  12
ATOM      7  C   UNL     1       8.808  12.202  18.060  0.00  0.00    +0.000 A 
ATOM      8  C   UNL     1       9.626  13.156  18.682  0.00  0.00    +0.000 A 
ATOM      9  C   UNL     1      10.552  12.778  19.654  0.00  0.00    +0.000 A 
ATOM     10  C   UNL     1      10.678  11.440  20.007  0.00  0.00    +0.000 A 
ATOM     11  C   UNL     1       9.882  10.478  19.381  0.00  0.00    +0.000 A 
ATOM     12  C   UNL     1       8.950  10.836  18.391  0.00  0.00    +0.000 A 
BRANCH   7  14
ATOM     13  C   UNL     1       7.028  13.642  17.407  0.00  0.00    +0.000 C 
ATOM     14  O   UNL     1       7.867  12.530  17.114  0.00  0.00    +0.000 OA
ENDBRANCH   7  14
ENDBRANCH   5  12
ENDBRANCH   1   6
BRANCH   3  15
ATOM     15  C   UNL     1       5.309   6.220  17.615  0.00  0.00    +0.000 C 
BRANCH  15  16
ATOM     16  C   UNL     1       5.153   5.168  18.709  0.00  0.00    +0.000 C 
BRANCH  16  17
ATOM     17  C   UNL     1       3.920   4.331  18.488  0.00  0.00    +0.000 A 
ATOM     18  C   UNL     1       2.740   4.913  18.028  0.00  0.00    +0.000 A 
ATOM     19  C   UNL     1       1.630   4.105  17.807  0.00  0.00    +0.000 A 
ATOM     20  C   UNL     1       1.723   2.741  18.048  0.00  0.00    +0.000 A 
ATOM     21  C   UNL     1       2.932   2.241  18.499  0.00  0.00    +0.000 A 
ATOM     22  N   UNL     1       4.026   3.002  18.724  0.00  0.00    +0.000 NA
ENDBRANCH  16  17
ENDBRANCH  15  16
ENDBRANCH   3  15
TORSDOF 6
ENDMDL
