MODEL 1
REMARK VINA RESULT:      -8.8      0.000      0.000
REMARK  Name = 
REMARK  13 active torsions:
REMARK  status: ('A' for Active; 'I' for Inactive)
REMARK    1  A    between atoms: C_1  and  O_2
REMARK    2  A    between atoms: O_2  and  C_3
REMARK    3  A    between atoms: C_6  and  C_7
REMARK    4  A    between atoms: C_7  and  O_8
REMARK    5  A    between atoms: O_8  and  C_9
REMARK    6  A    between atoms: C_11  and  C_12
REMARK    7  A    between atoms: N_14  and  C_15
REMARK    8  A    between atoms: C_15  and  C_16
REMARK    9  A    between atoms: C_15  and  C_17
REMARK   10  A    between atoms: C_20  and  C_21
REMARK   11  A    between atoms: C_20  and  C_22
REMARK   12  A    between atoms: C_25  and  O_26
REMARK   13  A    between atoms: O_26  and  C_27
REMARK                            x       y       z     vdW  Elec       q    Type
REMARK                         _______ _______ _______ _____ _____    ______ ____
ROOT
ATOM      1  C   UNL     1       2.871   5.373  19.064  0.00  0.00    +0.000 A 
ATOM      2  C   UNL     1       3.855   5.455  18.065  0.00  0.00    +0.000 A 
ATOM      3  C   UNL     1       4.242   4.339  17.323  0.00  0.00    +0.000 A 
ATOM      4  C   UNL     1       3.622   3.118  17.581  0.00  0.00    +0.000 A 
ATOM      5  C   UNL     1       2.625   3.026  18.558  0.00  0.00    +0.000 A 
ATOM      6  C   UNL     1       2.240   4.146  19.316  0.00  0.00    +0.000 A 
ENDROOT
BRANCH   3   7
ATOM      7  C   UNL     1       5.244   4.395  16.230  0.00  0.00    +0.000 C 
ATOM      8  N   UNL     1       5.058   3.814  15.078  0.00  0.00    +0.000 NA
ATOM      9  N   UNL     1       6.092   4.210  14.258  0.00  0.00    +0.000 N 
ATOM     10  C   UNL     1       6.985   5.100  14.856  0.00  0.00    +0.000 C 
ATOM     11  O   UNL     1       7.952   5.647  14.352  0.00  0.00    +0.000 OA
ATOM     12  C   UNL     1       6.566   5.154  16.314  0.00  0.00    +0.000 C 
ATOM     13  C   UNL     1       7.628   4.357  17.078  0.00  0.00    +0.000 C 
ATOM     14  C   UNL     1       6.433   6.594  16.786  0.00  0.00    +0.000 C 
BRANCH   9  15
ATOM     15  C   UNL     1       6.330   3.601  12.954  0.00  0.00    +0.000 C 
ATOM     16  C   UNL     1       5.000   3.381  12.226  0.00  0.00    +0.000 C 
ATOM     17  C   UNL     1       7.288   4.404  12.079  0.00  0.00    +0.000 C 
ENDBRANCH   9  15
ENDBRANCH   3   7
BRANCH   6  18
ATOM     18  O   UNL     1       1.234   4.102  20.245  0.00  0.00    +0.000 OA
ATOM     19  C   UNL     1       1.245   2.996  21.147  0.00  0.00    +0.000 C 
ENDBRANCH   6  18
BRANCH   1  20
ATOM     20  O   UNL     1       2.629   6.593  19.639  0.00  0.00    +0.000 OA
BRANCH  20  21
ATOM     21  C   UNL     1       2.147   7.666  18.831  0.00  0.00    +0.000 C 
BRANCH  21  25
ATOM     22  C   UNL     1       0.384  10.630  21.484  0.00  0.00    +0.000 A 
ATOM     23  C   UNL     1       0.771   9.380  21.969  0.00  0.00    +0.000 A 
ATOM     24  C   UNL     1       1.351   8.428  21.118  0.00  0.00    +0.000 A 
ATOM     25  C   UNL     1       1.536   8.707  19.758  0.00  0.00    +0.000 A 
ATOM     26  C   UNL     1       1.128   9.959  19.274  0.00  0.00    +0.000 A 
ATOM     27  C   UNL     1       0.558  10.914  20.130  0.00  0.00    +0.000 A 
BRANCH  22  29
ATOM     28  C   UNL     1      -1.316  10.952  23.106  0.00  0.00    +0.000 C 
ATOM     29  O   UNL     1      -0.186  11.462  22.409  0.00  0.00    +0.000 OA
ENDBRANCH  22  29
ENDBRANCH  21  25
ENDBRANCH  20  21
ENDBRANCH   1  20
TORSDOF 7
ENDMDL
MODEL 2
REMARK VINA RESULT:      -8.7      0.887      1.057
REMARK  Name = 
REMARK  13 active torsions:
REMARK  status: ('A' for Active; 'I' for Inactive)
REMARK    1  A    between atoms: C_1  and  O_2
REMARK    2  A    between atoms: O_2  and  C_3
REMARK    3  A    between atoms: C_6  and  C_7
REMARK    4  A    between atoms: C_7  and  O_8
REMARK    5  A    between atoms: O_8  and  C_9
REMARK    6  A    between atoms: C_11  and  C_12
REMARK    7  A    between atoms: N_14  and  C_15
REMARK    8  A    between atoms: C_15  and  C_16
REMARK    9  A    between atoms: C_15  and  C_17
REMARK   10  A    between atoms: C_20  and  C_21
REMARK   11  A    between atoms: C_20  and  C_22
REMARK   12  A    between atoms: C_25  and  O_26
REMARK   13  A    between atoms: O_26  and  C_27
REMARK                            x       y       z     vdW  Elec       q    Type
REMARK                         _______ _______ _______ _____ _____    ______ ____
ROOT
ATOM      1  C   UNL     1       2.654   5.335  18.983  0.00  0.00    +0.000 A 
ATOM      2  C   UNL     1       3.648   5.447  17.996  0.00  0.00    +0.000 A 
ATOM      3  C   UNL     1       4.211   4.323  17.392  0.00  0.00    +0.000 A 
ATOM      4  C   UNL     1       3.762   3.062  17.778  0.00  0.00    +0.000 A 
ATOM      5  C   UNL     1       2.758   2.936  18.744  0.00  0.00    +0.000 A 
ATOM      6  C   UNL     1       2.195   4.066  19.364  0.00  0.00    +0.000 A 
ENDROOT
BRANCH   3   7
ATOM      7  C   UNL     1       5.229   4.401  16.315  0.00  0.00    +0.000 C 
ATOM      8  N   UNL     1       5.061   3.841  15.149  0.00  0.00    +0.000 NA
ATOM      9  N   UNL     1       6.105   4.254  14.352  0.00  0.00    +0.000 N 
ATOM     10  C   UNL     1       6.988   5.134  14.980  0.00  0.00    +0.000 C 
ATOM     11  O   UNL     1       7.961   5.692  14.500  0.00  0.00    +0.000 OA
ATOM     12  C   UNL     1       6.548   5.160  16.433  0.00  0.00    +0.000 C 
ATOM     13  C   UNL     1       7.600   4.351  17.197  0.00  0.00    +0.000 C 
ATOM     14  C   UNL     1       6.406   6.591  16.930  0.00  0.00    +0.000 C 
BRANCH   9  15
ATOM     15  C   UNL     1       6.363   3.670  13.041  0.00  0.00    +0.000 C 
ATOM     16  C   UNL     1       5.041   3.383  12.324  0.00  0.00    +0.000 C 
ATOM     17  C   UNL     1       7.267   4.533  12.164  0.00  0.00    +0.000 C 
ENDBRANCH   9  15
ENDBRANCH   3   7
BRANCH   6  18
ATOM     18  O   UNL     1       1.177   3.981  20.277  0.00  0.00    +0.000 OA
ATOM     19  C   UNL     1       1.324   3.007  21.310  0.00  0.00    +0.000 C 
ENDBRANCH   6  18
BRANCH   1  20
ATOM     20  O   UNL     1       2.225   6.564  19.412  0.00  0.00    +0.000 OA
BRANCH  20  21
ATOM     21  C   UNL     1       2.450   7.710  18.592  0.00  0.00    +0.000 C 
BRANCH  21  25
ATOM     22  C   UNL     1      -0.341  10.797  19.863  0.00  0.00    +0.000 A 
ATOM     23  C   UNL     1       0.188   9.892  20.784  0.00  0.00    +0.000 A 
ATOM     24  C   UNL     1       1.097   8.904  20.378  0.00  0.00    +0.000 A 
ATOM     25  C   UNL     1       1.479   8.795  19.035  0.00  0.00    +0.000 A 
ATOM     26  C   UNL     1       0.929   9.697  18.112  0.00  0.00    +0.000 A 
ATOM     27  C   UNL     1       0.027  10.692  18.522  0.00  0.00    +0.000 A 
BRANCH  22  29
ATOM     28  C   UNL     1      -2.246  12.162  19.498  0.00  0.00    +0.000 C 
ATOM     29  O   UNL     1      -1.231  11.699  20.380  0.00  0.00    +0.000 OA
ENDBRANCH  22  29
ENDBRANCH  21  25
ENDBRANCH  20  21
ENDBRANCH   1  20
TORSDOF 7
ENDMDL
MODEL 3
REMARK VINA RESULT:      -8.7      1.073      1.602
REMARK  Name = 
REMARK  13 active torsions:
REMARK  status: ('A' for Active; 'I' for Inactive)
REMARK    1  A    between atoms: C_1  and  O_2
REMARK    2  A    between atoms: O_2  and  C_3
REMARK    3  A    between atoms: C_6  and  C_7
REMARK    4  A    between atoms: C_7  and  O_8
REMARK    5  A    between atoms: O_8  and  C_9
REMARK    6  A    between atoms: C_11  and  C_12
REMARK    7  A    between atoms: N_14  and  C_15
REMARK    8  A    between atoms: C_15  and  C_16
REMARK    9  A    between atoms: C_15  and  C_17
REMARK   10  A    between atoms: C_20  and  C_21
REMARK   11  A    between atoms: C_20  and  C_22
REMARK   12  A    between atoms: C_25  and  O_26
REMARK   13  A    between atoms: O_26  and  C_27
REMARK                            x       y       z     vdW  Elec       q    Type
REMARK                         _______ _______ _______ _____ _____    ______ ____
ROOT
ATOM      1  C   UNL     1       2.592   4.959  18.775  0.00  0.00    +0.000 A 
ATOM      2  C   UNL     1       3.636   5.149  17.853  0.00  0.00    +0.000 A 
ATOM      3  C   UNL     1       4.138   4.097  17.087  0.00  0.00    +0.000 A 
ATOM      4  C   UNL     1       3.575   2.832  17.239  0.00  0.00    +0.000 A 
ATOM      5  C   UNL     1       2.521   2.633  18.137  0.00  0.00    +0.000 A 
ATOM      6  C   UNL     1       2.020   3.687  18.920  0.00  0.00    +0.000 A 
ENDROOT
BRANCH   3   7
ATOM      7  C   UNL     1       5.207   4.267  16.072  0.00  0.00    +0.000 C 
ATOM      8  N   UNL     1       5.145   3.720  14.890  0.00  0.00    +0.000 NA
ATOM      9  N   UNL     1       6.202   4.221  14.161  0.00  0.00    +0.000 N 
ATOM     10  C   UNL     1       6.983   5.147  14.853  0.00  0.00    +0.000 C 
ATOM     11  O   UNL     1       7.940   5.782  14.439  0.00  0.00    +0.000 OA
ATOM     12  C   UNL     1       6.461   5.114  16.278  0.00  0.00    +0.000 C 
ATOM     13  C   UNL     1       7.522   4.365  17.089  0.00  0.00    +0.000 C 
ATOM     14  C   UNL     1       6.189   6.522  16.788  0.00  0.00    +0.000 C 
BRANCH   9  15
ATOM     15  C   UNL     1       6.574   3.682  12.858  0.00  0.00    +0.000 C 
ATOM     16  C   UNL     1       5.332   3.156  12.132  0.00  0.00    +0.000 C 
ATOM     17  C   UNL     1       7.317   4.686  11.980  0.00  0.00    +0.000 C 
ENDBRANCH   9  15
ENDBRANCH   3   7
BRANCH   6  18
ATOM     18  O   UNL     1       0.957   3.538  19.772  0.00  0.00    +0.000 OA
ATOM     19  C   UNL     1       1.258   3.104  21.099  0.00  0.00    +0.000 C 
ENDBRANCH   6  18
BRANCH   1  20
ATOM     20  O   UNL     1       2.240   6.131  19.391  0.00  0.00    +0.000 OA
BRANCH  20  21
ATOM     21  C   UNL     1       2.751   7.366  18.892  0.00  0.00    +0.000 C 
BRANCH  21  25
ATOM     22  C   UNL     1      -0.320  10.404  19.413  0.00  0.00    +0.000 A 
ATOM     23  C   UNL     1       0.174  10.100  18.143  0.00  0.00    +0.000 A 
ATOM     24  C   UNL     1       1.155   9.113  17.972  0.00  0.00    +0.000 A 
ATOM     25  C   UNL     1       1.672   8.423  19.076  0.00  0.00    +0.000 A 
ATOM     26  C   UNL     1       1.183   8.746  20.351  0.00  0.00    +0.000 A 
ATOM     27  C   UNL     1       0.194   9.728  20.519  0.00  0.00    +0.000 A 
BRANCH  22  29
ATOM     28  C   UNL     1      -1.678  11.918  18.193  0.00  0.00    +0.000 C 
ATOM     29  O   UNL     1      -1.260  11.398  19.449  0.00  0.00    +0.000 OA
ENDBRANCH  22  29
ENDBRANCH  21  25
ENDBRANCH  20  21
ENDBRANCH   1  20
TORSDOF 7
ENDMDL
MODEL 4
REMARK VINA RESULT:      -8.5      1.159      1.766
REMARK  Name = 
REMARK  13 active torsions:
REMARK  status: ('A' for Active; 'I' for Inactive)
REMARK    1  A    between atoms: C_1  and  O_2
REMARK    2  A    between atoms: O_2  and  C_3
REMARK    3  A    between atoms: C_6  and  C_7
REMARK    4  A    between atoms: C_7  and  O_8
REMARK    5  A    between atoms: O_8  and  C_9
REMARK    6  A    between atoms: C_11  and  C_12
REMARK    7  A    between atoms: N_14  and  C_15
REMARK    8  A    between atoms: C_15  and  C_16
REMARK    9  A    between atoms: C_15  and  C_17
REMARK   10  A    between atoms: C_20  and  C_21
REMARK   11  A    between atoms: C_20  and  C_22
REMARK   12  A    between atoms: C_25  and  O_26
REMARK   13  A    between atoms: O_26  and  C_27
REMARK                            x       y       z     vdW  Elec       q    Type
REMARK                         _______ _______ _______ _____ _____    ______ ____
ROOT
ATOM      1  C   UNL     1       2.406   4.705  18.641  0.00  0.00    +0.000 A 
ATOM      2  C   UNL     1       3.398   4.949  17.675  0.00  0.00    +0.000 A 
ATOM      3  C   UNL     1       4.215   3.928  17.190  0.00  0.00    +0.000 A 
ATOM      4  C   UNL     1       4.027   2.635  17.674  0.00  0.00    +0.000 A 
ATOM      5  C   UNL     1       3.030   2.374  18.620  0.00  0.00    +0.000 A 
ATOM      6  C   UNL     1       2.212   3.402  19.121  0.00  0.00    +0.000 A 
ENDROOT
BRANCH   3   7
ATOM      7  C   UNL     1       5.241   4.137  16.139  0.00  0.00    +0.000 C 
ATOM      8  N   UNL     1       5.154   3.594  14.956  0.00  0.00    +0.000 NA
ATOM      9  N   UNL     1       6.168   4.132  14.193  0.00  0.00    +0.000 N 
ATOM     10  C   UNL     1       6.944   5.078  14.863  0.00  0.00    +0.000 C 
ATOM     11  O   UNL     1       7.865   5.745  14.419  0.00  0.00    +0.000 OA
ATOM     12  C   UNL     1       6.474   5.021  16.305  0.00  0.00    +0.000 C 
ATOM     13  C   UNL     1       7.587   4.301  17.073  0.00  0.00    +0.000 C 
ATOM     14  C   UNL     1       6.178   6.417  16.834  0.00  0.00    +0.000 C 
BRANCH   9  15
ATOM     15  C   UNL     1       6.510   3.612  12.874  0.00  0.00    +0.000 C 
ATOM     16  C   UNL     1       5.238   3.207  12.122  0.00  0.00    +0.000 C 
ATOM     17  C   UNL     1       7.334   4.586  12.038  0.00  0.00    +0.000 C 
ENDBRANCH   9  15
ENDBRANCH   3   7
BRANCH   6  18
ATOM     18  O   UNL     1       1.194   3.173  20.009  0.00  0.00    +0.000 OA
ATOM     19  C   UNL     1       1.572   2.761  21.322  0.00  0.00    +0.000 C 
ENDBRANCH   6  18
BRANCH   1  20
ATOM     20  O   UNL     1       1.706   5.843  18.946  0.00  0.00    +0.000 OA
BRANCH  20  21
ATOM     21  C   UNL     1       2.112   6.640  20.057  0.00  0.00    +0.000 C 
BRANCH  21  25
ATOM     22  C   UNL     1       1.005  10.763  19.218  0.00  0.00    +0.000 A 
ATOM     23  C   UNL     1       1.564   9.959  18.224  0.00  0.00    +0.000 A 
ATOM     24  C   UNL     1       1.910   8.626  18.489  0.00  0.00    +0.000 A 
ATOM     25  C   UNL     1       1.718   8.080  19.764  0.00  0.00    +0.000 A 
ATOM     26  C   UNL     1       1.172   8.900  20.764  0.00  0.00    +0.000 A 
ATOM     27  C   UNL     1       0.817  10.231  20.493  0.00  0.00    +0.000 A 
BRANCH  22  29
ATOM     28  C   UNL     1       1.845  12.853  18.476  0.00  0.00    +0.000 C 
ATOM     29  O   UNL     1       0.730  12.049  18.839  0.00  0.00    +0.000 OA
ENDBRANCH  22  29
ENDBRANCH  21  25
ENDBRANCH  20  21
ENDBRANCH   1  20
TORSDOF 7
ENDMDL
MODEL 5
REMARK VINA RESULT:      -8.4      0.649      1.130
REMARK  Name = 
REMARK  13 active torsions:
REMARK  status: ('A' for Active; 'I' for Inactive)
REMARK    1  A    between atoms: C_1  and  O_2
REMARK    2  A    between atoms: O_2  and  C_3
REMARK    3  A    between atoms: C_6  and  C_7
REMARK    4  A    between atoms: C_7  and  O_8
REMARK    5  A    between atoms: O_8  and  C_9
REMARK    6  A    between atoms: C_11  and  C_12
REMARK    7  A    between atoms: N_14  and  C_15
REMARK    8  A    between atoms: C_15  and  C_16
REMARK    9  A    between atoms: C_15  and  C_17
REMARK   10  A    between atoms: C_20  and  C_21
REMARK   11  A    between atoms: C_20  and  C_22
REMARK   12  A    between atoms: C_25  and  O_26
REMARK   13  A    between atoms: O_26  and  C_27
REMARK                            x       y       z     vdW  Elec       q    Type
REMARK                         _______ _______ _______ _____ _____    ______ ____
ROOT
ATOM      1  C   UNL     1       2.416   5.230  18.692  0.00  0.00    +0.000 A 
ATOM      2  C   UNL     1       3.382   5.349  17.679  0.00  0.00    +0.000 A 
ATOM      3  C   UNL     1       4.249   4.302  17.367  0.00  0.00    +0.000 A 
ATOM      4  C   UNL     1       4.139   3.109  18.078  0.00  0.00    +0.000 A 
ATOM      5  C   UNL     1       3.167   2.970  19.075  0.00  0.00    +0.000 A 
ATOM      6  C   UNL     1       2.298   4.026  19.401  0.00  0.00    +0.000 A 
ENDROOT
BRANCH   3   7
ATOM      7  C   UNL     1       5.252   4.372  16.275  0.00  0.00    +0.000 C 
ATOM      8  N   UNL     1       5.068   3.802  15.117  0.00  0.00    +0.000 NA
ATOM      9  N   UNL     1       6.101   4.210  14.301  0.00  0.00    +0.000 N 
ATOM     10  C   UNL     1       6.990   5.097  14.909  0.00  0.00    +0.000 C 
ATOM     11  O   UNL     1       7.955   5.653  14.411  0.00  0.00    +0.000 OA
ATOM     12  C   UNL     1       6.571   5.135  16.368  0.00  0.00    +0.000 C 
ATOM     13  C   UNL     1       7.635   4.335  17.124  0.00  0.00    +0.000 C 
ATOM     14  C   UNL     1       6.432   6.571  16.853  0.00  0.00    +0.000 C 
BRANCH   9  15
ATOM     15  C   UNL     1       6.341   3.615  12.992  0.00  0.00    +0.000 C 
ATOM     16  C   UNL     1       5.010   3.349  12.282  0.00  0.00    +0.000 C 
ATOM     17  C   UNL     1       7.257   4.456  12.107  0.00  0.00    +0.000 C 
ENDBRANCH   9  15
ENDBRANCH   3   7
BRANCH   6  18
ATOM     18  O   UNL     1       1.304   3.907  20.336  0.00  0.00    +0.000 OA
ATOM     19  C   UNL     1       1.430   2.835  21.270  0.00  0.00    +0.000 C 
ENDBRANCH   6  18
BRANCH   1  20
ATOM     20  O   UNL     1       1.657   6.366  18.803  0.00  0.00    +0.000 OA
BRANCH  20  21
ATOM     21  C   UNL     1       2.234   7.630  18.480  0.00  0.00    +0.000 C 
BRANCH  21  25
ATOM     22  C   UNL     1       0.601  10.593  21.216  0.00  0.00    +0.000 A 
ATOM     23  C   UNL     1       0.779  10.893  19.865  0.00  0.00    +0.000 A 
ATOM     24  C   UNL     1       1.293   9.934  18.979  0.00  0.00    +0.000 A 
ATOM     25  C   UNL     1       1.657   8.662  19.438  0.00  0.00    +0.000 A 
ATOM     26  C   UNL     1       1.491   8.374  20.801  0.00  0.00    +0.000 A 
ATOM     27  C   UNL     1       0.966   9.331  21.684  0.00  0.00    +0.000 A 
BRANCH  22  29
ATOM     28  C   UNL     1       0.193  12.921  21.416  0.00  0.00    +0.000 C 
ATOM     29  O   UNL     1       0.109  11.617  21.979  0.00  0.00    +0.000 OA
ENDBRANCH  22  29
ENDBRANCH  21  25
ENDBRANCH  20  21
ENDBRANCH   1  20
TORSDOF 7
ENDMDL
MODEL 6
REMARK VINA RESULT:      -8.3      2.740      4.979
REMARK  Name = 
REMARK  13 active torsions:
REMARK  status: ('A' for Active; 'I' for Inactive)
REMARK    1  A    between atoms: C_1  and  O_2
REMARK    2  A    between atoms: O_2  and  C_3
REMARK    3  A    between atoms: C_6  and  C_7
REMARK    4  A    between atoms: C_7  and  O_8
REMARK    5  A    between atoms: O_8  and  C_9
REMARK    6  A    between atoms: C_11  and  C_12
REMARK    7  A    between atoms: N_14  and  C_15
REMARK    8  A    between atoms: C_15  and  C_16
REMARK    9  A    between atoms: C_15  and  C_17
REMARK   10  A    between atoms: C_20  and  C_21
REMARK   11  A    between atoms: C_20  and  C_22
REMARK   12  A    between atoms: C_25  and  O_26
REMARK   13  A    between atoms: O_26  and  C_27
REMARK                            x       y       z     vdW  Elec       q    Type
REMARK                         _______ _______ _______ _____ _____    ______ ____
ROOT
ATOM      1  C   UNL     1       1.074   8.720  19.893  0.00  0.00    +0.000 A 
ATOM      2  C   UNL     1       1.917   7.596  19.908  0.00  0.00    +0.000 A 
ATOM      3  C   UNL     1       2.700   7.253  18.806  0.00  0.00    +0.000 A 
ATOM      4  C   UNL     1       2.645   8.059  17.670  0.00  0.00    +0.000 A 
ATOM      5  C   UNL     1       1.826   9.193  17.650  0.00  0.00    +0.000 A 
ATOM      6  C   UNL     1       1.027   9.536  18.753  0.00  0.00    +0.000 A 
ENDROOT
BRANCH   3   7
ATOM      7  C   UNL     1       3.636   6.101  18.798  0.00  0.00    +0.000 C 
ATOM      8  N   UNL     1       4.899   6.226  18.497  0.00  0.00    +0.000 NA
ATOM      9  N   UNL     1       5.494   5.011  18.757  0.00  0.00    +0.000 N 
ATOM     10  C   UNL     1       4.624   4.049  19.271  0.00  0.00    +0.000 C 
ATOM     11  O   UNL     1       4.888   2.914  19.636  0.00  0.00    +0.000 OA
ATOM     12  C   UNL     1       3.244   4.674  19.171  0.00  0.00    +0.000 C 
ATOM     13  C   UNL     1       2.550   3.957  18.009  0.00  0.00    +0.000 C 
ATOM     14  C   UNL     1       2.497   4.552  20.491  0.00  0.00    +0.000 C 
BRANCH   9  15
ATOM     15  C   UNL     1       6.861   4.710  18.349  0.00  0.00    +0.000 C 
ATOM     16  C   UNL     1       6.948   4.629  16.822  0.00  0.00    +0.000 C 
ATOM     17  C   UNL     1       7.885   5.706  18.887  0.00  0.00    +0.000 C 
ENDBRANCH   9  15
ENDBRANCH   3   7
BRANCH   6  18
ATOM     18  O   UNL     1       0.252  10.666  18.786  0.00  0.00    +0.000 OA
ATOM     19  C   UNL     1      -1.091  10.533  18.321  0.00  0.00    +0.000 C 
ENDBRANCH   6  18
BRANCH   1  20
ATOM     20  O   UNL     1       0.426   8.883  21.090  0.00  0.00    +0.000 OA
BRANCH  20  21
ATOM     21  C   UNL     1       0.948   9.797  22.052  0.00  0.00    +0.000 C 
BRANCH  21  25
ATOM     22  C   UNL     1      -2.007  12.930  22.674  0.00  0.00    +0.000 A 
ATOM     23  C   UNL     1      -0.892  13.153  21.863  0.00  0.00    +0.000 A 
ATOM     24  C   UNL     1       0.055  12.140  21.652  0.00  0.00    +0.000 A 
ATOM     25  C   UNL     1      -0.090  10.889  22.265  0.00  0.00    +0.000 A 
ATOM     26  C   UNL     1      -1.204  10.679  23.092  0.00  0.00    +0.000 A 
ATOM     27  C   UNL     1      -2.156  11.691  23.295  0.00  0.00    +0.000 A 
BRANCH  22  29
ATOM     28  C   UNL     1      -2.578  15.128  21.988  0.00  0.00    +0.000 C 
ATOM     29  O   UNL     1      -2.845  14.002  22.815  0.00  0.00    +0.000 OA
ENDBRANCH  22  29
ENDBRANCH  21  25
ENDBRANCH  20  21
ENDBRANCH   1  20
TORSDOF 7
ENDMDL
MODEL 7
REMARK VINA RESULT:      -8.3      1.169      1.730
REMARK  Name = 
REMARK  13 active torsions:
REMARK  status: ('A' for Active; 'I' for Inactive)
REMARK    1  A    between atoms: C_1  and  O_2
REMARK    2  A    between atoms: O_2  and  C_3
REMARK    3  A    between atoms: C_6  and  C_7
REMARK    4  A    between atoms: C_7  and  O_8
REMARK    5  A    between atoms: O_8  and  C_9
REMARK    6  A    between atoms: C_11  and  C_12
REMARK    7  A    between atoms: N_14  and  C_15
REMARK    8  A    between atoms: C_15  and  C_16
REMARK    9  A    between atoms: C_15  and  C_17
REMARK   10  A    between atoms: C_20  and  C_21
REMARK   11  A    between atoms: C_20  and  C_22
REMARK   12  A    between atoms: C_25  and  O_26
REMARK   13  A    between atoms: O_26  and  C_27
REMARK                            x       y       z     vdW  Elec       q    Type
REMARK                         _______ _______ _______ _____ _____    ______ ____
ROOT
ATOM      1  C   UNL     1       2.957   5.188  19.083  0.00  0.00    +0.000 A 
ATOM      2  C   UNL     1       3.984   5.268  18.126  0.00  0.00    +0.000 A 
ATOM      3  C   UNL     1       4.154   4.287  17.150  0.00  0.00    +0.000 A 
ATOM      4  C   UNL     1       3.271   3.209  17.124  0.00  0.00    +0.000 A 
ATOM      5  C   UNL     1       2.231   3.128  18.057  0.00  0.00    +0.000 A 
ATOM      6  C   UNL     1       2.062   4.108  19.050  0.00  0.00    +0.000 A 
ENDROOT
BRANCH   3   7
ATOM      7  C   UNL     1       5.197   4.359  16.097  0.00  0.00    +0.000 C 
ATOM      8  N   UNL     1       5.062   3.780  14.936  0.00  0.00    +0.000 NA
ATOM      9  N   UNL     1       6.122   4.192  14.157  0.00  0.00    +0.000 N 
ATOM     10  C   UNL     1       6.981   5.089  14.793  0.00  0.00    +0.000 C 
ATOM     11  O   UNL     1       7.960   5.650  14.329  0.00  0.00    +0.000 OA
ATOM     12  C   UNL     1       6.506   5.133  16.234  0.00  0.00    +0.000 C 
ATOM     13  C   UNL     1       7.546   4.345  17.036  0.00  0.00    +0.000 C 
ATOM     14  C   UNL     1       6.337   6.570  16.706  0.00  0.00    +0.000 C 
BRANCH   9  15
ATOM     15  C   UNL     1       6.417   3.591  12.862  0.00  0.00    +0.000 C 
ATOM     16  C   UNL     1       5.115   3.237  12.137  0.00  0.00    +0.000 C 
ATOM     17  C   UNL     1       7.296   4.469  11.976  0.00  0.00    +0.000 C 
ENDBRANCH   9  15
ENDBRANCH   3   7
BRANCH   6  18
ATOM     18  O   UNL     1       1.027   4.085  19.946  0.00  0.00    +0.000 OA
ATOM     19  C   UNL     1       1.079   3.078  20.957  0.00  0.00    +0.000 C 
ENDBRANCH   6  18
BRANCH   1  20
ATOM     20  O   UNL     1       2.959   6.272  19.920  0.00  0.00    +0.000 OA
BRANCH  20  21
ATOM     21  C   UNL     1       1.719   6.792  20.398  0.00  0.00    +0.000 C 
BRANCH  21  25
ATOM     22  C   UNL     1       1.283  10.844  18.873  0.00  0.00    +0.000 A 
ATOM     23  C   UNL     1       0.825  10.509  20.148  0.00  0.00    +0.000 A 
ATOM     24  C   UNL     1       0.976   9.206  20.646  0.00  0.00    +0.000 A 
ATOM     25  C   UNL     1       1.574   8.210  19.865  0.00  0.00    +0.000 A 
ATOM     26  C   UNL     1       2.017   8.549  18.577  0.00  0.00    +0.000 A 
ATOM     27  C   UNL     1       1.874   9.856  18.085  0.00  0.00    +0.000 A 
BRANCH  22  29
ATOM     28  C   UNL     1       2.209  12.909  18.164  0.00  0.00    +0.000 C 
ATOM     29  O   UNL     1       1.060  12.140  18.497  0.00  0.00    +0.000 OA
ENDBRANCH  22  29
ENDBRANCH  21  25
ENDBRANCH  20  21
ENDBRANCH   1  20
TORSDOF 7
ENDMDL
MODEL 8
REMARK VINA RESULT:      -8.2      3.142      5.133
REMARK  Name = 
REMARK  13 active torsions:
REMARK  status: ('A' for Active; 'I' for Inactive)
REMARK    1  A    between atoms: C_1  and  O_2
REMARK    2  A    between atoms: O_2  and  C_3
REMARK    3  A    between atoms: C_6  and  C_7
REMARK    4  A    between atoms: C_7  and  O_8
REMARK    5  A    between atoms: O_8  and  C_9
REMARK    6  A    between atoms: C_11  and  C_12
REMARK    7  A    between atoms: N_14  and  C_15
REMARK    8  A    between atoms: C_15  and  C_16
REMARK    9  A    between atoms: C_15  and  C_17
REMARK   10  A    between atoms: C_20  and  C_21
REMARK   11  A    between atoms: C_20  and  C_22
REMARK   12  A    between atoms: C_25  and  O_26
REMARK   13  A    between atoms: O_26  and  C_27
REMARK                            x       y       z     vdW  Elec       q    Type
REMARK                         _______ _______ _______ _____ _____    ______ ____
ROOT
ATOM      1  C   UNL     1       0.983   9.281  19.303  0.00  0.00    +0.000 A 
ATOM      2  C   UNL     1       1.749   8.302  18.649  0.00  0.00    +0.000 A 
ATOM      3  C   UNL     1       2.264   7.199  19.329  0.00  0.00    +0.000 A 
ATOM      4  C   UNL     1       1.996   7.068  20.690  0.00  0.00    +0.000 A 
ATOM      5  C   UNL     1       1.217   8.024  21.349  0.00  0.00    +0.000 A 
ATOM      6  C   UNL     1       0.706   9.144  20.671  0.00  0.00    +0.000 A 
ENDROOT
BRANCH   3   7
ATOM      7  C   UNL     1       3.039   6.121  18.664  0.00  0.00    +0.000 C 
ATOM      8  N   UNL     1       4.132   6.355  17.993  0.00  0.00    +0.000 NA
ATOM      9  N   UNL     1       4.673   5.130  17.668  0.00  0.00    +0.000 N 
ATOM     10  C   UNL     1       3.946   4.041  18.150  0.00  0.00    +0.000 C 
ATOM     11  O   UNL     1       4.218   2.855  18.056  0.00  0.00    +0.000 OA
ATOM     12  C   UNL     1       2.673   4.640  18.720  0.00  0.00    +0.000 C 
ATOM     13  C   UNL     1       1.569   4.293  17.717  0.00  0.00    +0.000 C 
ATOM     14  C   UNL     1       2.406   4.112  20.121  0.00  0.00    +0.000 C 
BRANCH   9  15
ATOM     15  C   UNL     1       5.791   4.994  16.742  0.00  0.00    +0.000 C 
ATOM     16  C   UNL     1       5.473   5.707  15.425  0.00  0.00    +0.000 C 
ATOM     17  C   UNL     1       7.113   5.498  17.314  0.00  0.00    +0.000 C 
ENDBRANCH   9  15
ENDBRANCH   3   7
BRANCH   6  18
ATOM     18  O   UNL     1      -0.102  10.072  21.274  0.00  0.00    +0.000 OA
ATOM     19  C   UNL     1      -0.402   9.858  22.653  0.00  0.00    +0.000 C 
ENDBRANCH   6  18
BRANCH   1  20
ATOM     20  O   UNL     1       0.556  10.254  18.437  0.00  0.00    +0.000 OA
BRANCH  20  21
ATOM     21  C   UNL     1      -0.347   9.911  17.388  0.00  0.00    +0.000 C 
BRANCH  21  25
ATOM     22  C   UNL     1      -4.272  11.472  18.435  0.00  0.00    +0.000 A 
ATOM     23  C   UNL     1      -4.146  10.377  17.579  0.00  0.00    +0.000 A 
ATOM     24  C   UNL     1      -2.882   9.864  17.250  0.00  0.00    +0.000 A 
ATOM     25  C   UNL     1      -1.719  10.455  17.761  0.00  0.00    +0.000 A 
ATOM     26  C   UNL     1      -1.853  11.566  18.607  0.00  0.00    +0.000 A 
ATOM     27  C   UNL     1      -3.119  12.071  18.943  0.00  0.00    +0.000 A 
BRANCH  22  29
ATOM     28  C   UNL     1      -6.562  10.884  18.615  0.00  0.00    +0.000 C 
ATOM     29  O   UNL     1      -5.555  11.887  18.662  0.00  0.00    +0.000 OA
ENDBRANCH  22  29
ENDBRANCH  21  25
ENDBRANCH  20  21
ENDBRANCH   1  20
TORSDOF 7
ENDMDL
MODEL 9
REMARK VINA RESULT:      -8.2      3.508      7.368
REMARK  Name = 
REMARK  13 active torsions:
REMARK  status: ('A' for Active; 'I' for Inactive)
REMARK    1  A    between atoms: C_1  and  O_2
REMARK    2  A    between atoms: O_2  and  C_3
REMARK    3  A    between atoms: C_6  and  C_7
REMARK    4  A    between atoms: C_7  and  O_8
REMARK    5  A    between atoms: O_8  and  C_9
REMARK    6  A    between atoms: C_11  and  C_12
REMARK    7  A    between atoms: N_14  and  C_15
REMARK    8  A    between atoms: C_15  and  C_16
REMARK    9  A    between atoms: C_15  and  C_17
REMARK   10  A    between atoms: C_20  and  C_21
REMARK   11  A    between atoms: C_20  and  C_22
REMARK   12  A    between atoms: C_25  and  O_26
REMARK   13  A    between atoms: O_26  and  C_27
REMARK                            x       y       z     vdW  Elec       q    Type
REMARK                         _______ _______ _______ _____ _____    ______ ____
ROOT
ATOM      1  C   UNL     1       6.832   6.124  16.503  0.00  0.00    +0.000 A 
ATOM      2  C   UNL     1       5.871   5.927  17.509  0.00  0.00    +0.000 A 
ATOM      3  C   UNL     1       4.869   4.966  17.388  0.00  0.00    +0.000 A 
ATOM      4  C   UNL     1       4.834   4.178  16.239  0.00  0.00    +0.000 A 
ATOM      5  C   UNL     1       5.797   4.349  15.238  0.00  0.00    +0.000 A 
ATOM      6  C   UNL     1       6.802   5.324  15.351  0.00  0.00    +0.000 A 
ENDROOT
BRANCH   3   7
ATOM      7  C   UNL     1       3.865   4.697  18.448  0.00  0.00    +0.000 C 
ATOM      8  N   UNL     1       4.079   3.853  19.418  0.00  0.00    +0.000 NA
ATOM      9  N   UNL     1       3.027   3.982  20.300  0.00  0.00    +0.000 N 
ATOM     10  C   UNL     1       2.093   4.951  19.934  0.00  0.00    +0.000 C 
ATOM     11  O   UNL     1       1.101   5.309  20.548  0.00  0.00    +0.000 OA
ATOM     12  C   UNL     1       2.508   5.392  18.542  0.00  0.00    +0.000 C 
ATOM     13  C   UNL     1       1.486   4.766  17.589  0.00  0.00    +0.000 C 
ATOM     14  C   UNL     1       2.573   6.909  18.450  0.00  0.00    +0.000 C 
BRANCH   9  15
ATOM     15  C   UNL     1       2.819   3.053  21.404  0.00  0.00    +0.000 C 
ATOM     16  C   UNL     1       1.359   2.589  21.433  0.00  0.00    +0.000 C 
ATOM     17  C   UNL     1       3.758   1.850  21.366  0.00  0.00    +0.000 C 
ENDBRANCH   9  15
ENDBRANCH   3   7
BRANCH   6  18
ATOM     18  O   UNL     1       7.789   5.484  14.414  0.00  0.00    +0.000 OA
ATOM     19  C   UNL     1       7.541   4.926  13.124  0.00  0.00    +0.000 C 
ENDBRANCH   6  18
BRANCH   1  20
ATOM     20  O   UNL     1       7.736   7.095  16.847  0.00  0.00    +0.000 OA
BRANCH  20  21
ATOM     21  C   UNL     1       7.932   7.413  18.224  0.00  0.00    +0.000 C 
BRANCH  21  25
ATOM     22  C   UNL     1       9.079  11.604  18.450  0.00  0.00    +0.000 A 
ATOM     23  C   UNL     1       8.196  11.159  17.465  0.00  0.00    +0.000 A 
ATOM     24  C   UNL     1       7.816   9.811  17.398  0.00  0.00    +0.000 A 
ATOM     25  C   UNL     1       8.329   8.880  18.309  0.00  0.00    +0.000 A 
ATOM     26  C   UNL     1       9.230   9.331  19.286  0.00  0.00    +0.000 A 
ATOM     27  C   UNL     1       9.602  10.683  19.357  0.00  0.00    +0.000 A 
BRANCH  22  29
ATOM     28  C   UNL     1       8.294  13.830  18.218  0.00  0.00    +0.000 C 
ATOM     29  O   UNL     1       9.386  12.936  18.396  0.00  0.00    +0.000 OA
ENDBRANCH  22  29
ENDBRANCH  21  25
ENDBRANCH  20  21
ENDBRANCH   1  20
TORSDOF 7
ENDMDL
