MODEL 1
REMARK VINA RESULT:      -9.7      0.000      0.000
REMARK  Name = 
REMARK  7 active torsions:
REMARK  status: ('A' for Active; 'I' for Inactive)
REMARK    1  A    between atoms: C_1  and  C_2
REMARK    2  A    between atoms: C_4  and  C_5
REMARK    3  A    between atoms: C_10  and  N_11
REMARK    4  A    between atoms: N_11  and  C_12
REMARK    5  A    between atoms: C_12  and  C_13
REMARK    6  A    between atoms: C_12  and  C_23
REMARK    7  A    between atoms: C_16  and  C_17
REMARK                            x       y       z     vdW  Elec       q    Type
REMARK                         _______ _______ _______ _____ _____    ______ ____
ROOT
ATOM      1  C   UNL     1       3.418   6.092  19.662  0.00  0.00    +0.000 C 
ENDROOT
BRANCH   1   2
ATOM      2  C   UNL     1       2.528   7.312  19.455  0.00  0.00    +0.000 A 
ATOM      3  C   UNL     1       1.756   7.817  20.514  0.00  0.00    +0.000 A 
ATOM      4  C   UNL     1       0.863   8.865  20.312  0.00  0.00    +0.000 A 
ATOM      5  C   UNL     1       0.712   9.433  19.041  0.00  0.00    +0.000 A 
ATOM      6  C   UNL     1       1.508   8.958  17.986  0.00  0.00    +0.000 A 
ATOM      7  C   UNL     1       2.410   7.910  18.191  0.00  0.00    +0.000 A 
BRANCH   5   8
ATOM      8  C   UNL     1      -0.313  10.511  18.800  0.00  0.00    +0.000 C 
ATOM      9  F   UNL     1      -1.126  10.740  19.869  0.00  0.00    +0.000 F 
ATOM     10  F   UNL     1       0.250  11.713  18.495  0.00  0.00    +0.000 F 
ATOM     11  F   UNL     1      -1.143  10.213  17.762  0.00  0.00    +0.000 F 
ENDBRANCH   5   8
ENDBRANCH   1   2
BRANCH   1  12
ATOM     12  C   UNL     1       2.592   4.875  20.058  0.00  0.00    +0.000 A 
ATOM     13  C   UNL     1       1.572   4.343  19.256  0.00  0.00    +0.000 A 
ATOM     14  C   UNL     1       0.784   3.300  19.731  0.00  0.00    +0.000 A 
ATOM     15  C   UNL     1       1.043   2.805  20.996  0.00  0.00    +0.000 A 
ATOM     16  N   UNL     1       2.029   3.267  21.794  0.00  0.00    +0.000 NA
ATOM     17  C   UNL     1       2.769   4.292  21.313  0.00  0.00    +0.000 A 
ENDBRANCH   1  12
BRANCH   1  18
ATOM     18  N   UNL     1       4.256   5.825  18.470  0.00  0.00    +0.000 NA
ATOM     19  H   UNL     1       3.678   5.967  17.643  0.00  0.00    +0.000 HD
BRANCH  18  25
ATOM     20  C   UNL     1       6.685   4.566  14.483  0.00  0.00    +0.000 C 
ATOM     21  O   UNL     1       7.653   5.309  14.319  0.00  0.00    +0.000 OA
ATOM     22  N   UNL     1       6.130   4.381  15.771  0.00  0.00    +0.000 N 
ATOM     23  C   UNL     1       6.774   5.139  16.846  0.00  0.00    +0.000 C 
ATOM     24  C   UNL     1       6.408   4.631  18.236  0.00  0.00    +0.000 C 
ATOM     25  C   UNL     1       4.890   4.492  18.433  0.00  0.00    +0.000 C 
ATOM     26  C   UNL     1       4.368   3.568  17.328  0.00  0.00    +0.000 C 
ATOM     27  C   UNL     1       4.700   4.103  15.941  0.00  0.00    +0.000 C 
BRANCH  20  31
ATOM     28  C   UNL     1       3.715   2.916  10.738  0.00  0.00    +0.000 C 
ATOM     29  C   UNL     1       4.806   3.170  11.705  0.00  0.00    +0.000 A 
ATOM     30  C   UNL     1       4.867   4.150  12.720  0.00  0.00    +0.000 A 
ATOM     31  C   UNL     1       6.061   3.909  13.360  0.00  0.00    +0.000 A 
ATOM     32  O   UNL     1       6.712   2.908  12.705  0.00  0.00    +0.000 OA
ATOM     33  N   UNL     1       5.912   2.417  11.688  0.00  0.00    +0.000 NA
ENDBRANCH  20  31
ENDBRANCH  18  25
ENDBRANCH   1  18
TORSDOF 6
ENDMDL
MODEL 2
REMARK VINA RESULT:      -9.7      0.328      1.131
REMARK  Name = 
REMARK  7 active torsions:
REMARK  status: ('A' for Active; 'I' for Inactive)
REMARK    1  A    between atoms: C_1  and  C_2
REMARK    2  A    between atoms: C_4  and  C_5
REMARK    3  A    between atoms: C_10  and  N_11
REMARK    4  A    between atoms: N_11  and  C_12
REMARK    5  A    between atoms: C_12  and  C_13
REMARK    6  A    between atoms: C_12  and  C_23
REMARK    7  A    between atoms: C_16  and  C_17
REMARK                            x       y       z     vdW  Elec       q    Type
REMARK                         _______ _______ _______ _____ _____    ______ ____
ROOT
ATOM      1  C   UNL     1       3.318   6.108  19.769  0.00  0.00    +0.000 C 
ENDROOT
BRANCH   1   2
ATOM      2  C   UNL     1       2.380   7.285  19.523  0.00  0.00    +0.000 A 
ATOM      3  C   UNL     1       2.297   7.874  18.251  0.00  0.00    +0.000 A 
ATOM      4  C   UNL     1       1.523   9.012  18.038  0.00  0.00    +0.000 A 
ATOM      5  C   UNL     1       0.818   9.597  19.097  0.00  0.00    +0.000 A 
ATOM      6  C   UNL     1       0.867   8.991  20.362  0.00  0.00    +0.000 A 
ATOM      7  C   UNL     1       1.638   7.845  20.574  0.00  0.00    +0.000 A 
BRANCH   5   8
ATOM      8  C   UNL     1       0.047  10.875  18.890  0.00  0.00    +0.000 C 
ATOM      9  F   UNL     1       0.838  11.953  18.627  0.00  0.00    +0.000 F 
ATOM     10  F   UNL     1      -0.834  10.797  17.855  0.00  0.00    +0.000 F 
ATOM     11  F   UNL     1      -0.690  11.216  19.983  0.00  0.00    +0.000 F 
ENDBRANCH   5   8
ENDBRANCH   1   2
BRANCH   1  12
ATOM     12  C   UNL     1       2.535   4.859  20.156  0.00  0.00    +0.000 A 
ATOM     13  C   UNL     1       1.529   4.303  19.355  0.00  0.00    +0.000 A 
ATOM     14  C   UNL     1       0.779   3.229  19.823  0.00  0.00    +0.000 A 
ATOM     15  C   UNL     1       1.064   2.728  21.081  0.00  0.00    +0.000 A 
ATOM     16  N   UNL     1       2.040   3.214  21.877  0.00  0.00    +0.000 NA
ATOM     17  C   UNL     1       2.742   4.269  21.403  0.00  0.00    +0.000 A 
ENDBRANCH   1  12
BRANCH   1  18
ATOM     18  N   UNL     1       4.199   5.867  18.603  0.00  0.00    +0.000 NA
ATOM     19  H   UNL     1       3.647   6.005  17.759  0.00  0.00    +0.000 HD
BRANCH  18  25
ATOM     20  C   UNL     1       6.835   4.711  14.718  0.00  0.00    +0.000 C 
ATOM     21  O   UNL     1       7.796   5.474  14.610  0.00  0.00    +0.000 OA
ATOM     22  N   UNL     1       6.224   4.497  15.975  0.00  0.00    +0.000 N 
ATOM     23  C   UNL     1       6.804   5.250  17.090  0.00  0.00    +0.000 C 
ATOM     24  C   UNL     1       6.382   4.715  18.454  0.00  0.00    +0.000 C 
ATOM     25  C   UNL     1       4.859   4.546  18.577  0.00  0.00    +0.000 C 
ATOM     26  C   UNL     1       4.407   3.630  17.435  0.00  0.00    +0.000 C 
ATOM     27  C   UNL     1       4.793   4.191  16.073  0.00  0.00    +0.000 C 
BRANCH  20  31
ATOM     28  C   UNL     1       3.984   2.832  10.989  0.00  0.00    +0.000 C 
ATOM     29  C   UNL     1       5.074   3.236  11.903  0.00  0.00    +0.000 A 
ATOM     30  C   UNL     1       5.000   4.066  13.044  0.00  0.00    +0.000 A 
ATOM     31  C   UNL     1       6.277   4.061  13.557  0.00  0.00    +0.000 A 
ATOM     32  O   UNL     1       7.080   3.349  12.719  0.00  0.00    +0.000 OA
ATOM     33  N   UNL     1       6.322   2.798  11.700  0.00  0.00    +0.000 NA
ENDBRANCH  20  31
ENDBRANCH  18  25
ENDBRANCH   1  18
TORSDOF 6
ENDMDL
MODEL 3
REMARK VINA RESULT:      -9.6      0.829      1.229
REMARK  Name = 
REMARK  7 active torsions:
REMARK  status: ('A' for Active; 'I' for Inactive)
REMARK    1  A    between atoms: C_1  and  C_2
REMARK    2  A    between atoms: C_4  and  C_5
REMARK    3  A    between atoms: C_10  and  N_11
REMARK    4  A    between atoms: N_11  and  C_12
REMARK    5  A    between atoms: C_12  and  C_13
REMARK    6  A    between atoms: C_12  and  C_23
REMARK    7  A    between atoms: C_16  and  C_17
REMARK                            x       y       z     vdW  Elec       q    Type
REMARK                         _______ _______ _______ _____ _____    ______ ____
ROOT
ATOM      1  C   UNL     1       3.248   5.917  19.596  0.00  0.00    +0.000 C 
ENDROOT
BRANCH   1   2
ATOM      2  C   UNL     1       2.473   7.222  19.444  0.00  0.00    +0.000 A 
ATOM      3  C   UNL     1       1.715   7.726  20.514  0.00  0.00    +0.000 A 
ATOM      4  C   UNL     1       0.922   8.859  20.356  0.00  0.00    +0.000 A 
ATOM      5  C   UNL     1       0.859   9.514  19.121  0.00  0.00    +0.000 A 
ATOM      6  C   UNL     1       1.643   9.037  18.058  0.00  0.00    +0.000 A 
ATOM      7  C   UNL     1       2.446   7.903  18.218  0.00  0.00    +0.000 A 
BRANCH   5   8
ATOM      8  C   UNL     1      -0.061  10.691  18.923  0.00  0.00    +0.000 C 
ATOM      9  F   UNL     1      -1.059  10.458  18.024  0.00  0.00    +0.000 F 
ATOM     10  F   UNL     1      -0.678  11.076  20.074  0.00  0.00    +0.000 F 
ATOM     11  F   UNL     1       0.598  11.791  18.465  0.00  0.00    +0.000 F 
ENDBRANCH   5   8
ENDBRANCH   1   2
BRANCH   1  12
ATOM     12  C   UNL     1       2.319   4.714  19.484  0.00  0.00    +0.000 A 
ATOM     13  C   UNL     1       2.127   3.792  20.521  0.00  0.00    +0.000 A 
ATOM     14  C   UNL     1       1.352   2.656  20.309  0.00  0.00    +0.000 A 
ATOM     15  C   UNL     1       0.775   2.477  19.064  0.00  0.00    +0.000 A 
ATOM     16  N   UNL     1       0.911   3.351  18.044  0.00  0.00    +0.000 NA
ATOM     17  C   UNL     1       1.684   4.438  18.272  0.00  0.00    +0.000 A 
ENDBRANCH   1  12
BRANCH   1  18
ATOM     18  N   UNL     1       4.369   5.839  18.631  0.00  0.00    +0.000 NA
ATOM     19  H   UNL     1       4.007   6.083  17.711  0.00  0.00    +0.000 HD
BRANCH  18  25
ATOM     20  C   UNL     1       6.858   4.735  14.635  0.00  0.00    +0.000 C 
ATOM     21  O   UNL     1       7.789   5.526  14.478  0.00  0.00    +0.000 OA
ATOM     22  N   UNL     1       6.312   4.512  15.920  0.00  0.00    +0.000 N 
ATOM     23  C   UNL     1       6.919   5.292  17.003  0.00  0.00    +0.000 C 
ATOM     24  C   UNL     1       6.578   4.755  18.388  0.00  0.00    +0.000 C 
ATOM     25  C   UNL     1       5.068   4.539  18.583  0.00  0.00    +0.000 C 
ATOM     26  C   UNL     1       4.592   3.600  17.469  0.00  0.00    +0.000 C 
ATOM     27  C   UNL     1       4.897   4.163  16.087  0.00  0.00    +0.000 C 
BRANCH  20  31
ATOM     28  C   UNL     1       3.920   2.846  10.979  0.00  0.00    +0.000 C 
ATOM     29  C   UNL     1       5.027   3.225  11.885  0.00  0.00    +0.000 A 
ATOM     30  C   UNL     1       4.999   4.123  12.974  0.00  0.00    +0.000 A 
ATOM     31  C   UNL     1       6.267   4.059  13.506  0.00  0.00    +0.000 A 
ATOM     32  O   UNL     1       7.027   3.244  12.723  0.00  0.00    +0.000 OA
ATOM     33  N   UNL     1       6.243   2.689  11.726  0.00  0.00    +0.000 NA
ENDBRANCH  20  31
ENDBRANCH  18  25
ENDBRANCH   1  18
TORSDOF 6
ENDMDL
MODEL 4
REMARK VINA RESULT:      -9.5      0.925      1.583
REMARK  Name = 
REMARK  7 active torsions:
REMARK  status: ('A' for Active; 'I' for Inactive)
REMARK    1  A    between atoms: C_1  and  C_2
REMARK    2  A    between atoms: C_4  and  C_5
REMARK    3  A    between atoms: C_10  and  N_11
REMARK    4  A    between atoms: N_11  and  C_12
REMARK    5  A    between atoms: C_12  and  C_13
REMARK    6  A    between atoms: C_12  and  C_23
REMARK    7  A    between atoms: C_16  and  C_17
REMARK                            x       y       z     vdW  Elec       q    Type
REMARK                         _______ _______ _______ _____ _____    ______ ____
ROOT
ATOM      1  C   UNL     1       3.194   5.923  19.649  0.00  0.00    +0.000 C 
ENDROOT
BRANCH   1   2
ATOM      2  C   UNL     1       2.386   7.204  19.468  0.00  0.00    +0.000 A 
ATOM      3  C   UNL     1       2.420   7.899  18.249  0.00  0.00    +0.000 A 
ATOM      4  C   UNL     1       1.770   9.122  18.104  0.00  0.00    +0.000 A 
ATOM      5  C   UNL     1       1.076   9.687  19.180  0.00  0.00    +0.000 A 
ATOM      6  C   UNL     1       1.008   8.980  20.391  0.00  0.00    +0.000 A 
ATOM      7  C   UNL     1       1.654   7.748  20.534  0.00  0.00    +0.000 A 
BRANCH   5   8
ATOM      8  C   UNL     1       0.443  11.049  19.054  0.00  0.00    +0.000 C 
ATOM      9  F   UNL     1       1.210  11.946  18.372  0.00  0.00    +0.000 F 
ATOM     10  F   UNL     1      -0.754  11.014  18.406  0.00  0.00    +0.000 F 
ATOM     11  F   UNL     1       0.196  11.619  20.266  0.00  0.00    +0.000 F 
ENDBRANCH   5   8
ENDBRANCH   1   2
BRANCH   1  12
ATOM     12  C   UNL     1       2.295   4.695  19.559  0.00  0.00    +0.000 A 
ATOM     13  C   UNL     1       2.140   3.777  20.606  0.00  0.00    +0.000 A 
ATOM     14  C   UNL     1       1.392   2.620  20.414  0.00  0.00    +0.000 A 
ATOM     15  C   UNL     1       0.806   2.415  19.177  0.00  0.00    +0.000 A 
ATOM     16  N   UNL     1       0.906   3.283  18.148  0.00  0.00    +0.000 NA
ATOM     17  C   UNL     1       1.653   4.391  18.358  0.00  0.00    +0.000 A 
ENDBRANCH   1  12
BRANCH   1  18
ATOM     18  N   UNL     1       4.320   5.854  18.690  0.00  0.00    +0.000 NA
ATOM     19  H   UNL     1       3.960   6.092  17.767  0.00  0.00    +0.000 HD
BRANCH  18  25
ATOM     20  C   UNL     1       6.901   4.798  14.740  0.00  0.00    +0.000 C 
ATOM     21  O   UNL     1       7.828   5.598  14.607  0.00  0.00    +0.000 OA
ATOM     22  N   UNL     1       6.330   4.562  16.012  0.00  0.00    +0.000 N 
ATOM     23  C   UNL     1       6.907   5.339  17.112  0.00  0.00    +0.000 C 
ATOM     24  C   UNL     1       6.542   4.789  18.486  0.00  0.00    +0.000 C 
ATOM     25  C   UNL     1       5.031   4.560  18.648  0.00  0.00    +0.000 C 
ATOM     26  C   UNL     1       4.586   3.625  17.518  0.00  0.00    +0.000 C 
ATOM     27  C   UNL     1       4.915   4.199  16.146  0.00  0.00    +0.000 C 
BRANCH  20  31
ATOM     28  C   UNL     1       4.042   2.853  11.050  0.00  0.00    +0.000 C 
ATOM     29  C   UNL     1       5.134   3.270  11.958  0.00  0.00    +0.000 A 
ATOM     30  C   UNL     1       5.063   4.127  13.078  0.00  0.00    +0.000 A 
ATOM     31  C   UNL     1       6.340   4.125  13.594  0.00  0.00    +0.000 A 
ATOM     32  O   UNL     1       7.139   3.386  12.775  0.00  0.00    +0.000 OA
ATOM     33  N   UNL     1       6.378   2.818  11.767  0.00  0.00    +0.000 NA
ENDBRANCH  20  31
ENDBRANCH  18  25
ENDBRANCH   1  18
TORSDOF 6
ENDMDL
MODEL 5
REMARK VINA RESULT:      -9.4      0.783      1.366
REMARK  Name = 
REMARK  7 active torsions:
REMARK  status: ('A' for Active; 'I' for Inactive)
REMARK    1  A    between atoms: C_1  and  C_2
REMARK    2  A    between atoms: C_4  and  C_5
REMARK    3  A    between atoms: C_10  and  N_11
REMARK    4  A    between atoms: N_11  and  C_12
REMARK    5  A    between atoms: C_12  and  C_13
REMARK    6  A    between atoms: C_12  and  C_23
REMARK    7  A    between atoms: C_16  and  C_17
REMARK                            x       y       z     vdW  Elec       q    Type
REMARK                         _______ _______ _______ _____ _____    ______ ____
ROOT
ATOM      1  C   UNL     1       3.329   6.046  19.532  0.00  0.00    +0.000 C 
ENDROOT
BRANCH   1   2
ATOM      2  C   UNL     1       2.414   7.255  19.364  0.00  0.00    +0.000 A 
ATOM      3  C   UNL     1       2.309   7.897  18.120  0.00  0.00    +0.000 A 
ATOM      4  C   UNL     1       1.558   9.061  17.978  0.00  0.00    +0.000 A 
ATOM      5  C   UNL     1       0.899   9.618  19.080  0.00  0.00    +0.000 A 
ATOM      6  C   UNL     1       0.970   8.960  20.318  0.00  0.00    +0.000 A 
ATOM      7  C   UNL     1       1.717   7.787  20.459  0.00  0.00    +0.000 A 
BRANCH   5   8
ATOM      8  C   UNL     1       0.154  10.922  18.950  0.00  0.00    +0.000 C 
ATOM      9  F   UNL     1      -0.934  10.849  18.132  0.00  0.00    +0.000 F 
ATOM     10  F   UNL     1      -0.306  11.386  20.144  0.00  0.00    +0.000 F 
ATOM     11  F   UNL     1       0.935  11.914  18.438  0.00  0.00    +0.000 F 
ENDBRANCH   5   8
ENDBRANCH   1   2
BRANCH   1  12
ATOM     12  C   UNL     1       2.545   4.832  20.014  0.00  0.00    +0.000 A 
ATOM     13  C   UNL     1       1.543   4.212  19.255  0.00  0.00    +0.000 A 
ATOM     14  C   UNL     1       0.790   3.179  19.804  0.00  0.00    +0.000 A 
ATOM     15  C   UNL     1       1.069   2.780  21.099  0.00  0.00    +0.000 A 
ATOM     16  N   UNL     1       2.040   3.329  21.859  0.00  0.00    +0.000 NA
ATOM     17  C   UNL     1       2.744   4.343  21.306  0.00  0.00    +0.000 A 
ENDBRANCH   1  12
BRANCH   1  18
ATOM     18  N   UNL     1       4.080   5.759  18.289  0.00  0.00    +0.000 NA
ATOM     19  H   UNL     1       3.407   5.671  17.530  0.00  0.00    +0.000 HD
BRANCH  18  25
ATOM     20  C   UNL     1       6.716   4.686  14.380  0.00  0.00    +0.000 C 
ATOM     21  O   UNL     1       7.527   5.584  14.151  0.00  0.00    +0.000 OA
ATOM     22  N   UNL     1       6.201   4.496  15.683  0.00  0.00    +0.000 N 
ATOM     23  C   UNL     1       6.688   5.440  16.693  0.00  0.00    +0.000 C 
ATOM     24  C   UNL     1       6.420   4.977  18.120  0.00  0.00    +0.000 C 
ATOM     25  C   UNL     1       4.954   4.569  18.343  0.00  0.00    +0.000 C 
ATOM     26  C   UNL     1       4.619   3.485  17.314  0.00  0.00    +0.000 C 
ATOM     27  C   UNL     1       4.848   3.968  15.888  0.00  0.00    +0.000 C 
BRANCH  20  31
ATOM     28  C   UNL     1       5.945   1.278  10.725  0.00  0.00    +0.000 C 
ATOM     29  C   UNL     1       5.845   2.363  11.726  0.00  0.00    +0.000 A 
ATOM     30  C   UNL     1       6.797   2.752  12.694  0.00  0.00    +0.000 A 
ATOM     31  C   UNL     1       6.230   3.843  13.314  0.00  0.00    +0.000 A 
ATOM     32  O   UNL     1       4.980   4.030  12.809  0.00  0.00    +0.000 OA
ATOM     33  N   UNL     1       4.748   3.127  11.786  0.00  0.00    +0.000 NA
ENDBRANCH  20  31
ENDBRANCH  18  25
ENDBRANCH   1  18
TORSDOF 6
ENDMDL
MODEL 6
REMARK VINA RESULT:      -9.4      1.096      1.340
REMARK  Name = 
REMARK  7 active torsions:
REMARK  status: ('A' for Active; 'I' for Inactive)
REMARK    1  A    between atoms: C_1  and  C_2
REMARK    2  A    between atoms: C_4  and  C_5
REMARK    3  A    between atoms: C_10  and  N_11
REMARK    4  A    between atoms: N_11  and  C_12
REMARK    5  A    between atoms: C_12  and  C_13
REMARK    6  A    between atoms: C_12  and  C_23
REMARK    7  A    between atoms: C_16  and  C_17
REMARK                            x       y       z     vdW  Elec       q    Type
REMARK                         _______ _______ _______ _____ _____    ______ ____
ROOT
ATOM      1  C   UNL     1       3.315   6.025  19.336  0.00  0.00    +0.000 C 
ENDROOT
BRANCH   1   2
ATOM      2  C   UNL     1       2.531   7.330  19.249  0.00  0.00    +0.000 A 
ATOM      3  C   UNL     1       1.783   7.784  20.347  0.00  0.00    +0.000 A 
ATOM      4  C   UNL     1       0.982   8.919  20.247  0.00  0.00    +0.000 A 
ATOM      5  C   UNL     1       0.902   9.625  19.041  0.00  0.00    +0.000 A 
ATOM      6  C   UNL     1       1.677   9.198  17.951  0.00  0.00    +0.000 A 
ATOM      7  C   UNL     1       2.487   8.064  18.053  0.00  0.00    +0.000 A 
BRANCH   5   8
ATOM      8  C   UNL     1      -0.027  10.804  18.903  0.00  0.00    +0.000 C 
ATOM      9  F   UNL     1      -0.797  11.024  20.006  0.00  0.00    +0.000 F 
ATOM     10  F   UNL     1       0.635  11.971  18.671  0.00  0.00    +0.000 F 
ATOM     11  F   UNL     1      -0.899  10.656  17.868  0.00  0.00    +0.000 F 
ENDBRANCH   5   8
ENDBRANCH   1   2
BRANCH   1  12
ATOM     12  C   UNL     1       2.377   4.825  19.347  0.00  0.00    +0.000 A 
ATOM     13  C   UNL     1       2.218   3.982  20.455  0.00  0.00    +0.000 A 
ATOM     14  C   UNL     1       1.429   2.840  20.355  0.00  0.00    +0.000 A 
ATOM     15  C   UNL     1       0.807   2.575  19.149  0.00  0.00    +0.000 A 
ATOM     16  N   UNL     1       0.910   3.370  18.062  0.00  0.00    +0.000 NA
ATOM     17  C   UNL     1       1.696   4.465  18.183  0.00  0.00    +0.000 A 
ENDBRANCH   1  12
BRANCH   1  18
ATOM     18  N   UNL     1       4.324   5.927  18.256  0.00  0.00    +0.000 NA
ATOM     19  H   UNL     1       3.832   5.962  17.365  0.00  0.00    +0.000 HD
BRANCH  18  25
ATOM     20  C   UNL     1       6.819   4.724  14.293  0.00  0.00    +0.000 C 
ATOM     21  O   UNL     1       7.624   5.611  14.008  0.00  0.00    +0.000 OA
ATOM     22  N   UNL     1       6.349   4.577  15.619  0.00  0.00    +0.000 N 
ATOM     23  C   UNL     1       6.873   5.550  16.581  0.00  0.00    +0.000 C 
ATOM     24  C   UNL     1       6.654   5.132  18.030  0.00  0.00    +0.000 C 
ATOM     25  C   UNL     1       5.196   4.737  18.317  0.00  0.00    +0.000 C 
ATOM     26  C   UNL     1       4.823   3.622  17.335  0.00  0.00    +0.000 C 
ATOM     27  C   UNL     1       5.003   4.060  15.887  0.00  0.00    +0.000 C 
BRANCH  20  31
ATOM     28  C   UNL     1       5.928   1.235  10.743  0.00  0.00    +0.000 C 
ATOM     29  C   UNL     1       5.857   2.333  11.732  0.00  0.00    +0.000 A 
ATOM     30  C   UNL     1       6.854   2.766  12.634  0.00  0.00    +0.000 A 
ATOM     31  C   UNL     1       6.294   3.850  13.272  0.00  0.00    +0.000 A 
ATOM     32  O   UNL     1       5.010   3.992  12.842  0.00  0.00    +0.000 OA
ATOM     33  N   UNL     1       4.744   3.065  11.849  0.00  0.00    +0.000 NA
ENDBRANCH  20  31
ENDBRANCH  18  25
ENDBRANCH   1  18
TORSDOF 6
ENDMDL
MODEL 7
REMARK VINA RESULT:      -9.2      1.141      1.741
REMARK  Name = 
REMARK  7 active torsions:
REMARK  status: ('A' for Active; 'I' for Inactive)
REMARK    1  A    between atoms: C_1  and  C_2
REMARK    2  A    between atoms: C_4  and  C_5
REMARK    3  A    between atoms: C_10  and  N_11
REMARK    4  A    between atoms: N_11  and  C_12
REMARK    5  A    between atoms: C_12  and  C_13
REMARK    6  A    between atoms: C_12  and  C_23
REMARK    7  A    between atoms: C_16  and  C_17
REMARK                            x       y       z     vdW  Elec       q    Type
REMARK                         _______ _______ _______ _____ _____    ______ ____
ROOT
ATOM      1  C   UNL     1       3.152   6.027  19.390  0.00  0.00    +0.000 C 
ENDROOT
BRANCH   1   2
ATOM      2  C   UNL     1       2.341   7.312  19.265  0.00  0.00    +0.000 A 
ATOM      3  C   UNL     1       2.304   8.014  18.049  0.00  0.00    +0.000 A 
ATOM      4  C   UNL     1       1.652   9.240  17.950  0.00  0.00    +0.000 A 
ATOM      5  C   UNL     1       1.026   9.802  19.069  0.00  0.00    +0.000 A 
ATOM      6  C   UNL     1       1.027   9.087  20.278  0.00  0.00    +0.000 A 
ATOM      7  C   UNL     1       1.675   7.853  20.375  0.00  0.00    +0.000 A 
BRANCH   5   8
ATOM      8  C   UNL     1       0.391  11.166  18.988  0.00  0.00    +0.000 C 
ATOM      9  F   UNL     1      -0.573  11.263  18.030  0.00  0.00    +0.000 F 
ATOM     10  F   UNL     1      -0.203  11.540  20.155  0.00  0.00    +0.000 F 
ATOM     11  F   UNL     1       1.298  12.141  18.701  0.00  0.00    +0.000 F 
ENDBRANCH   5   8
ENDBRANCH   1   2
BRANCH   1  12
ATOM     12  C   UNL     1       2.240   4.807  19.419  0.00  0.00    +0.000 A 
ATOM     13  C   UNL     1       2.009   4.047  20.573  0.00  0.00    +0.000 A 
ATOM     14  C   UNL     1       1.254   2.880  20.501  0.00  0.00    +0.000 A 
ATOM     15  C   UNL     1       0.736   2.509  19.273  0.00  0.00    +0.000 A 
ATOM     16  N   UNL     1       0.911   3.221  18.140  0.00  0.00    +0.000 NA
ATOM     17  C   UNL     1       1.663   4.342  18.236  0.00  0.00    +0.000 A 
ENDBRANCH   1  12
BRANCH   1  18
ATOM     18  N   UNL     1       4.173   5.926  18.322  0.00  0.00    +0.000 NA
ATOM     19  H   UNL     1       3.692   5.960  17.425  0.00  0.00    +0.000 HD
BRANCH  18  25
ATOM     20  C   UNL     1       6.790   4.772  14.423  0.00  0.00    +0.000 C 
ATOM     21  O   UNL     1       7.604   5.663  14.174  0.00  0.00    +0.000 OA
ATOM     22  N   UNL     1       6.280   4.608  15.731  0.00  0.00    +0.000 N 
ATOM     23  C   UNL     1       6.774   5.569  16.722  0.00  0.00    +0.000 C 
ATOM     24  C   UNL     1       6.509   5.133  18.158  0.00  0.00    +0.000 C 
ATOM     25  C   UNL     1       5.043   4.735  18.395  0.00  0.00    +0.000 C 
ATOM     26  C   UNL     1       4.700   3.632  17.387  0.00  0.00    +0.000 C 
ATOM     27  C   UNL     1       4.926   4.088  15.952  0.00  0.00    +0.000 C 
BRANCH  20  31
ATOM     28  C   UNL     1       6.017   1.346  10.785  0.00  0.00    +0.000 C 
ATOM     29  C   UNL     1       5.911   2.421  11.796  0.00  0.00    +0.000 A 
ATOM     30  C   UNL     1       6.887   2.852  12.723  0.00  0.00    +0.000 A 
ATOM     31  C   UNL     1       6.297   3.911  13.375  0.00  0.00    +0.000 A 
ATOM     32  O   UNL     1       5.017   4.039  12.929  0.00  0.00    +0.000 OA
ATOM     33  N   UNL     1       4.783   3.130  11.911  0.00  0.00    +0.000 NA
ENDBRANCH  20  31
ENDBRANCH  18  25
ENDBRANCH   1  18
TORSDOF 6
ENDMDL
MODEL 8
REMARK VINA RESULT:      -9.0      1.332      1.892
REMARK  Name = 
REMARK  7 active torsions:
REMARK  status: ('A' for Active; 'I' for Inactive)
REMARK    1  A    between atoms: C_1  and  C_2
REMARK    2  A    between atoms: C_4  and  C_5
REMARK    3  A    between atoms: C_10  and  N_11
REMARK    4  A    between atoms: N_11  and  C_12
REMARK    5  A    between atoms: C_12  and  C_13
REMARK    6  A    between atoms: C_12  and  C_23
REMARK    7  A    between atoms: C_16  and  C_17
REMARK                            x       y       z     vdW  Elec       q    Type
REMARK                         _______ _______ _______ _____ _____    ______ ____
ROOT
ATOM      1  C   UNL     1       2.878   5.937  19.985  0.00  0.00    +0.000 C 
ENDROOT
BRANCH   1   2
ATOM      2  C   UNL     1       2.044   7.212  19.917  0.00  0.00    +0.000 A 
ATOM      3  C   UNL     1       2.095   8.035  18.781  0.00  0.00    +0.000 A 
ATOM      4  C   UNL     1       1.420   9.252  18.748  0.00  0.00    +0.000 A 
ATOM      5  C   UNL     1       0.681   9.683  19.856  0.00  0.00    +0.000 A 
ATOM      6  C   UNL     1       0.595   8.848  20.981  0.00  0.00    +0.000 A 
ATOM      7  C   UNL     1       1.267   7.622  21.012  0.00  0.00    +0.000 A 
BRANCH   5   8
ATOM      8  C   UNL     1       0.017  11.036  19.856  0.00  0.00    +0.000 C 
ATOM      9  F   UNL     1      -1.135  11.078  19.129  0.00  0.00    +0.000 F 
ATOM     10  F   UNL     1      -0.314  11.459  21.106  0.00  0.00    +0.000 F 
ATOM     11  F   UNL     1       0.819  12.005  19.333  0.00  0.00    +0.000 F 
ENDBRANCH   5   8
ENDBRANCH   1   2
BRANCH   1  12
ATOM     12  C   UNL     1       2.014   4.707  19.731  0.00  0.00    +0.000 A 
ATOM     13  C   UNL     1       1.716   3.759  20.719  0.00  0.00    +0.000 A 
ATOM     14  C   UNL     1       1.016   2.603  20.388  0.00  0.00    +0.000 A 
ATOM     15  C   UNL     1       0.619   2.430  19.074  0.00  0.00    +0.000 A 
ATOM     16  N   UNL     1       0.861   3.327  18.094  0.00  0.00    +0.000 NA
ATOM     17  C   UNL     1       1.558   4.433  18.441  0.00  0.00    +0.000 A 
ENDBRANCH   1  12
BRANCH   1  18
ATOM     18  N   UNL     1       4.035   5.998  19.063  0.00  0.00    +0.000 NA
ATOM     19  H   UNL     1       3.678   6.158  18.123  0.00  0.00    +0.000 HD
BRANCH  18  25
ATOM     20  C   UNL     1       7.250   5.489  15.488  0.00  0.00    +0.000 C 
ATOM     21  O   UNL     1       8.066   6.411  15.511  0.00  0.00    +0.000 OA
ATOM     22  N   UNL     1       6.551   5.117  16.660  0.00  0.00    +0.000 N 
ATOM     23  C   UNL     1       6.859   5.911  17.852  0.00  0.00    +0.000 C 
ATOM     24  C   UNL     1       6.391   5.252  19.145  0.00  0.00    +0.000 C 
ATOM     25  C   UNL     1       4.918   4.814  19.085  0.00  0.00    +0.000 C 
ATOM     26  C   UNL     1       4.766   3.884  17.877  0.00  0.00    +0.000 C 
ATOM     27  C   UNL     1       5.195   4.562  16.583  0.00  0.00    +0.000 C 
BRANCH  20  31
ATOM     28  C   UNL     1       5.553   2.522  11.761  0.00  0.00    +0.000 C 
ATOM     29  C   UNL     1       6.224   3.542  12.597  0.00  0.00    +0.000 A 
ATOM     30  C   UNL     1       6.041   3.806  13.973  0.00  0.00    +0.000 A 
ATOM     31  C   UNL     1       6.949   4.801  14.256  0.00  0.00    +0.000 A 
ATOM     32  O   UNL     1       7.565   5.170  13.098  0.00  0.00    +0.000 OA
ATOM     33  N   UNL     1       7.140   4.357  12.062  0.00  0.00    +0.000 NA
ENDBRANCH  20  31
ENDBRANCH  18  25
ENDBRANCH   1  18
TORSDOF 6
ENDMDL
MODEL 9
REMARK VINA RESULT:      -8.0      7.427     12.119
REMARK  Name = 
REMARK  7 active torsions:
REMARK  status: ('A' for Active; 'I' for Inactive)
REMARK    1  A    between atoms: C_1  and  C_2
REMARK    2  A    between atoms: C_4  and  C_5
REMARK    3  A    between atoms: C_10  and  N_11
REMARK    4  A    between atoms: N_11  and  C_12
REMARK    5  A    between atoms: C_12  and  C_13
REMARK    6  A    between atoms: C_12  and  C_23
REMARK    7  A    between atoms: C_16  and  C_17
REMARK                            x       y       z     vdW  Elec       q    Type
REMARK                         _______ _______ _______ _____ _____    ______ ____
ROOT
ATOM      1  C   UNL     1      -0.664  11.035  19.219  0.00  0.00    +0.000 C 
ENDROOT
BRANCH   1   2
ATOM      2  C   UNL     1       0.414   9.962  19.097  0.00  0.00    +0.000 A 
ATOM      3  C   UNL     1       1.132   9.809  17.900  0.00  0.00    +0.000 A 
ATOM      4  C   UNL     1       2.044   8.770  17.741  0.00  0.00    +0.000 A 
ATOM      5  C   UNL     1       2.256   7.849  18.774  0.00  0.00    +0.000 A 
ATOM      6  C   UNL     1       1.569   8.019  19.987  0.00  0.00    +0.000 A 
ATOM      7  C   UNL     1       0.659   9.067  20.149  0.00  0.00    +0.000 A 
BRANCH   5   8
ATOM      8  C   UNL     1       3.181   6.675  18.577  0.00  0.00    +0.000 C 
ATOM      9  F   UNL     1       3.637   6.139  19.744  0.00  0.00    +0.000 F 
ATOM     10  F   UNL     1       2.592   5.651  17.901  0.00  0.00    +0.000 F 
ATOM     11  F   UNL     1       4.292   7.006  17.863  0.00  0.00    +0.000 F 
ENDBRANCH   5   8
ENDBRANCH   1   2
BRANCH   1  12
ATOM     12  C   UNL     1      -1.765  10.821  18.188  0.00  0.00    +0.000 A 
ATOM     13  C   UNL     1      -1.692   9.858  17.172  0.00  0.00    +0.000 A 
ATOM     14  C   UNL     1      -2.683   9.794  16.198  0.00  0.00    +0.000 A 
ATOM     15  C   UNL     1      -3.733  10.692  16.271  0.00  0.00    +0.000 A 
ATOM     16  N   UNL     1      -3.860  11.619  17.244  0.00  0.00    +0.000 NA
ATOM     17  C   UNL     1      -2.873  11.669  18.168  0.00  0.00    +0.000 A 
ENDBRANCH   1  12
BRANCH   1  18
ATOM     18  N   UNL     1      -1.204  11.104  20.596  0.00  0.00    +0.000 NA
ATOM     19  H   UNL     1      -2.211  10.959  20.545  0.00  0.00    +0.000 HD
BRANCH  18  25
ATOM     20  C   UNL     1      -4.482  12.761  23.740  0.00  0.00    +0.000 C 
ATOM     21  O   UNL     1      -4.635  11.958  24.662  0.00  0.00    +0.000 OA
ATOM     22  N   UNL     1      -3.280  12.781  22.996  0.00  0.00    +0.000 N 
ATOM     23  C   UNL     1      -2.280  11.787  23.393  0.00  0.00    +0.000 C 
ATOM     24  C   UNL     1      -0.890  12.086  22.843  0.00  0.00    +0.000 C 
ATOM     25  C   UNL     1      -0.899  12.349  21.329  0.00  0.00    +0.000 C 
ATOM     26  C   UNL     1      -1.879  13.498  21.069  0.00  0.00    +0.000 C 
ATOM     27  C   UNL     1      -3.276  13.175  21.583  0.00  0.00    +0.000 C 
BRANCH  20  31
ATOM     28  C   UNL     1      -7.679  16.606  22.990  0.00  0.00    +0.000 C 
ATOM     29  C   UNL     1      -6.956  15.315  22.996  0.00  0.00    +0.000 A 
ATOM     30  C   UNL     1      -5.725  15.003  23.614  0.00  0.00    +0.000 A 
ATOM     31  C   UNL     1      -5.544  13.661  23.363  0.00  0.00    +0.000 A 
ATOM     32  O   UNL     1      -6.559  13.227  22.565  0.00  0.00    +0.000 OA
ATOM     33  N   UNL     1      -7.467  14.253  22.363  0.00  0.00    +0.000 NA
ENDBRANCH  20  31
ENDBRANCH  18  25
ENDBRANCH   1  18
TORSDOF 6
ENDMDL
