MODEL 1
REMARK VINA RESULT:      -7.0      0.000      0.000
REMARK  Name = 
REMARK  6 active torsions:
REMARK  status: ('A' for Active; 'I' for Inactive)
REMARK    1  A    between atoms: N_1  and  C_2
REMARK    2  A    between atoms: C_2  and  C_3
REMARK    3  A    between atoms: N_5  and  C_6
REMARK    4  A    between atoms: N_11  and  C_12
REMARK    5  A    between atoms: C_12  and  C_13
REMARK    6  A    between atoms: N_15  and  O_16
REMARK                            x       y       z     vdW  Elec       q    Type
REMARK                         _______ _______ _______ _____ _____    ______ ____
ROOT
ATOM      1  C   UNL     1       4.905   5.754  17.623  0.00  0.00    +0.000 C 
ATOM      2  C   UNL     1       3.583   6.524  17.659  0.00  0.00    +0.000 C 
ATOM      3  C   UNL     1       2.825   6.241  18.936  0.00  0.00    +0.000 C 
ATOM      4  C   UNL     1       2.537   4.762  18.973  0.00  0.00    +0.000 C 
ATOM      5  O   UNL     1       1.408   4.323  19.173  0.00  0.00    +0.000 OA
ATOM      6  N   UNL     1       3.664   3.971  18.828  0.00  0.00    +0.000 N 
ATOM      7  C   UNL     1       4.910   4.472  18.479  0.00  0.00    +0.000 C 
ATOM      8  O   UNL     1       5.953   3.859  18.720  0.00  0.00    +0.000 OA
ENDROOT
BRANCH   1  11
ATOM      9  C   UNL     1       6.533   5.509  15.762  0.00  0.00    +0.000 C 
ATOM     10  O   UNL     1       7.458   5.984  16.412  0.00  0.00    +0.000 OA
ATOM     11  N   UNL     1       5.261   5.376  16.262  0.00  0.00    +0.000 N 
ATOM     12  H   UNL     1       4.563   4.983  15.626  0.00  0.00    +0.000 HD
BRANCH   9  13
ATOM     13  C   UNL     1       6.722   4.975  14.338  0.00  0.00    +0.000 C 
BRANCH  13  14
ATOM     14  N   UNL     1       6.296   3.569  14.214  0.00  0.00    +0.000 NA
ATOM     15  H   UNL     1       5.970   3.252  15.128  0.00  0.00    +0.000 HD
ATOM     16  H   UNL     1       7.116   2.996  14.004  0.00  0.00    +0.000 HD
ENDBRANCH  13  14
ENDBRANCH   9  13
ENDBRANCH   1  11
BRANCH   6  17
ATOM     17  C   UNL     1       3.556   2.536  19.035  0.00  0.00    +0.000 C 
BRANCH  17  18
ATOM     18  C   UNL     1       4.027   2.207  20.452  0.00  0.00    +0.000 C 
ATOM     19  O   UNL     1       3.392   2.464  21.477  0.00  0.00    +0.000 OA
ATOM     20  N   UNL     1       5.228   1.536  20.496  0.00  0.00    +0.000 N 
ATOM     21  H   UNL     1       5.912   1.545  19.746  0.00  0.00    +0.000 HD
BRANCH  20  22
ATOM     22  O   UNL     1       5.716   1.230  21.788  0.00  0.00    +0.000 OA
ATOM     23  H   UNL     1       6.342   0.493  21.609  0.00  0.00    +0.000 HD
ENDBRANCH  20  22
ENDBRANCH  17  18
ENDBRANCH   6  17
TORSDOF 6
ENDMDL
MODEL 2
REMARK VINA RESULT:      -6.8      2.078      5.745
REMARK  Name = 
REMARK  6 active torsions:
REMARK  status: ('A' for Active; 'I' for Inactive)
REMARK    1  A    between atoms: N_1  and  C_2
REMARK    2  A    between atoms: C_2  and  C_3
REMARK    3  A    between atoms: N_5  and  C_6
REMARK    4  A    between atoms: N_11  and  C_12
REMARK    5  A    between atoms: C_12  and  C_13
REMARK    6  A    between atoms: N_15  and  O_16
REMARK                            x       y       z     vdW  Elec       q    Type
REMARK                         _______ _______ _______ _____ _____    ______ ____
ROOT
ATOM      1  C   UNL     1       3.271   5.066  18.239  0.00  0.00    +0.000 C 
ATOM      2  C   UNL     1       3.381   6.583  18.406  0.00  0.00    +0.000 C 
ATOM      3  C   UNL     1       4.052   7.213  17.206  0.00  0.00    +0.000 C 
ATOM      4  C   UNL     1       5.436   6.626  17.101  0.00  0.00    +0.000 C 
ATOM      5  O   UNL     1       6.437   7.330  17.002  0.00  0.00    +0.000 OA
ATOM      6  N   UNL     1       5.454   5.242  17.064  0.00  0.00    +0.000 N 
ATOM      7  C   UNL     1       4.334   4.457  17.304  0.00  0.00    +0.000 C 
ATOM      8  O   UNL     1       4.255   3.293  16.906  0.00  0.00    +0.000 OA
ENDROOT
BRANCH   1  11
ATOM      9  C   UNL     1       2.386   3.560  20.006  0.00  0.00    +0.000 C 
ATOM     10  O   UNL     1       1.333   3.360  19.410  0.00  0.00    +0.000 OA
ATOM     11  N   UNL     1       3.373   4.384  19.523  0.00  0.00    +0.000 N 
ATOM     12  H   UNL     1       4.202   4.492  20.111  0.00  0.00    +0.000 HD
BRANCH   9  13
ATOM     13  C   UNL     1       2.719   2.870  21.334  0.00  0.00    +0.000 C 
BRANCH  13  14
ATOM     14  N   UNL     1       1.503   2.483  22.074  0.00  0.00    +0.000 NA
ATOM     15  H   UNL     1       1.789   2.019  22.937  0.00  0.00    +0.000 HD
ATOM     16  H   UNL     1       1.004   1.772  21.535  0.00  0.00    +0.000 HD
ENDBRANCH  13  14
ENDBRANCH   9  13
ENDBRANCH   1  11
BRANCH   6  17
ATOM     17  C   UNL     1       6.701   4.554  16.774  0.00  0.00    +0.000 C 
BRANCH  17  18
ATOM     18  C   UNL     1       6.912   4.538  15.260  0.00  0.00    +0.000 C 
ATOM     19  O   UNL     1       7.627   5.333  14.646  0.00  0.00    +0.000 OA
ATOM     20  N   UNL     1       6.266   3.505  14.620  0.00  0.00    +0.000 N 
ATOM     21  H   UNL     1       5.468   3.009  15.006  0.00  0.00    +0.000 HD
BRANCH  20  22
ATOM     22  O   UNL     1       6.413   3.462  13.214  0.00  0.00    +0.000 OA
ATOM     23  H   UNL     1       6.984   2.671  13.085  0.00  0.00    +0.000 HD
ENDBRANCH  20  22
ENDBRANCH  17  18
ENDBRANCH   6  17
TORSDOF 6
ENDMDL
MODEL 3
REMARK VINA RESULT:      -6.7      2.227      5.835
REMARK  Name = 
REMARK  6 active torsions:
REMARK  status: ('A' for Active; 'I' for Inactive)
REMARK    1  A    between atoms: N_1  and  C_2
REMARK    2  A    between atoms: C_2  and  C_3
REMARK    3  A    between atoms: N_5  and  C_6
REMARK    4  A    between atoms: N_11  and  C_12
REMARK    5  A    between atoms: C_12  and  C_13
REMARK    6  A    between atoms: N_15  and  O_16
REMARK                            x       y       z     vdW  Elec       q    Type
REMARK                         _______ _______ _______ _____ _____    ______ ____
ROOT
ATOM      1  C   UNL     1       3.039   5.167  18.341  0.00  0.00    +0.000 C 
ATOM      2  C   UNL     1       3.237   6.677  18.495  0.00  0.00    +0.000 C 
ATOM      3  C   UNL     1       3.884   7.268  17.262  0.00  0.00    +0.000 C 
ATOM      4  C   UNL     1       5.229   6.608  17.098  0.00  0.00    +0.000 C 
ATOM      5  O   UNL     1       6.260   7.257  16.949  0.00  0.00    +0.000 OA
ATOM      6  N   UNL     1       5.172   5.225  17.067  0.00  0.00    +0.000 N 
ATOM      7  C   UNL     1       4.024   4.501  17.361  0.00  0.00    +0.000 C 
ATOM      8  O   UNL     1       3.865   3.341  16.973  0.00  0.00    +0.000 OA
ENDROOT
BRANCH   1  11
ATOM      9  C   UNL     1       2.198   3.638  20.109  0.00  0.00    +0.000 C 
ATOM     10  O   UNL     1       1.146   3.417  19.519  0.00  0.00    +0.000 OA
ATOM     11  N   UNL     1       3.163   4.484  19.622  0.00  0.00    +0.000 N 
ATOM     12  H   UNL     1       3.994   4.609  20.206  0.00  0.00    +0.000 HD
BRANCH   9  13
ATOM     13  C   UNL     1       2.554   2.952  21.433  0.00  0.00    +0.000 C 
BRANCH  13  14
ATOM     14  N   UNL     1       1.360   2.424  22.119  0.00  0.00    +0.000 NA
ATOM     15  H   UNL     1       0.986   3.159  22.721  0.00  0.00    +0.000 HD
ATOM     16  H   UNL     1       1.650   1.676  22.752  0.00  0.00    +0.000 HD
ENDBRANCH  13  14
ENDBRANCH   9  13
ENDBRANCH   1  11
BRANCH   6  17
ATOM     17  C   UNL     1       6.366   4.471  16.724  0.00  0.00    +0.000 C 
BRANCH  17  18
ATOM     18  C   UNL     1       6.619   4.608  15.222  0.00  0.00    +0.000 C 
ATOM     19  O   UNL     1       5.919   4.095  14.346  0.00  0.00    +0.000 OA
ATOM     20  N   UNL     1       7.690   5.413  14.910  0.00  0.00    +0.000 N 
ATOM     21  H   UNL     1       8.448   5.624  15.552  0.00  0.00    +0.000 HD
BRANCH  20  22
ATOM     22  O   UNL     1       7.978   5.551  13.532  0.00  0.00    +0.000 OA
ATOM     23  H   UNL     1       7.082   5.548  13.127  0.00  0.00    +0.000 HD
ENDBRANCH  20  22
ENDBRANCH  17  18
ENDBRANCH   6  17
TORSDOF 6
ENDMDL
MODEL 4
REMARK VINA RESULT:      -6.7      1.622      1.714
REMARK  Name = 
REMARK  6 active torsions:
REMARK  status: ('A' for Active; 'I' for Inactive)
REMARK    1  A    between atoms: N_1  and  C_2
REMARK    2  A    between atoms: C_2  and  C_3
REMARK    3  A    between atoms: N_5  and  C_6
REMARK    4  A    between atoms: N_11  and  C_12
REMARK    5  A    between atoms: C_12  and  C_13
REMARK    6  A    between atoms: N_15  and  O_16
REMARK                            x       y       z     vdW  Elec       q    Type
REMARK                         _______ _______ _______ _____ _____    ______ ____
ROOT
ATOM      1  C   UNL     1       4.370   6.042  18.171  0.00  0.00    +0.000 C 
ATOM      2  C   UNL     1       3.029   6.778  18.203  0.00  0.00    +0.000 C 
ATOM      3  C   UNL     1       2.431   6.756  19.592  0.00  0.00    +0.000 C 
ATOM      4  C   UNL     1       2.210   5.313  19.966  0.00  0.00    +0.000 C 
ATOM      5  O   UNL     1       1.130   4.905  20.383  0.00  0.00    +0.000 OA
ATOM      6  N   UNL     1       3.346   4.528  19.855  0.00  0.00    +0.000 N 
ATOM      7  C   UNL     1       4.524   4.967  19.266  0.00  0.00    +0.000 C 
ATOM      8  O   UNL     1       5.611   4.437  19.503  0.00  0.00    +0.000 OA
ENDROOT
BRANCH   1  11
ATOM      9  C   UNL     1       5.630   5.721  16.054  0.00  0.00    +0.000 C 
ATOM     10  O   UNL     1       6.439   6.605  16.317  0.00  0.00    +0.000 OA
ATOM     11  N   UNL     1       4.587   5.393  16.885  0.00  0.00    +0.000 N 
ATOM     12  H   UNL     1       3.963   4.652  16.558  0.00  0.00    +0.000 HD
BRANCH   9  13
ATOM     13  C   UNL     1       5.735   4.866  14.786  0.00  0.00    +0.000 C 
BRANCH  13  14
ATOM     14  N   UNL     1       7.015   5.074  14.085  0.00  0.00    +0.000 NA
ATOM     15  H   UNL     1       7.503   4.179  14.038  0.00  0.00    +0.000 HD
ATOM     16  H   UNL     1       7.609   5.677  14.659  0.00  0.00    +0.000 HD
ENDBRANCH  13  14
ENDBRANCH   9  13
ENDBRANCH   1  11
BRANCH   6  17
ATOM     17  C   UNL     1       3.322   3.167  20.364  0.00  0.00    +0.000 C 
BRANCH  17  18
ATOM     18  C   UNL     1       3.176   2.204  19.185  0.00  0.00    +0.000 C 
ATOM     19  O   UNL     1       2.161   2.096  18.493  0.00  0.00    +0.000 OA
ATOM     20  N   UNL     1       4.315   1.482  18.913  0.00  0.00    +0.000 N 
ATOM     21  H   UNL     1       5.058   1.318  19.585  0.00  0.00    +0.000 HD
BRANCH  20  22
ATOM     22  O   UNL     1       4.220   0.560  17.844  0.00  0.00    +0.000 OA
ATOM     23  H   UNL     1       4.772  -0.190  18.161  0.00  0.00    +0.000 HD
ENDBRANCH  20  22
ENDBRANCH  17  18
ENDBRANCH   6  17
TORSDOF 6
ENDMDL
MODEL 5
REMARK VINA RESULT:      -6.5      1.238      1.584
REMARK  Name = 
REMARK  6 active torsions:
REMARK  status: ('A' for Active; 'I' for Inactive)
REMARK    1  A    between atoms: N_1  and  C_2
REMARK    2  A    between atoms: C_2  and  C_3
REMARK    3  A    between atoms: N_5  and  C_6
REMARK    4  A    between atoms: N_11  and  C_12
REMARK    5  A    between atoms: C_12  and  C_13
REMARK    6  A    between atoms: N_15  and  O_16
REMARK                            x       y       z     vdW  Elec       q    Type
REMARK                         _______ _______ _______ _____ _____    ______ ____
ROOT
ATOM      1  C   UNL     1       5.055   5.655  17.707  0.00  0.00    +0.000 C 
ATOM      2  C   UNL     1       3.849   6.585  17.558  0.00  0.00    +0.000 C 
ATOM      3  C   UNL     1       2.924   6.469  18.749  0.00  0.00    +0.000 C 
ATOM      4  C   UNL     1       2.443   5.042  18.811  0.00  0.00    +0.000 C 
ATOM      5  O   UNL     1       1.252   4.759  18.895  0.00  0.00    +0.000 OA
ATOM      6  N   UNL     1       3.466   4.109  18.830  0.00  0.00    +0.000 N 
ATOM      7  C   UNL     1       4.798   4.431  18.608  0.00  0.00    +0.000 C 
ATOM      8  O   UNL     1       5.719   3.707  18.993  0.00  0.00    +0.000 OA
ENDROOT
BRANCH   1  11
ATOM      9  C   UNL     1       6.723   5.499  15.872  0.00  0.00    +0.000 C 
ATOM     10  O   UNL     1       7.507   6.264  16.422  0.00  0.00    +0.000 OA
ATOM     11  N   UNL     1       5.506   5.162  16.412  0.00  0.00    +0.000 N 
ATOM     12  H   UNL     1       4.924   4.529  15.859  0.00  0.00    +0.000 HD
BRANCH   9  13
ATOM     13  C   UNL     1       7.048   4.810  14.542  0.00  0.00    +0.000 C 
BRANCH  13  14
ATOM     14  N   UNL     1       8.041   5.566  13.757  0.00  0.00    +0.000 NA
ATOM     15  H   UNL     1       8.885   4.998  13.677  0.00  0.00    +0.000 HD
ATOM     16  H   UNL     1       8.318   6.393  14.290  0.00  0.00    +0.000 HD
ENDBRANCH  13  14
ENDBRANCH   9  13
ENDBRANCH   1  11
BRANCH   6  17
ATOM     17  C   UNL     1       3.151   2.713  19.080  0.00  0.00    +0.000 C 
BRANCH  17  18
ATOM     18  C   UNL     1       2.943   2.517  20.582  0.00  0.00    +0.000 C 
ATOM     19  O   UNL     1       3.850   2.321  21.393  0.00  0.00    +0.000 OA
ATOM     20  N   UNL     1       1.630   2.629  20.980  0.00  0.00    +0.000 N 
ATOM     21  H   UNL     1       0.836   2.509  20.359  0.00  0.00    +0.000 HD
BRANCH  20  22
ATOM     22  O   UNL     1       1.385   2.433  22.359  0.00  0.00    +0.000 OA
ATOM     23  H   UNL     1       2.111   2.947  22.779  0.00  0.00    +0.000 HD
ENDBRANCH  20  22
ENDBRANCH  17  18
ENDBRANCH   6  17
TORSDOF 6
ENDMDL
MODEL 6
REMARK VINA RESULT:      -6.4      1.743      2.232
REMARK  Name = 
REMARK  6 active torsions:
REMARK  status: ('A' for Active; 'I' for Inactive)
REMARK    1  A    between atoms: N_1  and  C_2
REMARK    2  A    between atoms: C_2  and  C_3
REMARK    3  A    between atoms: N_5  and  C_6
REMARK    4  A    between atoms: N_11  and  C_12
REMARK    5  A    between atoms: C_12  and  C_13
REMARK    6  A    between atoms: N_15  and  O_16
REMARK                            x       y       z     vdW  Elec       q    Type
REMARK                         _______ _______ _______ _____ _____    ______ ____
ROOT
ATOM      1  C   UNL     1       4.424   5.945  18.100  0.00  0.00    +0.000 C 
ATOM      2  C   UNL     1       3.182   6.829  18.231  0.00  0.00    +0.000 C 
ATOM      3  C   UNL     1       2.670   6.837  19.654  0.00  0.00    +0.000 C 
ATOM      4  C   UNL     1       2.306   5.419  20.012  0.00  0.00    +0.000 C 
ATOM      5  O   UNL     1       1.213   5.126  20.487  0.00  0.00    +0.000 OA
ATOM      6  N   UNL     1       3.335   4.513  19.814  0.00  0.00    +0.000 N 
ATOM      7  C   UNL     1       4.518   4.830  19.160  0.00  0.00    +0.000 C 
ATOM      8  O   UNL     1       5.549   4.173  19.318  0.00  0.00    +0.000 OA
ENDROOT
BRANCH   1  11
ATOM      9  C   UNL     1       5.528   5.511  15.917  0.00  0.00    +0.000 C 
ATOM     10  O   UNL     1       6.467   6.261  16.161  0.00  0.00    +0.000 OA
ATOM     11  N   UNL     1       4.487   5.311  16.789  0.00  0.00    +0.000 N 
ATOM     12  H   UNL     1       3.747   4.678  16.476  0.00  0.00    +0.000 HD
BRANCH   9  13
ATOM     13  C   UNL     1       5.451   4.689  14.626  0.00  0.00    +0.000 C 
BRANCH  13  14
ATOM     14  N   UNL     1       6.385   3.548  14.641  0.00  0.00    +0.000 NA
ATOM     15  H   UNL     1       6.237   3.026  15.506  0.00  0.00    +0.000 HD
ATOM     16  H   UNL     1       7.340   3.908  14.701  0.00  0.00    +0.000 HD
ENDBRANCH  13  14
ENDBRANCH   9  13
ENDBRANCH   1  11
BRANCH   6  17
ATOM     17  C   UNL     1       3.184   3.150  20.295  0.00  0.00    +0.000 C 
BRANCH  17  18
ATOM     18  C   UNL     1       2.484   2.323  19.216  0.00  0.00    +0.000 C 
ATOM     19  O   UNL     1       3.066   1.635  18.375  0.00  0.00    +0.000 OA
ATOM     20  N   UNL     1       1.110   2.365  19.289  0.00  0.00    +0.000 N 
ATOM     21  H   UNL     1       0.588   3.102  19.753  0.00  0.00    +0.000 HD
BRANCH  20  22
ATOM     22  O   UNL     1       0.417   1.633  18.297  0.00  0.00    +0.000 OA
ATOM     23  H   UNL     1       0.100   2.342  17.693  0.00  0.00    +0.000 HD
ENDBRANCH  20  22
ENDBRANCH  17  18
ENDBRANCH   6  17
TORSDOF 6
ENDMDL
MODEL 7
REMARK VINA RESULT:      -6.4      1.728      5.700
REMARK  Name = 
REMARK  6 active torsions:
REMARK  status: ('A' for Active; 'I' for Inactive)
REMARK    1  A    between atoms: N_1  and  C_2
REMARK    2  A    between atoms: C_2  and  C_3
REMARK    3  A    between atoms: N_5  and  C_6
REMARK    4  A    between atoms: N_11  and  C_12
REMARK    5  A    between atoms: C_12  and  C_13
REMARK    6  A    between atoms: N_15  and  O_16
REMARK                            x       y       z     vdW  Elec       q    Type
REMARK                         _______ _______ _______ _____ _____    ______ ____
ROOT
ATOM      1  C   UNL     1       3.834   4.777  18.001  0.00  0.00    +0.000 C 
ATOM      2  C   UNL     1       3.898   6.272  18.323  0.00  0.00    +0.000 C 
ATOM      3  C   UNL     1       4.403   7.061  17.136  0.00  0.00    +0.000 C 
ATOM      4  C   UNL     1       5.790   6.565  16.820  0.00  0.00    +0.000 C 
ATOM      5  O   UNL     1       6.743   7.328  16.693  0.00  0.00    +0.000 OA
ATOM      6  N   UNL     1       5.862   5.195  16.626  0.00  0.00    +0.000 N 
ATOM      7  C   UNL     1       4.810   4.330  16.895  0.00  0.00    +0.000 C 
ATOM      8  O   UNL     1       4.736   3.212  16.380  0.00  0.00    +0.000 OA
ENDROOT
BRANCH   1  11
ATOM      9  C   UNL     1       3.281   2.954  19.596  0.00  0.00    +0.000 C 
ATOM     10  O   UNL     1       2.234   2.672  19.022  0.00  0.00    +0.000 OA
ATOM     11  N   UNL     1       4.108   3.969  19.183  0.00  0.00    +0.000 N 
ATOM     12  H   UNL     1       4.946   4.129  19.746  0.00  0.00    +0.000 HD
BRANCH   9  13
ATOM     13  C   UNL     1       3.786   2.168  20.810  0.00  0.00    +0.000 C 
BRANCH  13  14
ATOM     14  N   UNL     1       5.155   1.658  20.606  0.00  0.00    +0.000 NA
ATOM     15  H   UNL     1       5.732   1.969  21.388  0.00  0.00    +0.000 HD
ATOM     16  H   UNL     1       5.552   2.109  19.779  0.00  0.00    +0.000 HD
ENDBRANCH  13  14
ENDBRANCH   9  13
ENDBRANCH   1  11
BRANCH   6  17
ATOM     17  C   UNL     1       7.096   4.611  16.130  0.00  0.00    +0.000 C 
BRANCH  17  18
ATOM     18  C   UNL     1       7.099   4.693  14.603  0.00  0.00    +0.000 C 
ATOM     19  O   UNL     1       7.678   5.564  13.951  0.00  0.00    +0.000 OA
ATOM     20  N   UNL     1       6.429   3.659  13.990  0.00  0.00    +0.000 N 
ATOM     21  H   UNL     1       5.720   3.092  14.446  0.00  0.00    +0.000 HD
BRANCH  20  22
ATOM     22  O   UNL     1       6.384   3.704  12.577  0.00  0.00    +0.000 OA
ATOM     23  H   UNL     1       7.336   3.771  12.337  0.00  0.00    +0.000 HD
ENDBRANCH  20  22
ENDBRANCH  17  18
ENDBRANCH   6  17
TORSDOF 6
ENDMDL
MODEL 8
REMARK VINA RESULT:      -6.4      2.220      5.133
REMARK  Name = 
REMARK  6 active torsions:
REMARK  status: ('A' for Active; 'I' for Inactive)
REMARK    1  A    between atoms: N_1  and  C_2
REMARK    2  A    between atoms: C_2  and  C_3
REMARK    3  A    between atoms: N_5  and  C_6
REMARK    4  A    between atoms: N_11  and  C_12
REMARK    5  A    between atoms: C_12  and  C_13
REMARK    6  A    between atoms: N_15  and  O_16
REMARK                            x       y       z     vdW  Elec       q    Type
REMARK                         _______ _______ _______ _____ _____    ______ ____
ROOT
ATOM      1  C   UNL     1       3.256   5.048  18.229  0.00  0.00    +0.000 C 
ATOM      2  C   UNL     1       3.307   6.558  18.471  0.00  0.00    +0.000 C 
ATOM      3  C   UNL     1       3.929   7.275  17.293  0.00  0.00    +0.000 C 
ATOM      4  C   UNL     1       5.333   6.752  17.136  0.00  0.00    +0.000 C 
ATOM      5  O   UNL     1       6.302   7.501  17.055  0.00  0.00    +0.000 OA
ATOM      6  N   UNL     1       5.406   5.374  17.028  0.00  0.00    +0.000 N 
ATOM      7  C   UNL     1       4.324   4.532  17.246  0.00  0.00    +0.000 C 
ATOM      8  O   UNL     1       4.285   3.387  16.790  0.00  0.00    +0.000 OA
ENDROOT
BRANCH   1  11
ATOM      9  C   UNL     1       2.367   3.650  20.081  0.00  0.00    +0.000 C 
ATOM     10  O   UNL     1       1.223   3.663  19.639  0.00  0.00    +0.000 OA
ATOM     11  N   UNL     1       3.409   4.307  19.474  0.00  0.00    +0.000 N 
ATOM     12  H   UNL     1       4.318   4.244  19.940  0.00  0.00    +0.000 HD
BRANCH   9  13
ATOM     13  C   UNL     1       2.751   2.859  21.337  0.00  0.00    +0.000 C 
BRANCH  13  14
ATOM     14  N   UNL     1       1.568   2.482  22.133  0.00  0.00    +0.000 NA
ATOM     15  H   UNL     1       0.941   1.941  21.537  0.00  0.00    +0.000 HD
ATOM     16  H   UNL     1       1.051   3.331  22.373  0.00  0.00    +0.000 HD
ENDBRANCH  13  14
ENDBRANCH   9  13
ENDBRANCH   1  11
BRANCH   6  17
ATOM     17  C   UNL     1       6.675   4.754  16.682  0.00  0.00    +0.000 C 
BRANCH  17  18
ATOM     18  C   UNL     1       7.536   4.662  17.942  0.00  0.00    +0.000 C 
ATOM     19  O   UNL     1       8.612   4.065  18.011  0.00  0.00    +0.000 OA
ATOM     20  N   UNL     1       7.029   5.362  19.013  0.00  0.00    +0.000 N 
ATOM     21  H   UNL     1       6.053   5.626  19.109  0.00  0.00    +0.000 HD
BRANCH  20  22
ATOM     22  O   UNL     1       7.780   5.288  20.209  0.00  0.00    +0.000 OA
ATOM     23  H   UNL     1       7.254   5.846  20.825  0.00  0.00    +0.000 HD
ENDBRANCH  20  22
ENDBRANCH  17  18
ENDBRANCH   6  17
TORSDOF 6
ENDMDL
MODEL 9
REMARK VINA RESULT:      -6.3      1.428      1.493
REMARK  Name = 
REMARK  6 active torsions:
REMARK  status: ('A' for Active; 'I' for Inactive)
REMARK    1  A    between atoms: N_1  and  C_2
REMARK    2  A    between atoms: C_2  and  C_3
REMARK    3  A    between atoms: N_5  and  C_6
REMARK    4  A    between atoms: N_11  and  C_12
REMARK    5  A    between atoms: C_12  and  C_13
REMARK    6  A    between atoms: N_15  and  O_16
REMARK                            x       y       z     vdW  Elec       q    Type
REMARK                         _______ _______ _______ _____ _____    ______ ____
ROOT
ATOM      1  C   UNL     1       6.033   6.023  17.199  0.00  0.00    +0.000 C 
ATOM      2  C   UNL     1       4.816   6.867  16.812  0.00  0.00    +0.000 C 
ATOM      3  C   UNL     1       3.689   6.679  17.802  0.00  0.00    +0.000 C 
ATOM      4  C   UNL     1       3.307   5.222  17.781  0.00  0.00    +0.000 C 
ATOM      5  O   UNL     1       2.145   4.855  17.635  0.00  0.00    +0.000 OA
ATOM      6  N   UNL     1       4.370   4.363  18.005  0.00  0.00    +0.000 N 
ATOM      7  C   UNL     1       5.694   4.779  18.042  0.00  0.00    +0.000 C 
ATOM      8  O   UNL     1       6.571   4.119  18.604  0.00  0.00    +0.000 OA
ENDROOT
BRANCH   1  11
ATOM      9  C   UNL     1       6.147   4.936  14.968  0.00  0.00    +0.000 C 
ATOM     10  O   UNL     1       4.949   4.674  14.954  0.00  0.00    +0.000 OA
ATOM     11  N   UNL     1       6.760   5.571  16.020  0.00  0.00    +0.000 N 
ATOM     12  H   UNL     1       7.767   5.722  15.933  0.00  0.00    +0.000 HD
BRANCH   9  13
ATOM     13  C   UNL     1       7.068   4.615  13.786  0.00  0.00    +0.000 C 
BRANCH  13  14
ATOM     14  N   UNL     1       8.143   5.614  13.638  0.00  0.00    +0.000 NA
ATOM     15  H   UNL     1       8.567   5.765  14.555  0.00  0.00    +0.000 HD
ATOM     16  H   UNL     1       7.724   6.510  13.381  0.00  0.00    +0.000 HD
ENDBRANCH  13  14
ENDBRANCH   9  13
ENDBRANCH   1  11
BRANCH   6  17
ATOM     17  C   UNL     1       4.111   2.946  18.200  0.00  0.00    +0.000 C 
BRANCH  17  18
ATOM     18  C   UNL     1       4.152   2.640  19.698  0.00  0.00    +0.000 C 
ATOM     19  O   UNL     1       3.331   3.054  20.518  0.00  0.00    +0.000 OA
ATOM     20  N   UNL     1       5.179   1.800  20.064  0.00  0.00    +0.000 N 
ATOM     21  H   UNL     1       6.021   1.660  19.515  0.00  0.00    +0.000 HD
BRANCH  20  22
ATOM     22  O   UNL     1       5.273   1.507  21.445  0.00  0.00    +0.000 OA
ATOM     23  H   UNL     1       4.845   0.623  21.504  0.00  0.00    +0.000 HD
ENDBRANCH  20  22
ENDBRANCH  17  18
ENDBRANCH   6  17
TORSDOF 6
ENDMDL
