MODEL 1
REMARK VINA RESULT:      -8.4      0.000      0.000
REMARK  Name = 
REMARK  3 active torsions:
REMARK  status: ('A' for Active; 'I' for Inactive)
REMARK    1  A    between atoms: C_1  and  C_2
REMARK    2  A    between atoms: C_12  and  C_13
REMARK    3  A    between atoms: N_21  and  C_22
REMARK                            x       y       z     vdW  Elec       q    Type
REMARK                         _______ _______ _______ _____ _____    ______ ____
ROOT
ATOM      1  C   UNL     1       0.474  11.916  19.007  0.00  0.00    +0.000 C 
ATOM      2  C   UNL     1       0.320  10.854  20.066  0.00  0.00    +0.000 A 
ATOM      3  C   UNL     1      -0.493  11.246  21.160  0.00  0.00    +0.000 A 
ATOM      4  C   UNL     1      -0.752  10.401  22.229  0.00  0.00    +0.000 A 
ATOM      5  C   UNL     1      -0.205   9.133  22.231  0.00  0.00    +0.000 A 
ATOM      6  C   UNL     1       0.606   8.711  21.165  0.00  0.00    +0.000 A 
ATOM      7  C   UNL     1       1.136   7.346  21.254  0.00  0.00    +0.000 A 
ATOM      8  C   UNL     1       1.922   6.853  20.293  0.00  0.00    +0.000 A 
ATOM      9  C   UNL     1       2.469   5.491  20.357  0.00  0.00    +0.000 A 
ATOM     10  O   UNL     1       2.233   4.752  21.306  0.00  0.00    +0.000 OA
ATOM     11  N   UNL     1       3.233   5.112  19.296  0.00  0.00    +0.000 NA
ATOM     12  C   UNL     1       3.464   5.909  18.308  0.00  0.00    +0.000 A 
ATOM     13  N   UNL     1       3.005   7.195  18.209  0.00  0.00    +0.000 NA
ATOM     14  C   UNL     1       2.242   7.700  19.137  0.00  0.00    +0.000 A 
ATOM     15  N   UNL     1       1.741   9.009  19.028  0.00  0.00    +0.000 N 
ATOM     16  C   UNL     1       2.076   9.780  17.836  0.00  0.00    +0.000 C 
ATOM     17  C   UNL     1       0.900   9.552  20.046  0.00  0.00    +0.000 A 
ENDROOT
BRANCH  12  18
ATOM     18  C   UNL     1       4.263   5.419  17.138  0.00  0.00    +0.000 A 
ATOM     19  C   UNL     1       4.848   6.340  16.259  0.00  0.00    +0.000 A 
ATOM     20  C   UNL     1       5.659   5.896  15.212  0.00  0.00    +0.000 A 
ATOM     21  C   UNL     1       5.883   4.531  15.032  0.00  0.00    +0.000 A 
ATOM     22  C   UNL     1       5.284   3.607  15.887  0.00  0.00    +0.000 A 
ATOM     23  C   UNL     1       4.475   4.049  16.937  0.00  0.00    +0.000 A 
ENDBRANCH  12  18
TORSDOF 1
ENDMDL
MODEL 2
REMARK VINA RESULT:      -8.3      0.062      1.010
REMARK  Name = 
REMARK  3 active torsions:
REMARK  status: ('A' for Active; 'I' for Inactive)
REMARK    1  A    between atoms: C_1  and  C_2
REMARK    2  A    between atoms: C_12  and  C_13
REMARK    3  A    between atoms: N_21  and  C_22
REMARK                            x       y       z     vdW  Elec       q    Type
REMARK                         _______ _______ _______ _____ _____    ______ ____
ROOT
ATOM      1  C   UNL     1       0.472  11.917  18.972  0.00  0.00    +0.000 C 
ATOM      2  C   UNL     1       0.306  10.854  20.029  0.00  0.00    +0.000 A 
ATOM      3  C   UNL     1      -0.529  11.242  21.108  0.00  0.00    +0.000 A 
ATOM      4  C   UNL     1      -0.801  10.395  22.173  0.00  0.00    +0.000 A 
ATOM      5  C   UNL     1      -0.247   9.131  22.184  0.00  0.00    +0.000 A 
ATOM      6  C   UNL     1       0.584   8.714  21.133  0.00  0.00    +0.000 A 
ATOM      7  C   UNL     1       1.122   7.352  21.231  0.00  0.00    +0.000 A 
ATOM      8  C   UNL     1       1.927   6.863  20.285  0.00  0.00    +0.000 A 
ATOM      9  C   UNL     1       2.481   5.505  20.359  0.00  0.00    +0.000 A 
ATOM     10  O   UNL     1       2.232   4.764  21.304  0.00  0.00    +0.000 OA
ATOM     11  N   UNL     1       3.265   5.130  19.312  0.00  0.00    +0.000 NA
ATOM     12  C   UNL     1       3.510   5.928  18.328  0.00  0.00    +0.000 A 
ATOM     13  N   UNL     1       3.045   7.212  18.220  0.00  0.00    +0.000 NA
ATOM     14  C   UNL     1       2.263   7.712  19.135  0.00  0.00    +0.000 A 
ATOM     15  N   UNL     1       1.756   9.018  19.016  0.00  0.00    +0.000 N 
ATOM     16  C   UNL     1       2.108   9.791  17.830  0.00  0.00    +0.000 C 
ATOM     17  C   UNL     1       0.894   9.557  20.019  0.00  0.00    +0.000 A 
ENDROOT
BRANCH  12  18
ATOM     18  C   UNL     1       4.332   5.443  17.173  0.00  0.00    +0.000 A 
ATOM     19  C   UNL     1       4.516   4.068  16.976  0.00  0.00    +0.000 A 
ATOM     20  C   UNL     1       5.213   3.603  15.860  0.00  0.00    +0.000 A 
ATOM     21  C   UNL     1       5.739   4.508  14.938  0.00  0.00    +0.000 A 
ATOM     22  C   UNL     1       5.582   5.878  15.138  0.00  0.00    +0.000 A 
ATOM     23  C   UNL     1       4.882   6.346  16.253  0.00  0.00    +0.000 A 
ENDBRANCH  12  18
TORSDOF 1
ENDMDL
MODEL 3
REMARK VINA RESULT:      -8.1      1.868      7.535
REMARK  Name = 
REMARK  3 active torsions:
REMARK  status: ('A' for Active; 'I' for Inactive)
REMARK    1  A    between atoms: C_1  and  C_2
REMARK    2  A    between atoms: C_12  and  C_13
REMARK    3  A    between atoms: N_21  and  C_22
REMARK                            x       y       z     vdW  Elec       q    Type
REMARK                         _______ _______ _______ _____ _____    ______ ____
ROOT
ATOM      1  C   UNL     1       3.351   2.800  20.214  0.00  0.00    +0.000 C 
ATOM      2  C   UNL     1       3.661   3.723  19.062  0.00  0.00    +0.000 A 
ATOM      3  C   UNL     1       4.440   3.125  18.039  0.00  0.00    +0.000 A 
ATOM      4  C   UNL     1       4.821   3.817  16.900  0.00  0.00    +0.000 A 
ATOM      5  C   UNL     1       4.429   5.132  16.750  0.00  0.00    +0.000 A 
ATOM      6  C   UNL     1       3.658   5.757  17.743  0.00  0.00    +0.000 A 
ATOM      7  C   UNL     1       3.285   7.154  17.492  0.00  0.00    +0.000 A 
ATOM      8  C   UNL     1       2.557   7.839  18.378  0.00  0.00    +0.000 A 
ATOM      9  C   UNL     1       2.172   9.238  18.154  0.00  0.00    +0.000 A 
ATOM     10  O   UNL     1       2.513   9.841  17.143  0.00  0.00    +0.000 OA
ATOM     11  N   UNL     1       1.408   9.803  19.129  0.00  0.00    +0.000 NA
ATOM     12  C   UNL     1       1.060   9.145  20.184  0.00  0.00    +0.000 A 
ATOM     13  N   UNL     1       1.414   7.851  20.458  0.00  0.00    +0.000 NA
ATOM     14  C   UNL     1       2.128   7.166  19.611  0.00  0.00    +0.000 A 
ATOM     15  N   UNL     1       2.469   5.827  19.871  0.00  0.00    +0.000 N 
ATOM     16  C   UNL     1       1.981   5.216  21.102  0.00  0.00    +0.000 C 
ATOM     17  C   UNL     1       3.247   5.080  18.934  0.00  0.00    +0.000 A 
ENDROOT
BRANCH  12  18
ATOM     18  C   UNL     1       0.169   9.797  21.197  0.00  0.00    +0.000 A 
ATOM     19  C   UNL     1      -0.002   9.208  22.458  0.00  0.00    +0.000 A 
ATOM     20  C   UNL     1      -0.766   9.848  23.436  0.00  0.00    +0.000 A 
ATOM     21  C   UNL     1      -1.371  11.074  23.159  0.00  0.00    +0.000 A 
ATOM     22  C   UNL     1      -1.227  11.655  21.900  0.00  0.00    +0.000 A 
ATOM     23  C   UNL     1      -0.460  11.018  20.920  0.00  0.00    +0.000 A 
ENDBRANCH  12  18
TORSDOF 1
ENDMDL
MODEL 4
REMARK VINA RESULT:      -8.0      1.884      7.475
REMARK  Name = 
REMARK  3 active torsions:
REMARK  status: ('A' for Active; 'I' for Inactive)
REMARK    1  A    between atoms: C_1  and  C_2
REMARK    2  A    between atoms: C_12  and  C_13
REMARK    3  A    between atoms: N_21  and  C_22
REMARK                            x       y       z     vdW  Elec       q    Type
REMARK                         _______ _______ _______ _____ _____    ______ ____
ROOT
ATOM      1  C   UNL     1       3.274   2.738  20.321  0.00  0.00    +0.000 C 
ATOM      2  C   UNL     1       3.569   3.632  19.143  0.00  0.00    +0.000 A 
ATOM      3  C   UNL     1       4.300   2.996  18.107  0.00  0.00    +0.000 A 
ATOM      4  C   UNL     1       4.661   3.658  16.943  0.00  0.00    +0.000 A 
ATOM      5  C   UNL     1       4.296   4.980  16.781  0.00  0.00    +0.000 A 
ATOM      6  C   UNL     1       3.572   5.642  17.786  0.00  0.00    +0.000 A 
ATOM      7  C   UNL     1       3.225   7.042  17.520  0.00  0.00    +0.000 A 
ATOM      8  C   UNL     1       2.542   7.760  18.416  0.00  0.00    +0.000 A 
ATOM      9  C   UNL     1       2.184   9.164  18.177  0.00  0.00    +0.000 A 
ATOM     10  O   UNL     1       2.506   9.740  17.144  0.00  0.00    +0.000 OA
ATOM     11  N   UNL     1       1.465   9.766  19.165  0.00  0.00    +0.000 NA
ATOM     12  C   UNL     1       1.135   9.136  20.243  0.00  0.00    +0.000 A 
ATOM     13  N   UNL     1       1.467   7.839  20.530  0.00  0.00    +0.000 NA
ATOM     14  C   UNL     1       2.137   7.121  19.674  0.00  0.00    +0.000 A 
ATOM     15  N   UNL     1       2.454   5.779  19.948  0.00  0.00    +0.000 N 
ATOM     16  C   UNL     1       1.991   5.203  21.205  0.00  0.00    +0.000 C 
ATOM     17  C   UNL     1       3.183   4.996  19.002  0.00  0.00    +0.000 A 
ENDROOT
BRANCH  12  18
ATOM     18  C   UNL     1       0.293   9.828  21.271  0.00  0.00    +0.000 A 
ATOM     19  C   UNL     1      -0.308  11.057  20.968  0.00  0.00    +0.000 A 
ATOM     20  C   UNL     1      -1.157  11.671  21.890  0.00  0.00    +0.000 A 
ATOM     21  C   UNL     1      -1.405  11.068  23.123  0.00  0.00    +0.000 A 
ATOM     22  C   UNL     1      -0.792   9.857  23.442  0.00  0.00    +0.000 A 
ATOM     23  C   UNL     1       0.056   9.239  22.520  0.00  0.00    +0.000 A 
ENDBRANCH  12  18
TORSDOF 1
ENDMDL
MODEL 5
REMARK VINA RESULT:      -7.9      4.644      5.700
REMARK  Name = 
REMARK  3 active torsions:
REMARK  status: ('A' for Active; 'I' for Inactive)
REMARK    1  A    between atoms: C_1  and  C_2
REMARK    2  A    between atoms: C_12  and  C_13
REMARK    3  A    between atoms: N_21  and  C_22
REMARK                            x       y       z     vdW  Elec       q    Type
REMARK                         _______ _______ _______ _____ _____    ______ ____
ROOT
ATOM      1  C   UNL     1       0.583   1.985  18.618  0.00  0.00    +0.000 C 
ATOM      2  C   UNL     1       1.527   2.833  19.432  0.00  0.00    +0.000 A 
ATOM      3  C   UNL     1       1.152   2.968  20.793  0.00  0.00    +0.000 A 
ATOM      4  C   UNL     1       1.900   3.709  21.696  0.00  0.00    +0.000 A 
ATOM      5  C   UNL     1       3.051   4.336  21.261  0.00  0.00    +0.000 A 
ATOM      6  C   UNL     1       3.452   4.225  19.919  0.00  0.00    +0.000 A 
ATOM      7  C   UNL     1       4.690   4.921  19.553  0.00  0.00    +0.000 A 
ATOM      8  C   UNL     1       5.154   4.882  18.301  0.00  0.00    +0.000 A 
ATOM      9  C   UNL     1       6.389   5.571  17.906  0.00  0.00    +0.000 A 
ATOM     10  O   UNL     1       7.043   6.222  18.712  0.00  0.00    +0.000 OA
ATOM     11  N   UNL     1       6.756   5.423  16.603  0.00  0.00    +0.000 NA
ATOM     12  C   UNL     1       6.050   4.729  15.774  0.00  0.00    +0.000 A 
ATOM     13  N   UNL     1       4.877   4.091  16.080  0.00  0.00    +0.000 NA
ATOM     14  C   UNL     1       4.403   4.121  17.293  0.00  0.00    +0.000 A 
ATOM     15  N   UNL     1       3.217   3.442  17.622  0.00  0.00    +0.000 N 
ATOM     16  C   UNL     1       2.543   2.682  16.576  0.00  0.00    +0.000 C 
ATOM     17  C   UNL     1       2.708   3.474  18.956  0.00  0.00    +0.000 A 
ENDROOT
BRANCH  12  18
ATOM     18  C   UNL     1       6.531   4.551  14.366  0.00  0.00    +0.000 A 
ATOM     19  C   UNL     1       5.909   3.614  13.530  0.00  0.00    +0.000 A 
ATOM     20  C   UNL     1       6.298   3.497  12.194  0.00  0.00    +0.000 A 
ATOM     21  C   UNL     1       7.315   4.307  11.688  0.00  0.00    +0.000 A 
ATOM     22  C   UNL     1       7.955   5.223  12.519  0.00  0.00    +0.000 A 
ATOM     23  C   UNL     1       7.566   5.346  13.856  0.00  0.00    +0.000 A 
ENDBRANCH  12  18
TORSDOF 1
ENDMDL
MODEL 6
REMARK VINA RESULT:      -7.8      4.666      5.590
REMARK  Name = 
REMARK  3 active torsions:
REMARK  status: ('A' for Active; 'I' for Inactive)
REMARK    1  A    between atoms: C_1  and  C_2
REMARK    2  A    between atoms: C_12  and  C_13
REMARK    3  A    between atoms: N_21  and  C_22
REMARK                            x       y       z     vdW  Elec       q    Type
REMARK                         _______ _______ _______ _____ _____    ______ ____
ROOT
ATOM      1  C   UNL     1       0.483   2.124  18.662  0.00  0.00    +0.000 C 
ATOM      2  C   UNL     1       1.477   2.909  19.479  0.00  0.00    +0.000 A 
ATOM      3  C   UNL     1       1.139   3.011  20.853  0.00  0.00    +0.000 A 
ATOM      4  C   UNL     1       1.935   3.693  21.761  0.00  0.00    +0.000 A 
ATOM      5  C   UNL     1       3.098   4.291  21.319  0.00  0.00    +0.000 A 
ATOM      6  C   UNL     1       3.463   4.211  19.966  0.00  0.00    +0.000 A 
ATOM      7  C   UNL     1       4.718   4.873  19.592  0.00  0.00    +0.000 A 
ATOM      8  C   UNL     1       5.151   4.859  18.329  0.00  0.00    +0.000 A 
ATOM      9  C   UNL     1       6.401   5.516  17.927  0.00  0.00    +0.000 A 
ATOM     10  O   UNL     1       7.098   6.115  18.738  0.00  0.00    +0.000 OA
ATOM     11  N   UNL     1       6.733   5.399  16.611  0.00  0.00    +0.000 NA
ATOM     12  C   UNL     1       5.982   4.760  15.778  0.00  0.00    +0.000 A 
ATOM     13  N   UNL     1       4.794   4.155  16.091  0.00  0.00    +0.000 NA
ATOM     14  C   UNL     1       4.349   4.162  17.315  0.00  0.00    +0.000 A 
ATOM     15  N   UNL     1       3.146   3.516  17.650  0.00  0.00    +0.000 N 
ATOM     16  C   UNL     1       2.421   2.817  16.596  0.00  0.00    +0.000 C 
ATOM     17  C   UNL     1       2.669   3.521  18.996  0.00  0.00    +0.000 A 
ENDROOT
BRANCH  12  18
ATOM     18  C   UNL     1       6.424   4.612  14.354  0.00  0.00    +0.000 A 
ATOM     19  C   UNL     1       7.486   5.388  13.868  0.00  0.00    +0.000 A 
ATOM     20  C   UNL     1       7.956   5.202  12.567  0.00  0.00    +0.000 A 
ATOM     21  C   UNL     1       7.365   4.248  11.740  0.00  0.00    +0.000 A 
ATOM     22  C   UNL     1       6.292   3.489  12.206  0.00  0.00    +0.000 A 
ATOM     23  C   UNL     1       5.821   3.671  13.508  0.00  0.00    +0.000 A 
ENDBRANCH  12  18
TORSDOF 1
ENDMDL
MODEL 7
REMARK VINA RESULT:      -7.5      2.565      4.014
REMARK  Name = 
REMARK  3 active torsions:
REMARK  status: ('A' for Active; 'I' for Inactive)
REMARK    1  A    between atoms: C_1  and  C_2
REMARK    2  A    between atoms: C_12  and  C_13
REMARK    3  A    between atoms: N_21  and  C_22
REMARK                            x       y       z     vdW  Elec       q    Type
REMARK                         _______ _______ _______ _____ _____    ______ ____
ROOT
ATOM      1  C   UNL     1      -1.323  11.196  23.083  0.00  0.00    +0.000 C 
ATOM      2  C   UNL     1      -0.741  11.529  21.733  0.00  0.00    +0.000 A 
ATOM      3  C   UNL     1      -1.010  12.853  21.302  0.00  0.00    +0.000 A 
ATOM      4  C   UNL     1      -0.553  13.342  20.086  0.00  0.00    +0.000 A 
ATOM      5  C   UNL     1       0.191  12.517  19.267  0.00  0.00    +0.000 A 
ATOM      6  C   UNL     1       0.475  11.199  19.661  0.00  0.00    +0.000 A 
ATOM      7  C   UNL     1       1.276  10.401  18.726  0.00  0.00    +0.000 A 
ATOM      8  C   UNL     1       1.596   9.135  19.006  0.00  0.00    +0.000 A 
ATOM      9  C   UNL     1       2.394   8.313  18.088  0.00  0.00    +0.000 A 
ATOM     10  O   UNL     1       2.794   8.755  17.017  0.00  0.00    +0.000 OA
ATOM     11  N   UNL     1       2.666   7.048  18.514  0.00  0.00    +0.000 NA
ATOM     12  C   UNL     1       2.235   6.608  19.648  0.00  0.00    +0.000 A 
ATOM     13  N   UNL     1       1.464   7.319  20.529  0.00  0.00    +0.000 NA
ATOM     14  C   UNL     1       1.135   8.554  20.274  0.00  0.00    +0.000 A 
ATOM     15  N   UNL     1       0.371   9.301  21.187  0.00  0.00    +0.000 N 
ATOM     16  C   UNL     1      -0.024   8.666  22.439  0.00  0.00    +0.000 C 
ATOM     17  C   UNL     1       0.020  10.656  20.904  0.00  0.00    +0.000 A 
ENDROOT
BRANCH  12  18
ATOM     18  C   UNL     1       2.613   5.228  20.094  0.00  0.00    +0.000 A 
ATOM     19  C   UNL     1       1.908   4.613  21.137  0.00  0.00    +0.000 A 
ATOM     20  C   UNL     1       2.200   3.299  21.507  0.00  0.00    +0.000 A 
ATOM     21  C   UNL     1       3.204   2.594  20.844  0.00  0.00    +0.000 A 
ATOM     22  C   UNL     1       3.928   3.206  19.822  0.00  0.00    +0.000 A 
ATOM     23  C   UNL     1       3.635   4.520  19.447  0.00  0.00    +0.000 A 
ENDBRANCH  12  18
TORSDOF 1
ENDMDL
MODEL 8
REMARK VINA RESULT:      -7.3      3.814      5.429
REMARK  Name = 
REMARK  3 active torsions:
REMARK  status: ('A' for Active; 'I' for Inactive)
REMARK    1  A    between atoms: C_1  and  C_2
REMARK    2  A    between atoms: C_12  and  C_13
REMARK    3  A    between atoms: N_21  and  C_22
REMARK                            x       y       z     vdW  Elec       q    Type
REMARK                         _______ _______ _______ _____ _____    ______ ____
ROOT
ATOM      1  C   UNL     1       0.813   2.175  18.970  0.00  0.00    +0.000 C 
ATOM      2  C   UNL     1       1.536   3.421  19.415  0.00  0.00    +0.000 A 
ATOM      3  C   UNL     1       1.125   3.902  20.685  0.00  0.00    +0.000 A 
ATOM      4  C   UNL     1       1.680   5.035  21.261  0.00  0.00    +0.000 A 
ATOM      5  C   UNL     1       2.667   5.720  20.581  0.00  0.00    +0.000 A 
ATOM      6  C   UNL     1       3.098   5.273  19.322  0.00  0.00    +0.000 A 
ATOM      7  C   UNL     1       4.155   6.062  18.680  0.00  0.00    +0.000 A 
ATOM      8  C   UNL     1       4.630   5.724  17.478  0.00  0.00    +0.000 A 
ATOM      9  C   UNL     1       5.685   6.497  16.812  0.00  0.00    +0.000 A 
ATOM     10  O   UNL     1       6.170   7.497  17.330  0.00  0.00    +0.000 OA
ATOM     11  N   UNL     1       6.090   6.021  15.602  0.00  0.00    +0.000 NA
ATOM     12  C   UNL     1       5.565   4.964  15.079  0.00  0.00    +0.000 A 
ATOM     13  N   UNL     1       4.561   4.223  15.641  0.00  0.00    +0.000 NA
ATOM     14  C   UNL     1       4.078   4.538  16.809  0.00  0.00    +0.000 A 
ATOM     15  N   UNL     1       3.069   3.764  17.407  0.00  0.00    +0.000 N 
ATOM     16  C   UNL     1       2.592   2.582  16.697  0.00  0.00    +0.000 C 
ATOM     17  C   UNL     1       2.550   4.112  18.691  0.00  0.00    +0.000 A 
ENDROOT
BRANCH  12  18
ATOM     18  C   UNL     1       6.090   4.451  13.772  0.00  0.00    +0.000 A 
ATOM     19  C   UNL     1       7.289   4.959  13.254  0.00  0.00    +0.000 A 
ATOM     20  C   UNL     1       7.827   4.433  12.079  0.00  0.00    +0.000 A 
ATOM     21  C   UNL     1       7.167   3.403  11.408  0.00  0.00    +0.000 A 
ATOM     22  C   UNL     1       5.961   2.909  11.902  0.00  0.00    +0.000 A 
ATOM     23  C   UNL     1       5.422   3.432  13.080  0.00  0.00    +0.000 A 
ENDBRANCH  12  18
TORSDOF 1
ENDMDL
MODEL 9
REMARK VINA RESULT:      -7.3      2.548      3.957
REMARK  Name = 
REMARK  3 active torsions:
REMARK  status: ('A' for Active; 'I' for Inactive)
REMARK    1  A    between atoms: C_1  and  C_2
REMARK    2  A    between atoms: C_12  and  C_13
REMARK    3  A    between atoms: N_21  and  C_22
REMARK                            x       y       z     vdW  Elec       q    Type
REMARK                         _______ _______ _______ _____ _____    ______ ____
ROOT
ATOM      1  C   UNL     1      -1.292  11.125  23.064  0.00  0.00    +0.000 C 
ATOM      2  C   UNL     1      -0.690  11.466  21.724  0.00  0.00    +0.000 A 
ATOM      3  C   UNL     1      -0.927  12.802  21.310  0.00  0.00    +0.000 A 
ATOM      4  C   UNL     1      -0.448  13.299  20.107  0.00  0.00    +0.000 A 
ATOM      5  C   UNL     1       0.288  12.471  19.283  0.00  0.00    +0.000 A 
ATOM      6  C   UNL     1       0.540  11.142  19.660  0.00  0.00    +0.000 A 
ATOM      7  C   UNL     1       1.335  10.342  18.722  0.00  0.00    +0.000 A 
ATOM      8  C   UNL     1       1.625   9.065  18.986  0.00  0.00    +0.000 A 
ATOM      9  C   UNL     1       2.416   8.240  18.064  0.00  0.00    +0.000 A 
ATOM     10  O   UNL     1       2.836   8.690  17.003  0.00  0.00    +0.000 OA
ATOM     11  N   UNL     1       2.658   6.964  18.473  0.00  0.00    +0.000 NA
ATOM     12  C   UNL     1       2.206   6.516  19.596  0.00  0.00    +0.000 A 
ATOM     13  N   UNL     1       1.441   7.230  20.479  0.00  0.00    +0.000 NA
ATOM     14  C   UNL     1       1.140   8.474  20.240  0.00  0.00    +0.000 A 
ATOM     15  N   UNL     1       0.381   9.223  21.156  0.00  0.00    +0.000 N 
ATOM     16  C   UNL     1      -0.039   8.579  22.395  0.00  0.00    +0.000 C 
ATOM     17  C   UNL     1       0.062  10.590  20.890  0.00  0.00    +0.000 A 
ENDROOT
BRANCH  12  18
ATOM     18  C   UNL     1       2.551   5.122  20.024  0.00  0.00    +0.000 A 
ATOM     19  C   UNL     1       3.583   4.429  19.377  0.00  0.00    +0.000 A 
ATOM     20  C   UNL     1       3.965   3.161  19.820  0.00  0.00    +0.000 A 
ATOM     21  C   UNL     1       3.314   2.574  20.905  0.00  0.00    +0.000 A 
ATOM     22  C   UNL     1       2.270   3.246  21.539  0.00  0.00    +0.000 A 
ATOM     23  C   UNL     1       1.888   4.516  21.100  0.00  0.00    +0.000 A 
ENDBRANCH  12  18
TORSDOF 1
ENDMDL
