MODEL 1
REMARK VINA RESULT:      -9.1      0.000      0.000
REMARK  Name = 
REMARK  9 active torsions:
REMARK  status: ('A' for Active; 'I' for Inactive)
REMARK    1  A    between atoms: C_1  and  C_2
REMARK    2  A    between atoms: C_6  and  C_7
REMARK    3  A    between atoms: C_7  and  N_8
REMARK    4  A    between atoms: C_9  and  C_11
REMARK    5  A    between atoms: C_14  and  C_15
REMARK    6  A    between atoms: C_17  and  C_18
REMARK    7  A    between atoms: C_18  and  S_19
REMARK    8  A    between atoms: S_19  and  C_22
REMARK    9  A    between atoms: C_28  and  C_29
REMARK                            x       y       z     vdW  Elec       q    Type
REMARK                         _______ _______ _______ _____ _____    ______ ____
ROOT
ATOM      1  C   UNL     1       0.910   9.509  20.124  0.00  0.00    +0.000 A 
ATOM      2  C   UNL     1       1.360   9.497  18.798  0.00  0.00    +0.000 A 
ATOM      3  C   UNL     1       2.058   8.392  18.298  0.00  0.00    +0.000 A 
ATOM      4  C   UNL     1       2.341   7.288  19.116  0.00  0.00    +0.000 A 
ATOM      5  C   UNL     1       1.915   7.323  20.453  0.00  0.00    +0.000 A 
ATOM      6  C   UNL     1       1.199   8.420  20.955  0.00  0.00    +0.000 A 
ENDROOT
BRANCH   4   7
ATOM      7  C   UNL     1       3.061   6.125  18.603  0.00  0.00    +0.000 A 
ATOM      8  N   UNL     1       3.519   5.873  17.392  0.00  0.00    +0.000 NA
ATOM      9  C   UNL     1       4.157   4.646  17.509  0.00  0.00    +0.000 A 
ATOM     10  C   UNL     1       4.044   4.204  18.814  0.00  0.00    +0.000 A 
ATOM     11  C   UNL     1       4.475   3.032  19.596  0.00  0.00    +0.000 C 
ATOM     12  O   UNL     1       3.339   5.143  19.513  0.00  0.00    +0.000 OA
BRANCH   9  13
ATOM     13  C   UNL     1       4.774   4.011  16.309  0.00  0.00    +0.000 C 
BRANCH  13  14
ATOM     14  S   UNL     1       5.986   5.049  15.510  0.00  0.00    +0.000 S 
ATOM     15  O   UNL     1       6.880   4.226  14.712  0.00  0.00    +0.000 OA
ATOM     16  O   UNL     1       5.317   6.190  14.912  0.00  0.00    +0.000 OA
BRANCH  14  17
ATOM     17  C   UNL     1       6.971   5.686  16.860  0.00  0.00    +0.000 A 
ATOM     18  C   UNL     1       7.159   7.066  16.986  0.00  0.00    +0.000 A 
ATOM     19  C   UNL     1       7.820   7.572  18.107  0.00  0.00    +0.000 A 
ATOM     20  C   UNL     1       8.283   6.706  19.097  0.00  0.00    +0.000 A 
ATOM     21  C   UNL     1       8.093   5.329  18.970  0.00  0.00    +0.000 A 
ATOM     22  C   UNL     1       7.434   4.813  17.852  0.00  0.00    +0.000 A 
ENDBRANCH  14  17
ENDBRANCH  13  14
ENDBRANCH   9  13
ENDBRANCH   4   7
BRANCH   1  24
ATOM     23  N   UNL     1      -0.925  11.100  19.877  0.00  0.00    +0.000 N 
ATOM     24  C   UNL     1       0.173  10.708  20.610  0.00  0.00    +0.000 C 
ATOM     25  O   UNL     1       0.569  11.306  21.605  0.00  0.00    +0.000 OA
ATOM     26  H   UNL     1      -1.059  10.727  18.946  0.00  0.00    +0.000 HD
BRANCH  23  27
ATOM     27  C   UNL     1      -1.663  12.299  20.218  0.00  0.00    +0.000 C 
BRANCH  27  33
ATOM     28  C   UNL     1      -6.594  13.330  20.606  0.00  0.00    +0.000 C 
ATOM     29  C   UNL     1      -5.445  12.758  19.828  0.00  0.00    +0.000 A 
ATOM     30  C   UNL     1      -5.657  12.140  18.591  0.00  0.00    +0.000 A 
ATOM     31  C   UNL     1      -4.589  11.593  17.884  0.00  0.00    +0.000 A 
ATOM     32  C   UNL     1      -3.297  11.659  18.407  0.00  0.00    +0.000 A 
ATOM     33  C   UNL     1      -3.057  12.278  19.643  0.00  0.00    +0.000 A 
ATOM     34  C   UNL     1      -4.141  12.824  20.345  0.00  0.00    +0.000 A 
ENDBRANCH  27  33
ENDBRANCH  23  27
ENDBRANCH   1  24
TORSDOF 7
ENDMDL
MODEL 2
REMARK VINA RESULT:      -8.9      2.135      3.892
REMARK  Name = 
REMARK  9 active torsions:
REMARK  status: ('A' for Active; 'I' for Inactive)
REMARK    1  A    between atoms: C_1  and  C_2
REMARK    2  A    between atoms: C_6  and  C_7
REMARK    3  A    between atoms: C_7  and  N_8
REMARK    4  A    between atoms: C_9  and  C_11
REMARK    5  A    between atoms: C_14  and  C_15
REMARK    6  A    between atoms: C_17  and  C_18
REMARK    7  A    between atoms: C_18  and  S_19
REMARK    8  A    between atoms: S_19  and  C_22
REMARK    9  A    between atoms: C_28  and  C_29
REMARK                            x       y       z     vdW  Elec       q    Type
REMARK                         _______ _______ _______ _____ _____    ______ ____
ROOT
ATOM      1  C   UNL     1       0.554   9.941  19.903  0.00  0.00    +0.000 A 
ATOM      2  C   UNL     1       0.971  10.028  18.569  0.00  0.00    +0.000 A 
ATOM      3  C   UNL     1       1.812   9.049  18.026  0.00  0.00    +0.000 A 
ATOM      4  C   UNL     1       2.271   7.979  18.809  0.00  0.00    +0.000 A 
ATOM      5  C   UNL     1       1.874   7.919  20.154  0.00  0.00    +0.000 A 
ATOM      6  C   UNL     1       1.017   8.887  20.699  0.00  0.00    +0.000 A 
ENDROOT
BRANCH   4   7
ATOM      7  C   UNL     1       3.142   6.947  18.252  0.00  0.00    +0.000 A 
ATOM      8  N   UNL     1       3.322   5.693  18.623  0.00  0.00    +0.000 NA
ATOM      9  C   UNL     1       4.223   5.183  17.700  0.00  0.00    +0.000 A 
ATOM     10  C   UNL     1       4.556   6.179  16.800  0.00  0.00    +0.000 A 
ATOM     11  C   UNL     1       5.421   6.314  15.614  0.00  0.00    +0.000 C 
ATOM     12  O   UNL     1       3.872   7.307  17.154  0.00  0.00    +0.000 OA
BRANCH   9  13
ATOM     13  C   UNL     1       4.702   3.776  17.827  0.00  0.00    +0.000 C 
BRANCH  13  14
ATOM     14  S   UNL     1       3.392   2.573  17.681  0.00  0.00    +0.000 S 
ATOM     15  O   UNL     1       2.427   3.023  16.692  0.00  0.00    +0.000 OA
ATOM     16  O   UNL     1       3.973   1.245  17.582  0.00  0.00    +0.000 OA
BRANCH  14  17
ATOM     17  C   UNL     1       2.556   2.646  19.261  0.00  0.00    +0.000 A 
ATOM     18  C   UNL     1       3.288   2.463  20.438  0.00  0.00    +0.000 A 
ATOM     19  C   UNL     1       2.663   2.644  21.673  0.00  0.00    +0.000 A 
ATOM     20  C   UNL     1       1.318   3.010  21.730  0.00  0.00    +0.000 A 
ATOM     21  C   UNL     1       0.590   3.193  20.553  0.00  0.00    +0.000 A 
ATOM     22  C   UNL     1       1.207   3.013  19.313  0.00  0.00    +0.000 A 
ENDBRANCH  14  17
ENDBRANCH  13  14
ENDBRANCH   9  13
ENDBRANCH   4   7
BRANCH   1  24
ATOM     23  N   UNL     1      -0.787  11.947  19.533  0.00  0.00    +0.000 N 
ATOM     24  C   UNL     1      -0.340  11.007  20.435  0.00  0.00    +0.000 C 
ATOM     25  O   UNL     1      -0.622  11.027  21.628  0.00  0.00    +0.000 OA
ATOM     26  H   UNL     1      -0.335  12.025  18.632  0.00  0.00    +0.000 HD
BRANCH  23  27
ATOM     27  C   UNL     1      -1.595  13.070  19.964  0.00  0.00    +0.000 C 
BRANCH  27  33
ATOM     28  C   UNL     1      -5.826  11.162  17.966  0.00  0.00    +0.000 C 
ATOM     29  C   UNL     1      -5.104  11.788  19.124  0.00  0.00    +0.000 A 
ATOM     30  C   UNL     1      -5.784  12.092  20.308  0.00  0.00    +0.000 A 
ATOM     31  C   UNL     1      -5.114  12.692  21.371  0.00  0.00    +0.000 A 
ATOM     32  C   UNL     1      -3.757  12.993  21.262  0.00  0.00    +0.000 A 
ATOM     33  C   UNL     1      -3.050  12.694  20.087  0.00  0.00    +0.000 A 
ATOM     34  C   UNL     1      -3.737  12.091  19.023  0.00  0.00    +0.000 A 
ENDBRANCH  27  33
ENDBRANCH  23  27
ENDBRANCH   1  24
TORSDOF 7
ENDMDL
MODEL 3
REMARK VINA RESULT:      -8.8      0.693      1.545
REMARK  Name = 
REMARK  9 active torsions:
REMARK  status: ('A' for Active; 'I' for Inactive)
REMARK    1  A    between atoms: C_1  and  C_2
REMARK    2  A    between atoms: C_6  and  C_7
REMARK    3  A    between atoms: C_7  and  N_8
REMARK    4  A    between atoms: C_9  and  C_11
REMARK    5  A    between atoms: C_14  and  C_15
REMARK    6  A    between atoms: C_17  and  C_18
REMARK    7  A    between atoms: C_18  and  S_19
REMARK    8  A    between atoms: S_19  and  C_22
REMARK    9  A    between atoms: C_28  and  C_29
REMARK                            x       y       z     vdW  Elec       q    Type
REMARK                         _______ _______ _______ _____ _____    ______ ____
ROOT
ATOM      1  C   UNL     1       1.042   9.149  19.979  0.00  0.00    +0.000 A 
ATOM      2  C   UNL     1       1.462   9.172  18.644  0.00  0.00    +0.000 A 
ATOM      3  C   UNL     1       2.145   8.079  18.098  0.00  0.00    +0.000 A 
ATOM      4  C   UNL     1       2.442   6.953  18.881  0.00  0.00    +0.000 A 
ATOM      5  C   UNL     1       2.047   6.952  20.227  0.00  0.00    +0.000 A 
ATOM      6  C   UNL     1       1.345   8.037  20.774  0.00  0.00    +0.000 A 
ENDROOT
BRANCH   4   7
ATOM      7  C   UNL     1       3.147   5.801  18.320  0.00  0.00    +0.000 A 
ATOM      8  N   UNL     1       3.926   5.713  17.260  0.00  0.00    +0.000 NA
ATOM      9  C   UNL     1       4.350   4.393  17.248  0.00  0.00    +0.000 A 
ATOM     10  C   UNL     1       3.788   3.730  18.323  0.00  0.00    +0.000 A 
ATOM     11  C   UNL     1       3.818   2.369  18.885  0.00  0.00    +0.000 C 
ATOM     12  O   UNL     1       3.014   4.626  19.006  0.00  0.00    +0.000 OA
BRANCH   9  13
ATOM     13  C   UNL     1       5.232   3.904  16.147  0.00  0.00    +0.000 C 
BRANCH  13  14
ATOM     14  S   UNL     1       6.328   5.163  15.515  0.00  0.00    +0.000 S 
ATOM     15  O   UNL     1       7.430   4.536  14.804  0.00  0.00    +0.000 OA
ATOM     16  O   UNL     1       5.541   6.200  14.870  0.00  0.00    +0.000 OA
BRANCH  14  17
ATOM     17  C   UNL     1       7.037   5.900  16.981  0.00  0.00    +0.000 A 
ATOM     18  C   UNL     1       7.412   5.083  18.053  0.00  0.00    +0.000 A 
ATOM     19  C   UNL     1       8.080   5.641  19.144  0.00  0.00    +0.000 A 
ATOM     20  C   UNL     1       8.376   7.004  19.162  0.00  0.00    +0.000 A 
ATOM     21  C   UNL     1       8.002   7.818  18.091  0.00  0.00    +0.000 A 
ATOM     22  C   UNL     1       7.332   7.269  16.995  0.00  0.00    +0.000 A 
ENDBRANCH  14  17
ENDBRANCH  13  14
ENDBRANCH   9  13
ENDBRANCH   4   7
BRANCH   1  24
ATOM     23  N   UNL     1      -0.118  11.262  19.593  0.00  0.00    +0.000 N 
ATOM     24  C   UNL     1       0.319  10.337  20.514  0.00  0.00    +0.000 C 
ATOM     25  O   UNL     1       0.163  10.461  21.724  0.00  0.00    +0.000 OA
ATOM     26  H   UNL     1       0.247  11.234  18.649  0.00  0.00    +0.000 HD
BRANCH  23  27
ATOM     27  C   UNL     1      -0.760  12.490  20.015  0.00  0.00    +0.000 C 
BRANCH  27  33
ATOM     28  C   UNL     1      -4.841  11.098  17.380  0.00  0.00    +0.000 C 
ATOM     29  C   UNL     1      -4.236  11.763  18.582  0.00  0.00    +0.000 A 
ATOM     30  C   UNL     1      -5.048  12.382  19.540  0.00  0.00    +0.000 A 
ATOM     31  C   UNL     1      -4.480  13.015  20.642  0.00  0.00    +0.000 A 
ATOM     32  C   UNL     1      -3.094  13.035  20.800  0.00  0.00    +0.000 A 
ATOM     33  C   UNL     1      -2.258  12.418  19.858  0.00  0.00    +0.000 A 
ATOM     34  C   UNL     1      -2.843  11.785  18.750  0.00  0.00    +0.000 A 
ENDBRANCH  27  33
ENDBRANCH  23  27
ENDBRANCH   1  24
TORSDOF 7
ENDMDL
MODEL 4
REMARK VINA RESULT:      -8.8      1.372      1.991
REMARK  Name = 
REMARK  9 active torsions:
REMARK  status: ('A' for Active; 'I' for Inactive)
REMARK    1  A    between atoms: C_1  and  C_2
REMARK    2  A    between atoms: C_6  and  C_7
REMARK    3  A    between atoms: C_7  and  N_8
REMARK    4  A    between atoms: C_9  and  C_11
REMARK    5  A    between atoms: C_14  and  C_15
REMARK    6  A    between atoms: C_17  and  C_18
REMARK    7  A    between atoms: C_18  and  S_19
REMARK    8  A    between atoms: S_19  and  C_22
REMARK    9  A    between atoms: C_28  and  C_29
REMARK                            x       y       z     vdW  Elec       q    Type
REMARK                         _______ _______ _______ _____ _____    ______ ____
ROOT
ATOM      1  C   UNL     1       1.227   9.293  20.515  0.00  0.00    +0.000 A 
ATOM      2  C   UNL     1       1.474   8.061  21.131  0.00  0.00    +0.000 A 
ATOM      3  C   UNL     1       1.988   6.990  20.390  0.00  0.00    +0.000 A 
ATOM      4  C   UNL     1       2.243   7.122  19.017  0.00  0.00    +0.000 A 
ATOM      5  C   UNL     1       1.961   8.351  18.401  0.00  0.00    +0.000 A 
ATOM      6  C   UNL     1       1.463   9.433  19.142  0.00  0.00    +0.000 A 
ENDROOT
BRANCH   4   7
ATOM      7  C   UNL     1       2.788   6.014  18.235  0.00  0.00    +0.000 A 
ATOM      8  N   UNL     1       3.822   5.978  17.416  0.00  0.00    +0.000 NA
ATOM      9  C   UNL     1       3.892   4.656  17.002  0.00  0.00    +0.000 A 
ATOM     10  C   UNL     1       2.870   3.943  17.600  0.00  0.00    +0.000 A 
ATOM     11  C   UNL     1       2.384   2.552  17.603  0.00  0.00    +0.000 C 
ATOM     12  O   UNL     1       2.160   4.810  18.383  0.00  0.00    +0.000 OA
BRANCH   9  13
ATOM     13  C   UNL     1       4.935   4.238  16.020  0.00  0.00    +0.000 C 
BRANCH  13  14
ATOM     14  S   UNL     1       5.949   5.593  15.453  0.00  0.00    +0.000 S 
ATOM     15  O   UNL     1       6.861   5.121  14.425  0.00  0.00    +0.000 OA
ATOM     16  O   UNL     1       5.104   6.748  15.203  0.00  0.00    +0.000 OA
BRANCH  14  17
ATOM     17  C   UNL     1       6.962   6.001  16.869  0.00  0.00    +0.000 A 
ATOM     18  C   UNL     1       7.312   7.334  17.107  0.00  0.00    +0.000 A 
ATOM     19  C   UNL     1       7.995   7.669  18.277  0.00  0.00    +0.000 A 
ATOM     20  C   UNL     1       8.322   6.680  19.205  0.00  0.00    +0.000 A 
ATOM     21  C   UNL     1       7.970   5.350  18.966  0.00  0.00    +0.000 A 
ATOM     22  C   UNL     1       7.288   5.005  17.797  0.00  0.00    +0.000 A 
ENDBRANCH  14  17
ENDBRANCH  13  14
ENDBRANCH   9  13
ENDBRANCH   4   7
BRANCH   1  24
ATOM     23  N   UNL     1       0.417  11.589  20.699  0.00  0.00    +0.000 N 
ATOM     24  C   UNL     1       0.679  10.402  21.345  0.00  0.00    +0.000 C 
ATOM     25  O   UNL     1       0.506  10.234  22.548  0.00  0.00    +0.000 OA
ATOM     26  H   UNL     1       0.802  11.747  19.777  0.00  0.00    +0.000 HD
BRANCH  23  27
ATOM     27  C   UNL     1      -0.041  12.753  21.430  0.00  0.00    +0.000 C 
BRANCH  27  33
ATOM     28  C   UNL     1      -4.144  12.457  24.366  0.00  0.00    +0.000 C 
ATOM     29  C   UNL     1      -3.529  12.594  23.003  0.00  0.00    +0.000 A 
ATOM     30  C   UNL     1      -4.334  12.657  21.860  0.00  0.00    +0.000 A 
ATOM     31  C   UNL     1      -3.758  12.763  20.597  0.00  0.00    +0.000 A 
ATOM     32  C   UNL     1      -2.370  12.809  20.463  0.00  0.00    +0.000 A 
ATOM     33  C   UNL     1      -1.541  12.752  21.593  0.00  0.00    +0.000 A 
ATOM     34  C   UNL     1      -2.134  12.644  22.860  0.00  0.00    +0.000 A 
ENDBRANCH  27  33
ENDBRANCH  23  27
ENDBRANCH   1  24
TORSDOF 7
ENDMDL
MODEL 5
REMARK VINA RESULT:      -8.7      2.492      3.752
REMARK  Name = 
REMARK  9 active torsions:
REMARK  status: ('A' for Active; 'I' for Inactive)
REMARK    1  A    between atoms: C_1  and  C_2
REMARK    2  A    between atoms: C_6  and  C_7
REMARK    3  A    between atoms: C_7  and  N_8
REMARK    4  A    between atoms: C_9  and  C_11
REMARK    5  A    between atoms: C_14  and  C_15
REMARK    6  A    between atoms: C_17  and  C_18
REMARK    7  A    between atoms: C_18  and  S_19
REMARK    8  A    between atoms: S_19  and  C_22
REMARK    9  A    between atoms: C_28  and  C_29
REMARK                            x       y       z     vdW  Elec       q    Type
REMARK                         _______ _______ _______ _____ _____    ______ ____
ROOT
ATOM      1  C   UNL     1       1.228   9.895  19.668  0.00  0.00    +0.000 A 
ATOM      2  C   UNL     1       1.435   8.802  20.517  0.00  0.00    +0.000 A 
ATOM      3  C   UNL     1       1.947   7.601  20.012  0.00  0.00    +0.000 A 
ATOM      4  C   UNL     1       2.238   7.460  18.647  0.00  0.00    +0.000 A 
ATOM      5  C   UNL     1       1.996   8.551  17.797  0.00  0.00    +0.000 A 
ATOM      6  C   UNL     1       1.500   9.763  18.302  0.00  0.00    +0.000 A 
ENDROOT
BRANCH   4   7
ATOM      7  C   UNL     1       2.781   6.215  18.109  0.00  0.00    +0.000 A 
ATOM      8  N   UNL     1       3.933   5.975  17.513  0.00  0.00    +0.000 NA
ATOM      9  C   UNL     1       3.921   4.610  17.267  0.00  0.00    +0.000 A 
ATOM     10  C   UNL     1       2.730   4.081  17.730  0.00  0.00    +0.000 A 
ATOM     11  C   UNL     1       2.092   2.754  17.789  0.00  0.00    +0.000 C 
ATOM     12  O   UNL     1       1.998   5.105  18.262  0.00  0.00    +0.000 OA
BRANCH   9  13
ATOM     13  C   UNL     1       5.066   3.972  16.555  0.00  0.00    +0.000 C 
BRANCH  13  14
ATOM     14  S   UNL     1       6.078   5.141  15.664  0.00  0.00    +0.000 S 
ATOM     15  O   UNL     1       7.017   4.425  14.815  0.00  0.00    +0.000 OA
ATOM     16  O   UNL     1       5.228   6.175  15.100  0.00  0.00    +0.000 OA
BRANCH  14  17
ATOM     17  C   UNL     1       7.059   5.927  16.936  0.00  0.00    +0.000 A 
ATOM     18  C   UNL     1       7.329   7.297  16.853  0.00  0.00    +0.000 A 
ATOM     19  C   UNL     1       7.985   7.935  17.906  0.00  0.00    +0.000 A 
ATOM     20  C   UNL     1       8.363   7.212  19.037  0.00  0.00    +0.000 A 
ATOM     21  C   UNL     1       8.091   5.845  19.119  0.00  0.00    +0.000 A 
ATOM     22  C   UNL     1       7.436   5.197  18.069  0.00  0.00    +0.000 A 
ENDBRANCH  14  17
ENDBRANCH  13  14
ENDBRANCH   9  13
ENDBRANCH   4   7
BRANCH   1  24
ATOM     23  N   UNL     1       0.202  12.090  19.367  0.00  0.00    +0.000 N 
ATOM     24  C   UNL     1       0.681  11.151  20.253  0.00  0.00    +0.000 C 
ATOM     25  O   UNL     1       0.697  11.314  21.469  0.00  0.00    +0.000 OA
ATOM     26  H   UNL     1       0.435  12.010  18.386  0.00  0.00    +0.000 HD
BRANCH  23  27
ATOM     27  C   UNL     1      -0.276  13.377  19.829  0.00  0.00    +0.000 C 
BRANCH  27  33
ATOM     28  C   UNL     1       3.954  15.216  17.765  0.00  0.00    +0.000 C 
ATOM     29  C   UNL     1       2.536  15.416  18.216  0.00  0.00    +0.000 A 
ATOM     30  C   UNL     1       1.927  16.671  18.121  0.00  0.00    +0.000 A 
ATOM     31  C   UNL     1       0.619  16.855  18.560  0.00  0.00    +0.000 A 
ATOM     32  C   UNL     1      -0.096  15.784  19.098  0.00  0.00    +0.000 A 
ATOM     33  C   UNL     1       0.490  14.514  19.200  0.00  0.00    +0.000 A 
ATOM     34  C   UNL     1       1.810  14.342  18.755  0.00  0.00    +0.000 A 
ENDBRANCH  27  33
ENDBRANCH  23  27
ENDBRANCH   1  24
TORSDOF 7
ENDMDL
MODEL 6
REMARK VINA RESULT:      -8.7      1.859      2.874
REMARK  Name = 
REMARK  9 active torsions:
REMARK  status: ('A' for Active; 'I' for Inactive)
REMARK    1  A    between atoms: C_1  and  C_2
REMARK    2  A    between atoms: C_6  and  C_7
REMARK    3  A    between atoms: C_7  and  N_8
REMARK    4  A    between atoms: C_9  and  C_11
REMARK    5  A    between atoms: C_14  and  C_15
REMARK    6  A    between atoms: C_17  and  C_18
REMARK    7  A    between atoms: C_18  and  S_19
REMARK    8  A    between atoms: S_19  and  C_22
REMARK    9  A    between atoms: C_28  and  C_29
REMARK                            x       y       z     vdW  Elec       q    Type
REMARK                         _______ _______ _______ _____ _____    ______ ____
ROOT
ATOM      1  C   UNL     1       0.903   9.907  19.625  0.00  0.00    +0.000 A 
ATOM      2  C   UNL     1       1.186   8.849  20.496  0.00  0.00    +0.000 A 
ATOM      3  C   UNL     1       1.828   7.697  20.026  0.00  0.00    +0.000 A 
ATOM      4  C   UNL     1       2.180   7.571  18.674  0.00  0.00    +0.000 A 
ATOM      5  C   UNL     1       1.863   8.623  17.800  0.00  0.00    +0.000 A 
ATOM      6  C   UNL     1       1.235   9.787  18.270  0.00  0.00    +0.000 A 
ENDROOT
BRANCH   4   7
ATOM      7  C   UNL     1       2.859   6.378  18.172  0.00  0.00    +0.000 A 
ATOM      8  N   UNL     1       4.113   6.205  17.801  0.00  0.00    +0.000 NA
ATOM      9  C   UNL     1       4.195   4.861  17.468  0.00  0.00    +0.000 A 
ATOM     10  C   UNL     1       2.956   4.276  17.652  0.00  0.00    +0.000 A 
ATOM     11  C   UNL     1       2.364   2.936  17.497  0.00  0.00    +0.000 C 
ATOM     12  O   UNL     1       2.100   5.244  18.095  0.00  0.00    +0.000 OA
BRANCH   9  13
ATOM     13  C   UNL     1       5.479   4.298  16.955  0.00  0.00    +0.000 C 
BRANCH  13  14
ATOM     14  S   UNL     1       6.464   5.494  16.068  0.00  0.00    +0.000 S 
ATOM     15  O   UNL     1       5.697   6.715  15.883  0.00  0.00    +0.000 OA
ATOM     16  O   UNL     1       7.791   5.548  16.656  0.00  0.00    +0.000 OA
BRANCH  14  17
ATOM     17  C   UNL     1       6.658   4.777  14.441  0.00  0.00    +0.000 A 
ATOM     18  C   UNL     1       5.735   3.828  13.990  0.00  0.00    +0.000 A 
ATOM     19  C   UNL     1       5.812   3.363  12.677  0.00  0.00    +0.000 A 
ATOM     20  C   UNL     1       6.800   3.846  11.819  0.00  0.00    +0.000 A 
ATOM     21  C   UNL     1       7.719   4.794  12.271  0.00  0.00    +0.000 A 
ATOM     22  C   UNL     1       7.651   5.265  13.584  0.00  0.00    +0.000 A 
ENDBRANCH  14  17
ENDBRANCH  13  14
ENDBRANCH   9  13
ENDBRANCH   4   7
BRANCH   1  24
ATOM     23  N   UNL     1      -1.113  11.266  19.849  0.00  0.00    +0.000 N 
ATOM     24  C   UNL     1       0.217  11.111  20.172  0.00  0.00    +0.000 C 
ATOM     25  O   UNL     1       0.846  11.913  20.853  0.00  0.00    +0.000 OA
ATOM     26  H   UNL     1      -1.508  10.717  19.098  0.00  0.00    +0.000 HD
BRANCH  23  27
ATOM     27  C   UNL     1      -1.849  12.443  20.265  0.00  0.00    +0.000 C 
BRANCH  27  33
ATOM     28  C   UNL     1      -6.725  13.052  21.441  0.00  0.00    +0.000 C 
ATOM     29  C   UNL     1      -5.669  12.619  20.467  0.00  0.00    +0.000 A 
ATOM     30  C   UNL     1      -6.022  12.056  19.236  0.00  0.00    +0.000 A 
ATOM     31  C   UNL     1      -5.038  11.637  18.344  0.00  0.00    +0.000 A 
ATOM     32  C   UNL     1      -3.690  11.777  18.674  0.00  0.00    +0.000 A 
ATOM     33  C   UNL     1      -3.309  12.343  19.900  0.00  0.00    +0.000 A 
ATOM     34  C   UNL     1      -4.311  12.760  20.790  0.00  0.00    +0.000 A 
ENDBRANCH  27  33
ENDBRANCH  23  27
ENDBRANCH   1  24
TORSDOF 7
ENDMDL
MODEL 7
REMARK VINA RESULT:      -8.7      2.112      3.819
REMARK  Name = 
REMARK  9 active torsions:
REMARK  status: ('A' for Active; 'I' for Inactive)
REMARK    1  A    between atoms: C_1  and  C_2
REMARK    2  A    between atoms: C_6  and  C_7
REMARK    3  A    between atoms: C_7  and  N_8
REMARK    4  A    between atoms: C_9  and  C_11
REMARK    5  A    between atoms: C_14  and  C_15
REMARK    6  A    between atoms: C_17  and  C_18
REMARK    7  A    between atoms: C_18  and  S_19
REMARK    8  A    between atoms: S_19  and  C_22
REMARK    9  A    between atoms: C_28  and  C_29
REMARK                            x       y       z     vdW  Elec       q    Type
REMARK                         _______ _______ _______ _____ _____    ______ ____
ROOT
ATOM      1  C   UNL     1       0.746  10.209  19.472  0.00  0.00    +0.000 A 
ATOM      2  C   UNL     1       0.977   9.083  20.271  0.00  0.00    +0.000 A 
ATOM      3  C   UNL     1       1.797   8.046  19.812  0.00  0.00    +0.000 A 
ATOM      4  C   UNL     1       2.381   8.101  18.537  0.00  0.00    +0.000 A 
ATOM      5  C   UNL     1       2.117   9.218  17.730  0.00  0.00    +0.000 A 
ATOM      6  C   UNL     1       1.311  10.269  18.193  0.00  0.00    +0.000 A 
ENDROOT
BRANCH   4   7
ATOM      7  C   UNL     1       3.245   7.028  18.049  0.00  0.00    +0.000 A 
ATOM      8  N   UNL     1       3.422   5.803  18.506  0.00  0.00    +0.000 NA
ATOM      9  C   UNL     1       4.317   5.226  17.617  0.00  0.00    +0.000 A 
ATOM     10  C   UNL     1       4.650   6.155  16.649  0.00  0.00    +0.000 A 
ATOM     11  C   UNL     1       5.510   6.204  15.453  0.00  0.00    +0.000 C 
ATOM     12  O   UNL     1       3.972   7.308  16.926  0.00  0.00    +0.000 OA
BRANCH   9  13
ATOM     13  C   UNL     1       4.792   3.829  17.840  0.00  0.00    +0.000 C 
BRANCH  13  14
ATOM     14  S   UNL     1       3.477   2.623  17.777  0.00  0.00    +0.000 S 
ATOM     15  O   UNL     1       2.520   3.000  16.749  0.00  0.00    +0.000 OA
ATOM     16  O   UNL     1       4.052   1.290  17.783  0.00  0.00    +0.000 OA
BRANCH  14  17
ATOM     17  C   UNL     1       2.630   2.820  19.339  0.00  0.00    +0.000 A 
ATOM     18  C   UNL     1       1.270   3.146  19.352  0.00  0.00    +0.000 A 
ATOM     19  C   UNL     1       0.580   3.176  20.564  0.00  0.00    +0.000 A 
ATOM     20  C   UNL     1       1.242   2.877  21.755  0.00  0.00    +0.000 A 
ATOM     21  C   UNL     1       2.599   2.549  21.740  0.00  0.00    +0.000 A 
ATOM     22  C   UNL     1       3.299   2.518  20.531  0.00  0.00    +0.000 A 
ENDBRANCH  14  17
ENDBRANCH  13  14
ENDBRANCH   9  13
ENDBRANCH   4   7
BRANCH   1  24
ATOM     23  N   UNL     1      -1.486  11.146  19.788  0.00  0.00    +0.000 N 
ATOM     24  C   UNL     1      -0.134  11.286  20.005  0.00  0.00    +0.000 C 
ATOM     25  O   UNL     1       0.362  12.248  20.583  0.00  0.00    +0.000 OA
ATOM     26  H   UNL     1      -1.812  10.474  19.105  0.00  0.00    +0.000 HD
BRANCH  23  27
ATOM     27  C   UNL     1      -2.419  12.177  20.195  0.00  0.00    +0.000 C 
BRANCH  27  33
ATOM     28  C   UNL     1      -7.320  13.212  19.531  0.00  0.00    +0.000 C 
ATOM     29  C   UNL     1      -6.025  12.669  19.002  0.00  0.00    +0.000 A 
ATOM     30  C   UNL     1      -5.956  12.105  17.724  0.00  0.00    +0.000 A 
ATOM     31  C   UNL     1      -4.756  11.583  17.247  0.00  0.00    +0.000 A 
ATOM     32  C   UNL     1      -3.611  11.622  18.043  0.00  0.00    +0.000 A 
ATOM     33  C   UNL     1      -3.652  12.187  19.326  0.00  0.00    +0.000 A 
ATOM     34  C   UNL     1      -4.867  12.708  19.795  0.00  0.00    +0.000 A 
ENDBRANCH  27  33
ENDBRANCH  23  27
ENDBRANCH   1  24
TORSDOF 7
ENDMDL
MODEL 8
REMARK VINA RESULT:      -8.6      3.166      4.398
REMARK  Name = 
REMARK  9 active torsions:
REMARK  status: ('A' for Active; 'I' for Inactive)
REMARK    1  A    between atoms: C_1  and  C_2
REMARK    2  A    between atoms: C_6  and  C_7
REMARK    3  A    between atoms: C_7  and  N_8
REMARK    4  A    between atoms: C_9  and  C_11
REMARK    5  A    between atoms: C_14  and  C_15
REMARK    6  A    between atoms: C_17  and  C_18
REMARK    7  A    between atoms: C_18  and  S_19
REMARK    8  A    between atoms: S_19  and  C_22
REMARK    9  A    between atoms: C_28  and  C_29
REMARK                            x       y       z     vdW  Elec       q    Type
REMARK                         _______ _______ _______ _____ _____    ______ ____
ROOT
ATOM      1  C   UNL     1       0.472  10.666  20.686  0.00  0.00    +0.000 A 
ATOM      2  C   UNL     1       0.957  10.230  19.447  0.00  0.00    +0.000 A 
ATOM      3  C   UNL     1       1.473   8.936  19.306  0.00  0.00    +0.000 A 
ATOM      4  C   UNL     1       1.536   8.063  20.402  0.00  0.00    +0.000 A 
ATOM      5  C   UNL     1       1.078   8.520  21.647  0.00  0.00    +0.000 A 
ATOM      6  C   UNL     1       0.543   9.810  21.791  0.00  0.00    +0.000 A 
ENDROOT
BRANCH   4   7
ATOM      7  C   UNL     1       2.064   6.707  20.265  0.00  0.00    +0.000 A 
ATOM      8  N   UNL     1       3.136   6.270  19.632  0.00  0.00    +0.000 NA
ATOM      9  C   UNL     1       3.160   4.907  19.887  0.00  0.00    +0.000 A 
ATOM     10  C   UNL     1       2.072   4.578  20.675  0.00  0.00    +0.000 A 
ATOM     11  C   UNL     1       1.516   3.360  21.290  0.00  0.00    +0.000 C 
ATOM     12  O   UNL     1       1.367   5.725  20.912  0.00  0.00    +0.000 OA
BRANCH   9  13
ATOM     13  C   UNL     1       4.230   4.056  19.289  0.00  0.00    +0.000 C 
BRANCH  13  14
ATOM     14  S   UNL     1       3.793   3.405  17.685  0.00  0.00    +0.000 S 
ATOM     15  O   UNL     1       3.833   1.952  17.724  0.00  0.00    +0.000 OA
ATOM     16  O   UNL     1       2.607   4.089  17.200  0.00  0.00    +0.000 OA
BRANCH  14  17
ATOM     17  C   UNL     1       5.142   3.912  16.627  0.00  0.00    +0.000 A 
ATOM     18  C   UNL     1       5.087   3.633  15.257  0.00  0.00    +0.000 A 
ATOM     19  C   UNL     1       6.077   4.137  14.412  0.00  0.00    +0.000 A 
ATOM     20  C   UNL     1       7.110   4.918  14.930  0.00  0.00    +0.000 A 
ATOM     21  C   UNL     1       7.162   5.196  16.297  0.00  0.00    +0.000 A 
ATOM     22  C   UNL     1       6.177   4.695  17.151  0.00  0.00    +0.000 A 
ENDBRANCH  14  17
ENDBRANCH  13  14
ENDBRANCH   9  13
ENDBRANCH   4   7
BRANCH   1  24
ATOM     23  N   UNL     1       0.086  12.857  19.679  0.00  0.00    +0.000 N 
ATOM     24  C   UNL     1      -0.066  12.052  20.786  0.00  0.00    +0.000 C 
ATOM     25  O   UNL     1      -0.591  12.427  21.829  0.00  0.00    +0.000 OA
ATOM     26  H   UNL     1       0.731  12.582  18.951  0.00  0.00    +0.000 HD
BRANCH  23  27
ATOM     27  C   UNL     1      -0.331  14.244  19.702  0.00  0.00    +0.000 C 
BRANCH  27  33
ATOM     28  C   UNL     1       0.859  18.558  17.354  0.00  0.00    +0.000 C 
ATOM     29  C   UNL     1       1.267  17.217  17.891  0.00  0.00    +0.000 A 
ATOM     30  C   UNL     1       2.576  16.752  17.731  0.00  0.00    +0.000 A 
ATOM     31  C   UNL     1       2.943  15.498  18.213  0.00  0.00    +0.000 A 
ATOM     32  C   UNL     1       2.005  14.697  18.863  0.00  0.00    +0.000 A 
ATOM     33  C   UNL     1       0.686  15.142  19.042  0.00  0.00    +0.000 A 
ATOM     34  C   UNL     1       0.329  16.406  18.550  0.00  0.00    +0.000 A 
ENDBRANCH  27  33
ENDBRANCH  23  27
ENDBRANCH   1  24
TORSDOF 7
ENDMDL
MODEL 9
REMARK VINA RESULT:      -8.6      2.124      3.050
REMARK  Name = 
REMARK  9 active torsions:
REMARK  status: ('A' for Active; 'I' for Inactive)
REMARK    1  A    between atoms: C_1  and  C_2
REMARK    2  A    between atoms: C_6  and  C_7
REMARK    3  A    between atoms: C_7  and  N_8
REMARK    4  A    between atoms: C_9  and  C_11
REMARK    5  A    between atoms: C_14  and  C_15
REMARK    6  A    between atoms: C_17  and  C_18
REMARK    7  A    between atoms: C_18  and  S_19
REMARK    8  A    between atoms: S_19  and  C_22
REMARK    9  A    between atoms: C_28  and  C_29
REMARK                            x       y       z     vdW  Elec       q    Type
REMARK                         _______ _______ _______ _____ _____    ______ ____
ROOT
ATOM      1  C   UNL     1       0.669  10.436  20.068  0.00  0.00    +0.000 A 
ATOM      2  C   UNL     1       0.601   9.658  21.230  0.00  0.00    +0.000 A 
ATOM      3  C   UNL     1       1.112   8.354  21.239  0.00  0.00    +0.000 A 
ATOM      4  C   UNL     1       1.678   7.794  20.084  0.00  0.00    +0.000 A 
ATOM      5  C   UNL     1       1.711   8.570  18.914  0.00  0.00    +0.000 A 
ATOM      6  C   UNL     1       1.218   9.884  18.904  0.00  0.00    +0.000 A 
ENDROOT
BRANCH   4   7
ATOM      7  C   UNL     1       2.222   6.438  20.083  0.00  0.00    +0.000 A 
ATOM      8  N   UNL     1       3.230   5.926  19.405  0.00  0.00    +0.000 NA
ATOM      9  C   UNL     1       3.316   4.614  19.846  0.00  0.00    +0.000 A 
ATOM     10  C   UNL     1       2.328   4.390  20.787  0.00  0.00    +0.000 A 
ATOM     11  C   UNL     1       1.872   3.268  21.626  0.00  0.00    +0.000 C 
ATOM     12  O   UNL     1       1.624   5.552  20.935  0.00  0.00    +0.000 OA
BRANCH   9  13
ATOM     13  C   UNL     1       4.337   3.696  19.260  0.00  0.00    +0.000 C 
BRANCH  13  14
ATOM     14  S   UNL     1       3.915   3.134  17.620  0.00  0.00    +0.000 S 
ATOM     15  O   UNL     1       4.151   1.703  17.521  0.00  0.00    +0.000 OA
ATOM     16  O   UNL     1       2.625   3.687  17.243  0.00  0.00    +0.000 OA
BRANCH  14  17
ATOM     17  C   UNL     1       5.130   3.913  16.565  0.00  0.00    +0.000 A 
ATOM     18  C   UNL     1       6.138   4.697  17.135  0.00  0.00    +0.000 A 
ATOM     19  C   UNL     1       7.159   5.200  16.327  0.00  0.00    +0.000 A 
ATOM     20  C   UNL     1       7.175   4.919  14.961  0.00  0.00    +0.000 A 
ATOM     21  C   UNL     1       6.169   4.135  14.395  0.00  0.00    +0.000 A 
ATOM     22  C   UNL     1       5.142   3.627  15.195  0.00  0.00    +0.000 A 
ENDBRANCH  14  17
ENDBRANCH  13  14
ENDBRANCH   9  13
ENDBRANCH   4   7
BRANCH   1  24
ATOM     23  N   UNL     1      -1.213  11.939  20.461  0.00  0.00    +0.000 N 
ATOM     24  C   UNL     1       0.112  11.816  20.108  0.00  0.00    +0.000 C 
ATOM     25  O   UNL     1       0.824  12.769  19.810  0.00  0.00    +0.000 OA
ATOM     26  H   UNL     1      -1.806  11.120  20.457  0.00  0.00    +0.000 HD
BRANCH  23  27
ATOM     27  C   UNL     1      -1.872  13.230  20.452  0.00  0.00    +0.000 C 
BRANCH  27  33
ATOM     28  C   UNL     1      -4.399  12.495  24.766  0.00  0.00    +0.000 C 
ATOM     29  C   UNL     1      -4.398  12.830  23.303  0.00  0.00    +0.000 A 
ATOM     30  C   UNL     1      -5.599  13.054  22.621  0.00  0.00    +0.000 A 
ATOM     31  C   UNL     1      -5.593  13.344  21.259  0.00  0.00    +0.000 A 
ATOM     32  C   UNL     1      -4.385  13.414  20.564  0.00  0.00    +0.000 A 
ATOM     33  C   UNL     1      -3.167  13.199  21.226  0.00  0.00    +0.000 A 
ATOM     34  C   UNL     1      -3.187  12.907  22.598  0.00  0.00    +0.000 A 
ENDBRANCH  27  33
ENDBRANCH  23  27
ENDBRANCH   1  24
TORSDOF 7
ENDMDL
