MODEL 1
REMARK VINA RESULT:      -7.0      0.000      0.000
REMARK  Name = 
REMARK  4 active torsions:
REMARK  status: ('A' for Active; 'I' for Inactive)
REMARK    1  A    between atoms: C_1  and  C_2
REMARK    2  A    between atoms: C_5  and  C_6
REMARK    3  A    between atoms: C_8  and  C_9
REMARK    4  A    between atoms: C_11  and  C_12
REMARK                            x       y       z     vdW  Elec       q    Type
REMARK                         _______ _______ _______ _____ _____    ______ ____
ROOT
ATOM      1  C   UNL     1       4.977   4.118  17.737  0.00  0.00    +0.000 A 
ATOM      2  N   UNL     1       5.083   2.944  18.345  0.00  0.00    +0.000 NA
ATOM      3  C   UNL     1       4.271   2.975  19.456  0.00  0.00    +0.000 A 
ATOM      4  C   UNL     1       4.234   1.788  20.341  0.00  0.00    +0.000 C 
ATOM      5  C   UNL     1       3.609   4.186  19.528  0.00  0.00    +0.000 A 
ATOM      6  C   UNL     1       2.637   4.797  20.433  0.00  0.00    +0.000 A 
ATOM      7  C   UNL     1       2.123   4.070  21.650  0.00  0.00    +0.000 C 
ATOM      8  N   UNL     1       2.154   5.998  20.236  0.00  0.00    +0.000 NA
ATOM      9  C   UNL     1       2.608   6.640  19.124  0.00  0.00    +0.000 A 
ATOM     10  S   UNL     1       2.125   8.215  18.668  0.00  0.00    +0.000 S 
ATOM     11  C   UNL     1       3.138   8.104  17.278  0.00  0.00    +0.000 A 
ATOM     12  N   UNL     1       3.805   6.978  17.124  0.00  0.00    +0.000 NA
ATOM     13  C   UNL     1       3.510   6.175  18.188  0.00  0.00    +0.000 A 
ATOM     14  N   UNL     1       4.053   4.894  18.412  0.00  0.00    +0.000 N 
ENDROOT
BRANCH   1  19
ATOM     15  C   UNL     1       7.940   5.491  13.016  0.00  0.00    +0.000 C 
ATOM     16  C   UNL     1       7.157   5.086  14.227  0.00  0.00    +0.000 A 
ATOM     17  C   UNL     1       6.051   4.251  14.129  0.00  0.00    +0.000 A 
ATOM     18  C   UNL     1       5.339   3.937  15.288  0.00  0.00    +0.000 A 
ATOM     19  C   UNL     1       5.728   4.464  16.524  0.00  0.00    +0.000 A 
ATOM     20  C   UNL     1       6.876   5.245  16.520  0.00  0.00    +0.000 A 
ATOM     21  N   UNL     1       7.588   5.576  15.411  0.00  0.00    +0.000 NA
ENDBRANCH   1  19
TORSDOF 1
ENDMDL
MODEL 2
REMARK VINA RESULT:      -6.8      2.468      5.406
REMARK  Name = 
REMARK  4 active torsions:
REMARK  status: ('A' for Active; 'I' for Inactive)
REMARK    1  A    between atoms: C_1  and  C_2
REMARK    2  A    between atoms: C_5  and  C_6
REMARK    3  A    between atoms: C_8  and  C_9
REMARK    4  A    between atoms: C_11  and  C_12
REMARK                            x       y       z     vdW  Elec       q    Type
REMARK                         _______ _______ _______ _____ _____    ______ ____
ROOT
ATOM      1  C   UNL     1       2.354   6.162  19.809  0.00  0.00    +0.000 A 
ATOM      2  N   UNL     1       1.708   5.389  20.671  0.00  0.00    +0.000 NA
ATOM      3  C   UNL     1       2.351   4.172  20.703  0.00  0.00    +0.000 A 
ATOM      4  C   UNL     1       1.801   3.103  21.568  0.00  0.00    +0.000 C 
ATOM      5  C   UNL     1       3.450   4.193  19.867  0.00  0.00    +0.000 A 
ATOM      6  C   UNL     1       4.501   3.247  19.493  0.00  0.00    +0.000 A 
ATOM      7  C   UNL     1       4.545   1.850  20.058  0.00  0.00    +0.000 C 
ATOM      8  N   UNL     1       5.460   3.559  18.658  0.00  0.00    +0.000 NA
ATOM      9  C   UNL     1       5.424   4.829  18.168  0.00  0.00    +0.000 A 
ATOM     10  S   UNL     1       6.566   5.456  17.061  0.00  0.00    +0.000 S 
ATOM     11  C   UNL     1       5.734   6.966  17.087  0.00  0.00    +0.000 A 
ATOM     12  N   UNL     1       4.672   7.040  17.864  0.00  0.00    +0.000 NA
ATOM     13  C   UNL     1       4.502   5.817  18.447  0.00  0.00    +0.000 A 
ATOM     14  N   UNL     1       3.451   5.476  19.322  0.00  0.00    +0.000 N 
ENDROOT
BRANCH   1  19
ATOM     15  C   UNL     1       0.711  11.528  18.598  0.00  0.00    +0.000 C 
ATOM     16  C   UNL     1       1.175  10.131  18.876  0.00  0.00    +0.000 A 
ATOM     17  C   UNL     1       1.616   9.297  17.855  0.00  0.00    +0.000 A 
ATOM     18  C   UNL     1       2.002   7.993  18.171  0.00  0.00    +0.000 A 
ATOM     19  C   UNL     1       1.935   7.532  19.489  0.00  0.00    +0.000 A 
ATOM     20  C   UNL     1       1.530   8.460  20.439  0.00  0.00    +0.000 A 
ATOM     21  N   UNL     1       1.140   9.733  20.167  0.00  0.00    +0.000 NA
ENDBRANCH   1  19
TORSDOF 1
ENDMDL
MODEL 3
REMARK VINA RESULT:      -6.7      2.452      5.415
REMARK  Name = 
REMARK  4 active torsions:
REMARK  status: ('A' for Active; 'I' for Inactive)
REMARK    1  A    between atoms: C_1  and  C_2
REMARK    2  A    between atoms: C_5  and  C_6
REMARK    3  A    between atoms: C_8  and  C_9
REMARK    4  A    between atoms: C_11  and  C_12
REMARK                            x       y       z     vdW  Elec       q    Type
REMARK                         _______ _______ _______ _____ _____    ______ ____
ROOT
ATOM      1  C   UNL     1       2.408   6.214  19.732  0.00  0.00    +0.000 A 
ATOM      2  N   UNL     1       1.721   5.462  20.581  0.00  0.00    +0.000 NA
ATOM      3  C   UNL     1       2.338   4.232  20.641  0.00  0.00    +0.000 A 
ATOM      4  C   UNL     1       1.742   3.183  21.498  0.00  0.00    +0.000 C 
ATOM      5  C   UNL     1       3.461   4.224  19.837  0.00  0.00    +0.000 A 
ATOM      6  C   UNL     1       4.502   3.254  19.502  0.00  0.00    +0.000 A 
ATOM      7  C   UNL     1       4.501   1.861  20.079  0.00  0.00    +0.000 C 
ATOM      8  N   UNL     1       5.492   3.540  18.693  0.00  0.00    +0.000 NA
ATOM      9  C   UNL     1       5.496   4.806  18.192  0.00  0.00    +0.000 A 
ATOM     10  S   UNL     1       6.682   5.399  17.113  0.00  0.00    +0.000 S 
ATOM     11  C   UNL     1       5.881   6.926  17.103  0.00  0.00    +0.000 A 
ATOM     12  N   UNL     1       4.799   7.029  17.848  0.00  0.00    +0.000 NA
ATOM     13  C   UNL     1       4.587   5.814  18.435  0.00  0.00    +0.000 A 
ATOM     14  N   UNL     1       3.504   5.502  19.283  0.00  0.00    +0.000 N 
ENDROOT
BRANCH   1  19
ATOM     15  C   UNL     1       0.925  11.586  18.352  0.00  0.00    +0.000 C 
ATOM     16  C   UNL     1       1.273  10.184  18.746  0.00  0.00    +0.000 A 
ATOM     17  C   UNL     1       1.112   9.737  20.052  0.00  0.00    +0.000 A 
ATOM     18  C   UNL     1       1.488   8.430  20.368  0.00  0.00    +0.000 A 
ATOM     19  C   UNL     1       2.026   7.589  19.389  0.00  0.00    +0.000 A 
ATOM     20  C   UNL     1       2.096   8.116  18.106  0.00  0.00    +0.000 A 
ATOM     21  N   UNL     1       1.748   9.384  17.765  0.00  0.00    +0.000 NA
ENDBRANCH   1  19
TORSDOF 1
ENDMDL
MODEL 4
REMARK VINA RESULT:      -6.7      2.536      6.355
REMARK  Name = 
REMARK  4 active torsions:
REMARK  status: ('A' for Active; 'I' for Inactive)
REMARK    1  A    between atoms: C_1  and  C_2
REMARK    2  A    between atoms: C_5  and  C_6
REMARK    3  A    between atoms: C_8  and  C_9
REMARK    4  A    between atoms: C_11  and  C_12
REMARK                            x       y       z     vdW  Elec       q    Type
REMARK                         _______ _______ _______ _____ _____    ______ ____
ROOT
ATOM      1  C   UNL     1       3.070   6.937  18.242  0.00  0.00    +0.000 A 
ATOM      2  N   UNL     1       3.956   7.450  17.399  0.00  0.00    +0.000 NA
ATOM      3  C   UNL     1       4.627   6.402  16.810  0.00  0.00    +0.000 A 
ATOM      4  C   UNL     1       5.708   6.706  15.845  0.00  0.00    +0.000 C 
ATOM      5  C   UNL     1       4.125   5.198  17.268  0.00  0.00    +0.000 A 
ATOM      6  C   UNL     1       4.402   3.785  17.017  0.00  0.00    +0.000 A 
ATOM      7  C   UNL     1       5.477   3.347  16.056  0.00  0.00    +0.000 C 
ATOM      8  N   UNL     1       3.730   2.825  17.604  0.00  0.00    +0.000 NA
ATOM      9  C   UNL     1       2.748   3.230  18.456  0.00  0.00    +0.000 A 
ATOM     10  S   UNL     1       1.750   2.157  19.336  0.00  0.00    +0.000 S 
ATOM     11  C   UNL     1       0.927   3.511  20.017  0.00  0.00    +0.000 A 
ATOM     12  N   UNL     1       1.336   4.703  19.632  0.00  0.00    +0.000 NA
ATOM     13  C   UNL     1       2.379   4.522  18.769  0.00  0.00    +0.000 A 
ATOM     14  N   UNL     1       3.118   5.557  18.162  0.00  0.00    +0.000 N 
ENDROOT
BRANCH   1  19
ATOM     15  C   UNL     1      -0.374  10.133  21.541  0.00  0.00    +0.000 C 
ATOM     16  C   UNL     1       0.538   9.342  20.654  0.00  0.00    +0.000 A 
ATOM     17  C   UNL     1       0.722   9.679  19.318  0.00  0.00    +0.000 A 
ATOM     18  C   UNL     1       1.556   8.882  18.532  0.00  0.00    +0.000 A 
ATOM     19  C   UNL     1       2.187   7.759  19.077  0.00  0.00    +0.000 A 
ATOM     20  C   UNL     1       1.978   7.542  20.432  0.00  0.00    +0.000 A 
ATOM     21  N   UNL     1       1.167   8.290  21.225  0.00  0.00    +0.000 NA
ENDBRANCH   1  19
TORSDOF 1
ENDMDL
MODEL 5
REMARK VINA RESULT:      -6.5      2.593      6.374
REMARK  Name = 
REMARK  4 active torsions:
REMARK  status: ('A' for Active; 'I' for Inactive)
REMARK    1  A    between atoms: C_1  and  C_2
REMARK    2  A    between atoms: C_5  and  C_6
REMARK    3  A    between atoms: C_8  and  C_9
REMARK    4  A    between atoms: C_11  and  C_12
REMARK                            x       y       z     vdW  Elec       q    Type
REMARK                         _______ _______ _______ _____ _____    ______ ____
ROOT
ATOM      1  C   UNL     1       3.075   6.963  18.246  0.00  0.00    +0.000 A 
ATOM      2  N   UNL     1       3.962   7.468  17.401  0.00  0.00    +0.000 NA
ATOM      3  C   UNL     1       4.627   6.413  16.816  0.00  0.00    +0.000 A 
ATOM      4  C   UNL     1       5.709   6.706  15.849  0.00  0.00    +0.000 C 
ATOM      5  C   UNL     1       4.118   5.215  17.278  0.00  0.00    +0.000 A 
ATOM      6  C   UNL     1       4.386   3.798  17.034  0.00  0.00    +0.000 A 
ATOM      7  C   UNL     1       5.458   3.350  16.073  0.00  0.00    +0.000 C 
ATOM      8  N   UNL     1       3.709   2.845  17.625  0.00  0.00    +0.000 NA
ATOM      9  C   UNL     1       2.729   3.259  18.475  0.00  0.00    +0.000 A 
ATOM     10  S   UNL     1       1.726   2.196  19.361  0.00  0.00    +0.000 S 
ATOM     11  C   UNL     1       0.912   3.558  20.037  0.00  0.00    +0.000 A 
ATOM     12  N   UNL     1       1.328   4.745  19.647  0.00  0.00    +0.000 NA
ATOM     13  C   UNL     1       2.369   4.554  18.784  0.00  0.00    +0.000 A 
ATOM     14  N   UNL     1       3.114   5.583  18.172  0.00  0.00    +0.000 N 
ENDROOT
BRANCH   1  19
ATOM     15  C   UNL     1      -0.368  10.237  21.470  0.00  0.00    +0.000 C 
ATOM     16  C   UNL     1       0.516   9.342  20.657  0.00  0.00    +0.000 A 
ATOM     17  C   UNL     1       1.164   8.252  21.226  0.00  0.00    +0.000 A 
ATOM     18  C   UNL     1       2.004   7.475  20.426  0.00  0.00    +0.000 A 
ATOM     19  C   UNL     1       2.197   7.795  19.079  0.00  0.00    +0.000 A 
ATOM     20  C   UNL     1       1.463   8.871  18.597  0.00  0.00    +0.000 A 
ATOM     21  N   UNL     1       0.644   9.653  19.348  0.00  0.00    +0.000 NA
ENDBRANCH   1  19
TORSDOF 1
ENDMDL
MODEL 6
REMARK VINA RESULT:      -6.4      1.809      3.496
REMARK  Name = 
REMARK  4 active torsions:
REMARK  status: ('A' for Active; 'I' for Inactive)
REMARK    1  A    between atoms: C_1  and  C_2
REMARK    2  A    between atoms: C_5  and  C_6
REMARK    3  A    between atoms: C_8  and  C_9
REMARK    4  A    between atoms: C_11  and  C_12
REMARK                            x       y       z     vdW  Elec       q    Type
REMARK                         _______ _______ _______ _____ _____    ______ ____
ROOT
ATOM      1  C   UNL     1       3.930   6.499  17.537  0.00  0.00    +0.000 A 
ATOM      2  N   UNL     1       3.424   7.723  17.477  0.00  0.00    +0.000 NA
ATOM      3  C   UNL     1       2.527   7.855  18.513  0.00  0.00    +0.000 A 
ATOM      4  C   UNL     1       1.786   9.130  18.650  0.00  0.00    +0.000 C 
ATOM      5  C   UNL     1       2.495   6.696  19.265  0.00  0.00    +0.000 A 
ATOM      6  C   UNL     1       1.781   6.240  20.456  0.00  0.00    +0.000 A 
ATOM      7  C   UNL     1       0.783   7.119  21.166  0.00  0.00    +0.000 C 
ATOM      8  N   UNL     1       1.972   5.052  20.975  0.00  0.00    +0.000 NA
ATOM      9  C   UNL     1       2.889   4.272  20.339  0.00  0.00    +0.000 A 
ATOM     10  S   UNL     1       3.296   2.686  20.832  0.00  0.00    +0.000 S 
ATOM     11  C   UNL     1       4.426   2.593  19.532  0.00  0.00    +0.000 A 
ATOM     12  N   UNL     1       4.528   3.658  18.763  0.00  0.00    +0.000 NA
ATOM     13  C   UNL     1       3.635   4.585  19.222  0.00  0.00    +0.000 A 
ATOM     14  N   UNL     1       3.413   5.851  18.643  0.00  0.00    +0.000 N 
ENDROOT
BRANCH   1  19
ATOM     15  C   UNL     1       7.773   4.512  13.764  0.00  0.00    +0.000 C 
ATOM     16  C   UNL     1       6.749   4.983  14.750  0.00  0.00    +0.000 A 
ATOM     17  C   UNL     1       5.455   4.477  14.748  0.00  0.00    +0.000 A 
ATOM     18  C   UNL     1       4.534   4.981  15.668  0.00  0.00    +0.000 A 
ATOM     19  C   UNL     1       4.905   5.985  16.568  0.00  0.00    +0.000 A 
ATOM     20  C   UNL     1       6.235   6.383  16.520  0.00  0.00    +0.000 A 
ATOM     21  N   UNL     1       7.155   5.921  15.635  0.00  0.00    +0.000 NA
ENDBRANCH   1  19
TORSDOF 1
ENDMDL
MODEL 7
REMARK VINA RESULT:      -6.3      2.446      5.635
REMARK  Name = 
REMARK  4 active torsions:
REMARK  status: ('A' for Active; 'I' for Inactive)
REMARK    1  A    between atoms: C_1  and  C_2
REMARK    2  A    between atoms: C_5  and  C_6
REMARK    3  A    between atoms: C_8  and  C_9
REMARK    4  A    between atoms: C_11  and  C_12
REMARK                            x       y       z     vdW  Elec       q    Type
REMARK                         _______ _______ _______ _____ _____    ______ ____
ROOT
ATOM      1  C   UNL     1       2.075   6.070  19.743  0.00  0.00    +0.000 A 
ATOM      2  N   UNL     1       1.527   5.229  20.609  0.00  0.00    +0.000 NA
ATOM      3  C   UNL     1       1.987   3.965  20.312  0.00  0.00    +0.000 A 
ATOM      4  C   UNL     1       1.492   2.824  21.115  0.00  0.00    +0.000 C 
ATOM      5  C   UNL     1       2.877   4.019  19.256  0.00  0.00    +0.000 A 
ATOM      6  C   UNL     1       3.683   3.051  18.515  0.00  0.00    +0.000 A 
ATOM      7  C   UNL     1       3.653   1.580  18.843  0.00  0.00    +0.000 C 
ATOM      8  N   UNL     1       4.477   3.405  17.535  0.00  0.00    +0.000 NA
ATOM      9  C   UNL     1       4.513   4.737  17.258  0.00  0.00    +0.000 A 
ATOM     10  S   UNL     1       5.469   5.428  16.020  0.00  0.00    +0.000 S 
ATOM     11  C   UNL     1       4.878   6.987  16.459  0.00  0.00    +0.000 A 
ATOM     12  N   UNL     1       4.027   7.032  17.464  0.00  0.00    +0.000 NA
ATOM     13  C   UNL     1       3.816   5.750  17.885  0.00  0.00    +0.000 A 
ATOM     14  N   UNL     1       2.939   5.371  18.920  0.00  0.00    +0.000 N 
ENDROOT
BRANCH   1  19
ATOM     15  C   UNL     1       0.969  11.703  19.665  0.00  0.00    +0.000 C 
ATOM     16  C   UNL     1       1.222  10.227  19.722  0.00  0.00    +0.000 A 
ATOM     17  C   UNL     1       1.107   9.518  20.912  0.00  0.00    +0.000 A 
ATOM     18  C   UNL     1       1.390   8.150  20.910  0.00  0.00    +0.000 A 
ATOM     19  C   UNL     1       1.791   7.510  19.734  0.00  0.00    +0.000 A 
ATOM     20  C   UNL     1       1.824   8.299  18.591  0.00  0.00    +0.000 A 
ATOM     21  N   UNL     1       1.563   9.631  18.558  0.00  0.00    +0.000 NA
ENDBRANCH   1  19
TORSDOF 1
ENDMDL
MODEL 8
REMARK VINA RESULT:      -6.3      5.821      8.297
REMARK  Name = 
REMARK  4 active torsions:
REMARK  status: ('A' for Active; 'I' for Inactive)
REMARK    1  A    between atoms: C_1  and  C_2
REMARK    2  A    between atoms: C_5  and  C_6
REMARK    3  A    between atoms: C_8  and  C_9
REMARK    4  A    between atoms: C_11  and  C_12
REMARK                            x       y       z     vdW  Elec       q    Type
REMARK                         _______ _______ _______ _____ _____    ______ ____
ROOT
ATOM      1  C   UNL     1       0.011  10.553  19.967  0.00  0.00    +0.000 A 
ATOM      2  N   UNL     1       0.208  11.074  21.170  0.00  0.00    +0.000 NA
ATOM      3  C   UNL     1      -0.851  11.912  21.440  0.00  0.00    +0.000 A 
ATOM      4  C   UNL     1      -0.857  12.657  22.719  0.00  0.00    +0.000 C 
ATOM      5  C   UNL     1      -1.754  11.888  20.394  0.00  0.00    +0.000 A 
ATOM      6  C   UNL     1      -3.036  12.527  20.102  0.00  0.00    +0.000 A 
ATOM      7  C   UNL     1      -3.677  13.492  21.067  0.00  0.00    +0.000 C 
ATOM      8  N   UNL     1      -3.699  12.295  18.997  0.00  0.00    +0.000 NA
ATOM      9  C   UNL     1      -3.123  11.408  18.140  0.00  0.00    +0.000 A 
ATOM     10  S   UNL     1      -3.801  10.957  16.637  0.00  0.00    +0.000 S 
ATOM     11  C   UNL     1      -2.463   9.902  16.371  0.00  0.00    +0.000 A 
ATOM     12  N   UNL     1      -1.552   9.855  17.322  0.00  0.00    +0.000 NA
ATOM     13  C   UNL     1      -1.931  10.730  18.300  0.00  0.00    +0.000 A 
ATOM     14  N   UNL     1      -1.201  10.999  19.474  0.00  0.00    +0.000 N 
ENDROOT
BRANCH   1  19
ATOM     15  C   UNL     1       3.715   6.967  17.440  0.00  0.00    +0.000 C 
ATOM     16  C   UNL     1       2.768   7.889  18.146  0.00  0.00    +0.000 A 
ATOM     17  C   UNL     1       2.243   7.572  19.393  0.00  0.00    +0.000 A 
ATOM     18  C   UNL     1       1.337   8.454  19.985  0.00  0.00    +0.000 A 
ATOM     19  C   UNL     1       0.957   9.629  19.329  0.00  0.00    +0.000 A 
ATOM     20  C   UNL     1       1.579   9.875  18.112  0.00  0.00    +0.000 A 
ATOM     21  N   UNL     1       2.458   9.037  17.503  0.00  0.00    +0.000 NA
ENDBRANCH   1  19
TORSDOF 1
ENDMDL
MODEL 9
REMARK VINA RESULT:      -6.2      5.874      8.402
REMARK  Name = 
REMARK  4 active torsions:
REMARK  status: ('A' for Active; 'I' for Inactive)
REMARK    1  A    between atoms: C_1  and  C_2
REMARK    2  A    between atoms: C_5  and  C_6
REMARK    3  A    between atoms: C_8  and  C_9
REMARK    4  A    between atoms: C_11  and  C_12
REMARK                            x       y       z     vdW  Elec       q    Type
REMARK                         _______ _______ _______ _____ _____    ______ ____
ROOT
ATOM      1  C   UNL     1      -0.056  10.581  20.143  0.00  0.00    +0.000 A 
ATOM      2  N   UNL     1       0.132  11.130  21.335  0.00  0.00    +0.000 NA
ATOM      3  C   UNL     1      -0.917  11.992  21.566  0.00  0.00    +0.000 A 
ATOM      4  C   UNL     1      -0.930  12.770  22.826  0.00  0.00    +0.000 C 
ATOM      5  C   UNL     1      -1.805  11.956  20.508  0.00  0.00    +0.000 A 
ATOM      6  C   UNL     1      -3.071  12.608  20.180  0.00  0.00    +0.000 A 
ATOM      7  C   UNL     1      -3.710  13.608  21.111  0.00  0.00    +0.000 C 
ATOM      8  N   UNL     1      -3.722  12.358  19.071  0.00  0.00    +0.000 NA
ATOM      9  C   UNL     1      -3.148  11.439  18.247  0.00  0.00    +0.000 A 
ATOM     10  S   UNL     1      -3.811  10.961  16.745  0.00  0.00    +0.000 S 
ATOM     11  C   UNL     1      -2.487   9.878  16.527  0.00  0.00    +0.000 A 
ATOM     12  N   UNL     1      -1.591   9.841  17.493  0.00  0.00    +0.000 NA
ATOM     13  C   UNL     1      -1.971  10.747  18.442  0.00  0.00    +0.000 A 
ATOM     14  N   UNL     1      -1.253  11.034  19.620  0.00  0.00    +0.000 N 
ENDROOT
BRANCH   1  19
ATOM     15  C   UNL     1       3.613   6.820  17.828  0.00  0.00    +0.000 C 
ATOM     16  C   UNL     1       2.638   7.812  18.384  0.00  0.00    +0.000 A 
ATOM     17  C   UNL     1       2.284   8.956  17.678  0.00  0.00    +0.000 A 
ATOM     18  C   UNL     1       1.398   9.861  18.264  0.00  0.00    +0.000 A 
ATOM     19  C   UNL     1       0.884   9.626  19.543  0.00  0.00    +0.000 A 
ATOM     20  C   UNL     1       1.260   8.430  20.139  0.00  0.00    +0.000 A 
ATOM     21  N   UNL     1       2.125   7.531  19.603  0.00  0.00    +0.000 NA
ENDBRANCH   1  19
TORSDOF 1
ENDMDL
