MODEL 1
REMARK VINA RESULT:      -7.4      0.000      0.000
REMARK  Name = 
REMARK  6 active torsions:
REMARK  status: ('A' for Active; 'I' for Inactive)
REMARK    1  A    between atoms: C_3  and  C_4
REMARK    2  A    between atoms: C_4  and  N_5
REMARK    3  A    between atoms: N_5  and  C_6
REMARK    4  A    between atoms: C_6  and  C_7
REMARK    5  A    between atoms: C_10  and  C_11
REMARK    6  A    between atoms: C_11  and  N_12
REMARK                            x       y       z     vdW  Elec       q    Type
REMARK                         _______ _______ _______ _____ _____    ______ ____
ROOT
ATOM      1  N   UNL     1       3.251   3.839  18.493  0.00  0.00    +0.000 NA
ATOM      2  H   UNL     1       2.726   3.006  18.150  0.00  0.00    +0.000 HD
ENDROOT
BRANCH   1   3
ATOM      3  C   UNL     1       4.585   3.400  18.918  0.00  0.00    +0.000 C 
BRANCH   3   6
ATOM      4  C   UNL     1       7.271   6.115  19.056  0.00  0.00    +0.000 A 
ATOM      5  C   UNL     1       6.283   5.199  19.432  0.00  0.00    +0.000 A 
ATOM      6  C   UNL     1       5.643   4.392  18.472  0.00  0.00    +0.000 A 
ATOM      7  C   UNL     1       6.028   4.523  17.116  0.00  0.00    +0.000 A 
ATOM      8  C   UNL     1       7.015   5.460  16.746  0.00  0.00    +0.000 A 
ATOM      9  C   UNL     1       7.637   6.245  17.715  0.00  0.00    +0.000 A 
ATOM     10  O   UNL     1       7.350   5.584  15.437  0.00  0.00    +0.000 OA
ATOM     11  C   UNL     1       6.539   5.058  14.442  0.00  0.00    +0.000 C 
ATOM     12  C   UNL     1       6.054   3.669  14.876  0.00  0.00    +0.000 C 
ATOM     13  O   UNL     1       5.474   3.760  16.134  0.00  0.00    +0.000 OA
ENDBRANCH   3   6
ENDBRANCH   1   3
BRANCH   1  14
ATOM     14  C   UNL     1       2.497   4.446  19.601  0.00  0.00    +0.000 C 
BRANCH  14  15
ATOM     15  C   UNL     1       2.302   5.920  19.335  0.00  0.00    +0.000 A 
ATOM     16  C   UNL     1       1.864   6.766  20.367  0.00  0.00    +0.000 A 
ATOM     17  C   UNL     1       1.632   8.121  20.125  0.00  0.00    +0.000 A 
ATOM     18  C   UNL     1       1.847   8.660  18.849  0.00  0.00    +0.000 A 
ATOM     19  C   UNL     1       2.312   7.824  17.819  0.00  0.00    +0.000 A 
ATOM     20  C   UNL     1       2.536   6.463  18.060  0.00  0.00    +0.000 A 
BRANCH  18  21
ATOM     21  C   UNL     1       1.556  10.116  18.593  0.00  0.00    +0.000 C 
BRANCH  21  22
ATOM     22  N   UNL     1       0.118  10.370  18.580  0.00  0.00    +0.000 N 
ATOM     23  C   UNL     1      -0.587  11.096  19.464  0.00  0.00    +0.000 A 
ATOM     24  N   UNL     1      -1.889  11.116  19.126  0.00  0.00    +0.000 NA
ATOM     25  C   UNL     1      -1.932  10.371  18.002  0.00  0.00    +0.000 A 
ATOM     26  N   UNL     1      -0.713   9.911  17.660  0.00  0.00    +0.000 NA
ENDBRANCH  21  22
ENDBRANCH  18  21
ENDBRANCH  14  15
ENDBRANCH   1  14
TORSDOF 6
ENDMDL
MODEL 2
REMARK VINA RESULT:      -7.2      2.224      4.186
REMARK  Name = 
REMARK  6 active torsions:
REMARK  status: ('A' for Active; 'I' for Inactive)
REMARK    1  A    between atoms: C_3  and  C_4
REMARK    2  A    between atoms: C_4  and  N_5
REMARK    3  A    between atoms: N_5  and  C_6
REMARK    4  A    between atoms: C_6  and  C_7
REMARK    5  A    between atoms: C_10  and  C_11
REMARK    6  A    between atoms: C_11  and  N_12
REMARK                            x       y       z     vdW  Elec       q    Type
REMARK                         _______ _______ _______ _____ _____    ______ ____
ROOT
ATOM      1  N   UNL     1       2.013   6.893  20.232  0.00  0.00    +0.000 NA
ATOM      2  H   UNL     1       1.417   6.938  19.377  0.00  0.00    +0.000 HD
ENDROOT
BRANCH   1   3
ATOM      3  C   UNL     1       1.826   5.578  20.855  0.00  0.00    +0.000 C 
BRANCH   3   6
ATOM      4  C   UNL     1       1.087   2.409  18.851  0.00  0.00    +0.000 A 
ATOM      5  C   UNL     1       1.004   3.436  19.797  0.00  0.00    +0.000 A 
ATOM      6  C   UNL     1       1.956   4.473  19.824  0.00  0.00    +0.000 A 
ATOM      7  C   UNL     1       2.998   4.458  18.865  0.00  0.00    +0.000 A 
ATOM      8  C   UNL     1       3.080   3.409  17.925  0.00  0.00    +0.000 A 
ATOM      9  C   UNL     1       2.124   2.396  17.916  0.00  0.00    +0.000 A 
ATOM     10  O   UNL     1       4.102   3.403  17.032  0.00  0.00    +0.000 OA
ATOM     11  C   UNL     1       5.218   4.204  17.221  0.00  0.00    +0.000 C 
ATOM     12  C   UNL     1       4.764   5.587  17.703  0.00  0.00    +0.000 C 
ATOM     13  O   UNL     1       3.940   5.439  18.811  0.00  0.00    +0.000 OA
ENDBRANCH   3   6
ENDBRANCH   1   3
BRANCH   1  14
ATOM     14  C   UNL     1       1.620   7.986  21.134  0.00  0.00    +0.000 C 
BRANCH  14  15
ATOM     15  C   UNL     1       0.841   9.026  20.363  0.00  0.00    +0.000 A 
ATOM     16  C   UNL     1       1.195   9.325  19.037  0.00  0.00    +0.000 A 
ATOM     17  C   UNL     1       0.517  10.317  18.327  0.00  0.00    +0.000 A 
ATOM     18  C   UNL     1      -0.539  11.019  18.924  0.00  0.00    +0.000 A 
ATOM     19  C   UNL     1      -0.915  10.706  20.241  0.00  0.00    +0.000 A 
ATOM     20  C   UNL     1      -0.230   9.717  20.956  0.00  0.00    +0.000 A 
BRANCH  18  21
ATOM     21  C   UNL     1      -1.237  12.114  18.159  0.00  0.00    +0.000 C 
BRANCH  21  22
ATOM     22  N   UNL     1      -2.451  11.616  17.520  0.00  0.00    +0.000 N 
ATOM     23  C   UNL     1      -2.550  11.006  16.327  0.00  0.00    +0.000 A 
ATOM     24  N   UNL     1      -3.829  10.679  16.069  0.00  0.00    +0.000 NA
ATOM     25  C   UNL     1      -4.491  11.121  17.159  0.00  0.00    +0.000 A 
ATOM     26  N   UNL     1      -3.660  11.693  18.050  0.00  0.00    +0.000 NA
ENDBRANCH  21  22
ENDBRANCH  18  21
ENDBRANCH  14  15
ENDBRANCH   1  14
TORSDOF 6
ENDMDL
MODEL 3
REMARK VINA RESULT:      -7.1      0.955      1.377
REMARK  Name = 
REMARK  6 active torsions:
REMARK  status: ('A' for Active; 'I' for Inactive)
REMARK    1  A    between atoms: C_3  and  C_4
REMARK    2  A    between atoms: C_4  and  N_5
REMARK    3  A    between atoms: N_5  and  C_6
REMARK    4  A    between atoms: C_6  and  C_7
REMARK    5  A    between atoms: C_10  and  C_11
REMARK    6  A    between atoms: C_11  and  N_12
REMARK                            x       y       z     vdW  Elec       q    Type
REMARK                         _______ _______ _______ _____ _____    ______ ____
ROOT
ATOM      1  N   UNL     1       3.058   3.600  17.503  0.00  0.00    +0.000 NA
ATOM      2  H   UNL     1       2.854   2.889  16.768  0.00  0.00    +0.000 HD
ENDROOT
BRANCH   1   3
ATOM      3  C   UNL     1       4.249   3.170  18.244  0.00  0.00    +0.000 C 
BRANCH   3   6
ATOM      4  C   UNL     1       6.935   5.765  19.052  0.00  0.00    +0.000 A 
ATOM      5  C   UNL     1       5.884   4.851  19.182  0.00  0.00    +0.000 A 
ATOM      6  C   UNL     1       5.381   4.163  18.062  0.00  0.00    +0.000 A 
ATOM      7  C   UNL     1       5.969   4.411  16.798  0.00  0.00    +0.000 A 
ATOM      8  C   UNL     1       7.018   5.346  16.676  0.00  0.00    +0.000 A 
ATOM      9  C   UNL     1       7.502   6.011  17.800  0.00  0.00    +0.000 A 
ATOM     10  O   UNL     1       7.550   5.584  15.450  0.00  0.00    +0.000 OA
ATOM     11  C   UNL     1       6.889   5.185  14.298  0.00  0.00    +0.000 C 
ATOM     12  C   UNL     1       6.317   3.778  14.513  0.00  0.00    +0.000 C 
ATOM     13  O   UNL     1       5.555   3.766  15.673  0.00  0.00    +0.000 OA
ENDBRANCH   3   6
ENDBRANCH   1   3
BRANCH   1  14
ATOM     14  C   UNL     1       1.882   3.718  18.379  0.00  0.00    +0.000 C 
BRANCH  14  15
ATOM     15  C   UNL     1       1.881   5.074  19.045  0.00  0.00    +0.000 A 
ATOM     16  C   UNL     1       1.368   5.215  20.346  0.00  0.00    +0.000 A 
ATOM     17  C   UNL     1       1.314   6.469  20.956  0.00  0.00    +0.000 A 
ATOM     18  C   UNL     1       1.785   7.605  20.284  0.00  0.00    +0.000 A 
ATOM     19  C   UNL     1       2.325   7.466  18.994  0.00  0.00    +0.000 A 
ATOM     20  C   UNL     1       2.371   6.210  18.378  0.00  0.00    +0.000 A 
BRANCH  18  21
ATOM     21  C   UNL     1       1.686   8.959  20.940  0.00  0.00    +0.000 C 
BRANCH  21  22
ATOM     22  N   UNL     1       0.764   9.828  20.215  0.00  0.00    +0.000 N 
ATOM     23  C   UNL     1       0.993  10.467  19.055  0.00  0.00    +0.000 A 
ATOM     24  N   UNL     1      -0.091  11.172  18.684  0.00  0.00    +0.000 NA
ATOM     25  C   UNL     1      -0.978  10.926  19.671  0.00  0.00    +0.000 A 
ATOM     26  N   UNL     1      -0.466  10.107  20.610  0.00  0.00    +0.000 NA
ENDBRANCH  21  22
ENDBRANCH  18  21
ENDBRANCH  14  15
ENDBRANCH   1  14
TORSDOF 6
ENDMDL
MODEL 4
REMARK VINA RESULT:      -6.9      4.316      9.481
REMARK  Name = 
REMARK  6 active torsions:
REMARK  status: ('A' for Active; 'I' for Inactive)
REMARK    1  A    between atoms: C_3  and  C_4
REMARK    2  A    between atoms: C_4  and  N_5
REMARK    3  A    between atoms: N_5  and  C_6
REMARK    4  A    between atoms: C_6  and  C_7
REMARK    5  A    between atoms: C_10  and  C_11
REMARK    6  A    between atoms: C_11  and  N_12
REMARK                            x       y       z     vdW  Elec       q    Type
REMARK                         _______ _______ _______ _____ _____    ______ ____
ROOT
ATOM      1  N   UNL     1      -0.661  10.253  20.224  0.00  0.00    +0.000 NA
ATOM      2  H   UNL     1      -0.923   9.430  19.639  0.00  0.00    +0.000 HD
ENDROOT
BRANCH   1   3
ATOM      3  C   UNL     1      -1.495  11.391  19.820  0.00  0.00    +0.000 C 
BRANCH   3   6
ATOM      4  C   UNL     1      -2.294   9.970  16.364  0.00  0.00    +0.000 A 
ATOM      5  C   UNL     1      -1.626  10.288  17.551  0.00  0.00    +0.000 A 
ATOM      6  C   UNL     1      -2.245  11.077  18.539  0.00  0.00    +0.000 A 
ATOM      7  C   UNL     1      -3.564  11.536  18.308  0.00  0.00    +0.000 A 
ATOM      8  C   UNL     1      -4.223  11.221  17.101  0.00  0.00    +0.000 A 
ATOM      9  C   UNL     1      -3.591  10.435  16.139  0.00  0.00    +0.000 A 
ATOM     10  O   UNL     1      -5.478  11.692  16.892  0.00  0.00    +0.000 OA
ATOM     11  C   UNL     1      -5.993  12.716  17.673  0.00  0.00    +0.000 C 
ATOM     12  C   UNL     1      -5.612  12.467  19.137  0.00  0.00    +0.000 C 
ATOM     13  O   UNL     1      -4.239  12.281  19.227  0.00  0.00    +0.000 OA
ENDBRANCH   3   6
ENDBRANCH   1   3
BRANCH   1  14
ATOM     14  C   UNL     1       0.770  10.529  20.030  0.00  0.00    +0.000 C 
BRANCH  14  15
ATOM     15  C   UNL     1       1.459   9.291  19.507  0.00  0.00    +0.000 A 
ATOM     16  C   UNL     1       1.914   9.251  18.178  0.00  0.00    +0.000 A 
ATOM     17  C   UNL     1       2.508   8.097  17.665  0.00  0.00    +0.000 A 
ATOM     18  C   UNL     1       2.673   6.965  18.475  0.00  0.00    +0.000 A 
ATOM     19  C   UNL     1       2.246   7.009  19.813  0.00  0.00    +0.000 A 
ATOM     20  C   UNL     1       1.642   8.163  20.325  0.00  0.00    +0.000 A 
BRANCH  18  21
ATOM     21  C   UNL     1       3.282   5.713  17.897  0.00  0.00    +0.000 C 
BRANCH  21  22
ATOM     22  N   UNL     1       4.691   5.596  18.262  0.00  0.00    +0.000 N 
ATOM     23  C   UNL     1       5.218   4.826  19.228  0.00  0.00    +0.000 A 
ATOM     24  N   UNL     1       6.555   4.971  19.270  0.00  0.00    +0.000 NA
ATOM     25  C   UNL     1       6.804   5.862  18.287  0.00  0.00    +0.000 A 
ATOM     26  N   UNL     1       5.673   6.249  17.666  0.00  0.00    +0.000 NA
ENDBRANCH  21  22
ENDBRANCH  18  21
ENDBRANCH  14  15
ENDBRANCH   1  14
TORSDOF 6
ENDMDL
MODEL 5
REMARK VINA RESULT:      -6.9      1.683      2.443
REMARK  Name = 
REMARK  6 active torsions:
REMARK  status: ('A' for Active; 'I' for Inactive)
REMARK    1  A    between atoms: C_3  and  C_4
REMARK    2  A    between atoms: C_4  and  N_5
REMARK    3  A    between atoms: N_5  and  C_6
REMARK    4  A    between atoms: C_6  and  C_7
REMARK    5  A    between atoms: C_10  and  C_11
REMARK    6  A    between atoms: C_11  and  N_12
REMARK                            x       y       z     vdW  Elec       q    Type
REMARK                         _______ _______ _______ _____ _____    ______ ____
ROOT
ATOM      1  N   UNL     1       2.738   5.677  17.733  0.00  0.00    +0.000 NA
ATOM      2  H   UNL     1       1.761   5.678  18.100  0.00  0.00    +0.000 HD
ENDROOT
BRANCH   1   3
ATOM      3  C   UNL     1       3.513   4.687  18.488  0.00  0.00    +0.000 C 
BRANCH   3   6
ATOM      4  C   UNL     1       7.150   5.522  19.313  0.00  0.00    +0.000 A 
ATOM      5  C   UNL     1       5.774   5.303  19.433  0.00  0.00    +0.000 A 
ATOM      6  C   UNL     1       5.001   4.929  18.317  0.00  0.00    +0.000 A 
ATOM      7  C   UNL     1       5.651   4.771  17.069  0.00  0.00    +0.000 A 
ATOM      8  C   UNL     1       7.036   5.008  16.956  0.00  0.00    +0.000 A 
ATOM      9  C   UNL     1       7.781   5.374  18.076  0.00  0.00    +0.000 A 
ATOM     10  O   UNL     1       7.632   4.874  15.744  0.00  0.00    +0.000 OA
ATOM     11  C   UNL     1       6.878   4.826  14.582  0.00  0.00    +0.000 C 
ATOM     12  C   UNL     1       5.649   3.941  14.820  0.00  0.00    +0.000 C 
ATOM     13  O   UNL     1       4.977   4.386  15.951  0.00  0.00    +0.000 OA
ENDBRANCH   3   6
ENDBRANCH   1   3
BRANCH   1  14
ATOM     14  C   UNL     1       3.294   7.031  17.876  0.00  0.00    +0.000 C 
BRANCH  14  15
ATOM     15  C   UNL     1       2.311   7.907  18.618  0.00  0.00    +0.000 A 
ATOM     16  C   UNL     1       1.667   8.960  17.948  0.00  0.00    +0.000 A 
ATOM     17  C   UNL     1       0.794   9.808  18.631  0.00  0.00    +0.000 A 
ATOM     18  C   UNL     1       0.537   9.611  19.994  0.00  0.00    +0.000 A 
ATOM     19  C   UNL     1       1.157   8.542  20.663  0.00  0.00    +0.000 A 
ATOM     20  C   UNL     1       2.039   7.697  19.981  0.00  0.00    +0.000 A 
BRANCH  18  21
ATOM     21  C   UNL     1      -0.378  10.558  20.728  0.00  0.00    +0.000 C 
BRANCH  21  22
ATOM     22  N   UNL     1       0.127  11.927  20.671  0.00  0.00    +0.000 N 
ATOM     23  C   UNL     1      -0.437  12.976  20.050  0.00  0.00    +0.000 A 
ATOM     24  N   UNL     1       0.309  14.082  20.220  0.00  0.00    +0.000 NA
ATOM     25  C   UNL     1       1.345  13.648  20.970  0.00  0.00    +0.000 A 
ATOM     26  N   UNL     1       1.243  12.335  21.251  0.00  0.00    +0.000 NA
ENDBRANCH  21  22
ENDBRANCH  18  21
ENDBRANCH  14  15
ENDBRANCH   1  14
TORSDOF 6
ENDMDL
MODEL 6
REMARK VINA RESULT:      -6.9      1.035      1.614
REMARK  Name = 
REMARK  6 active torsions:
REMARK  status: ('A' for Active; 'I' for Inactive)
REMARK    1  A    between atoms: C_3  and  C_4
REMARK    2  A    between atoms: C_4  and  N_5
REMARK    3  A    between atoms: N_5  and  C_6
REMARK    4  A    between atoms: C_6  and  C_7
REMARK    5  A    between atoms: C_10  and  C_11
REMARK    6  A    between atoms: C_11  and  N_12
REMARK                            x       y       z     vdW  Elec       q    Type
REMARK                         _______ _______ _______ _____ _____    ______ ____
ROOT
ATOM      1  N   UNL     1       2.622   4.845  18.031  0.00  0.00    +0.000 NA
ATOM      2  H   UNL     1       2.032   4.937  18.887  0.00  0.00    +0.000 HD
ENDROOT
BRANCH   1   3
ATOM      3  C   UNL     1       3.646   3.825  18.285  0.00  0.00    +0.000 C 
BRANCH   3   6
ATOM      4  C   UNL     1       6.934   5.493  19.290  0.00  0.00    +0.000 A 
ATOM      5  C   UNL     1       5.649   4.944  19.343  0.00  0.00    +0.000 A 
ATOM      6  C   UNL     1       5.036   4.426  18.187  0.00  0.00    +0.000 A 
ATOM      7  C   UNL     1       5.753   4.466  16.967  0.00  0.00    +0.000 A 
ATOM      8  C   UNL     1       7.043   5.036  16.922  0.00  0.00    +0.000 A 
ATOM      9  C   UNL     1       7.631   5.539  18.081  0.00  0.00    +0.000 A 
ATOM     10  O   UNL     1       7.701   5.085  15.736  0.00  0.00    +0.000 OA
ATOM     11  C   UNL     1       7.028   4.890  14.539  0.00  0.00    +0.000 C 
ATOM     12  C   UNL     1       6.043   3.726  14.706  0.00  0.00    +0.000 C 
ATOM     13  O   UNL     1       5.238   3.962  15.812  0.00  0.00    +0.000 OA
ENDBRANCH   3   6
ENDBRANCH   1   3
BRANCH   1  14
ATOM     14  C   UNL     1       3.219   6.155  17.731  0.00  0.00    +0.000 C 
BRANCH  14  15
ATOM     15  C   UNL     1       2.470   7.236  18.475  0.00  0.00    +0.000 A 
ATOM     16  C   UNL     1       2.072   8.403  17.802  0.00  0.00    +0.000 A 
ATOM     17  C   UNL     1       1.423   9.432  18.486  0.00  0.00    +0.000 A 
ATOM     18  C   UNL     1       1.145   9.308  19.855  0.00  0.00    +0.000 A 
ATOM     19  C   UNL     1       1.516   8.131  20.527  0.00  0.00    +0.000 A 
ATOM     20  C   UNL     1       2.175   7.103  19.843  0.00  0.00    +0.000 A 
BRANCH  18  21
ATOM     21  C   UNL     1       0.478  10.442  20.589  0.00  0.00    +0.000 C 
BRANCH  21  22
ATOM     22  N   UNL     1      -0.278  11.290  19.671  0.00  0.00    +0.000 N 
ATOM     23  C   UNL     1       0.085  12.490  19.188  0.00  0.00    +0.000 A 
ATOM     24  N   UNL     1      -0.861  12.971  18.361  0.00  0.00    +0.000 NA
ATOM     25  C   UNL     1      -1.805  12.006  18.371  0.00  0.00    +0.000 A 
ATOM     26  N   UNL     1      -1.459  10.976  19.166  0.00  0.00    +0.000 NA
ENDBRANCH  21  22
ENDBRANCH  18  21
ENDBRANCH  14  15
ENDBRANCH   1  14
TORSDOF 6
ENDMDL
MODEL 7
REMARK VINA RESULT:      -6.9      1.790      2.370
REMARK  Name = 
REMARK  6 active torsions:
REMARK  status: ('A' for Active; 'I' for Inactive)
REMARK    1  A    between atoms: C_3  and  C_4
REMARK    2  A    between atoms: C_4  and  N_5
REMARK    3  A    between atoms: N_5  and  C_6
REMARK    4  A    between atoms: C_6  and  C_7
REMARK    5  A    between atoms: C_10  and  C_11
REMARK    6  A    between atoms: C_11  and  N_12
REMARK                            x       y       z     vdW  Elec       q    Type
REMARK                         _______ _______ _______ _____ _____    ______ ____
ROOT
ATOM      1  N   UNL     1       4.073   3.005  18.255  0.00  0.00    +0.000 NA
ATOM      2  H   UNL     1       4.285   1.985  18.197  0.00  0.00    +0.000 HD
ENDROOT
BRANCH   1   3
ATOM      3  C   UNL     1       4.956   3.603  19.263  0.00  0.00    +0.000 C 
BRANCH   3   6
ATOM      4  C   UNL     1       7.494   6.433  18.874  0.00  0.00    +0.000 A 
ATOM      5  C   UNL     1       6.602   5.512  19.432  0.00  0.00    +0.000 A 
ATOM      6  C   UNL     1       5.905   4.597  18.621  0.00  0.00    +0.000 A 
ATOM      7  C   UNL     1       6.133   4.625  17.223  0.00  0.00    +0.000 A 
ATOM      8  C   UNL     1       7.024   5.568  16.670  0.00  0.00    +0.000 A 
ATOM      9  C   UNL     1       7.706   6.461  17.494  0.00  0.00    +0.000 A 
ATOM     10  O   UNL     1       7.208   5.591  15.325  0.00  0.00    +0.000 OA
ATOM     11  C   UNL     1       6.323   4.946  14.474  0.00  0.00    +0.000 C 
ATOM     12  C   UNL     1       5.962   3.581  15.073  0.00  0.00    +0.000 C 
ATOM     13  O   UNL     1       5.517   3.756  16.376  0.00  0.00    +0.000 OA
ENDBRANCH   3   6
ENDBRANCH   1   3
BRANCH   1  14
ATOM     14  C   UNL     1       2.654   3.169  18.604  0.00  0.00    +0.000 C 
BRANCH  14  15
ATOM     15  C   UNL     1       2.384   4.612  18.961  0.00  0.00    +0.000 A 
ATOM     16  C   UNL     1       2.462   5.605  17.970  0.00  0.00    +0.000 A 
ATOM     17  C   UNL     1       2.263   6.948  18.293  0.00  0.00    +0.000 A 
ATOM     18  C   UNL     1       1.969   7.324  19.610  0.00  0.00    +0.000 A 
ATOM     19  C   UNL     1       1.862   6.333  20.601  0.00  0.00    +0.000 A 
ATOM     20  C   UNL     1       2.070   4.987  20.279  0.00  0.00    +0.000 A 
BRANCH  18  21
ATOM     21  C   UNL     1       1.795   8.782  19.952  0.00  0.00    +0.000 C 
BRANCH  21  22
ATOM     22  N   UNL     1       1.003   8.946  21.167  0.00  0.00    +0.000 N 
ATOM     23  C   UNL     1      -0.316   8.735  21.313  0.00  0.00    +0.000 A 
ATOM     24  N   UNL     1      -0.696   8.981  22.580  0.00  0.00    +0.000 NA
ATOM     25  C   UNL     1       0.453   9.348  23.186  0.00  0.00    +0.000 A 
ATOM     26  N   UNL     1       1.495   9.329  22.333  0.00  0.00    +0.000 NA
ENDBRANCH  21  22
ENDBRANCH  18  21
ENDBRANCH  14  15
ENDBRANCH   1  14
TORSDOF 6
ENDMDL
MODEL 8
REMARK VINA RESULT:      -6.9      2.044      2.786
REMARK  Name = 
REMARK  6 active torsions:
REMARK  status: ('A' for Active; 'I' for Inactive)
REMARK    1  A    between atoms: C_3  and  C_4
REMARK    2  A    between atoms: C_4  and  N_5
REMARK    3  A    between atoms: N_5  and  C_6
REMARK    4  A    between atoms: C_6  and  C_7
REMARK    5  A    between atoms: C_10  and  C_11
REMARK    6  A    between atoms: C_11  and  N_12
REMARK                            x       y       z     vdW  Elec       q    Type
REMARK                         _______ _______ _______ _____ _____    ______ ____
ROOT
ATOM      1  N   UNL     1       2.760   5.942  18.192  0.00  0.00    +0.000 NA
ATOM      2  H   UNL     1       1.881   5.795  17.650  0.00  0.00    +0.000 HD
ENDROOT
BRANCH   1   3
ATOM      3  C   UNL     1       3.471   4.661  18.273  0.00  0.00    +0.000 C 
BRANCH   3   6
ATOM      4  C   UNL     1       7.055   5.444  19.343  0.00  0.00    +0.000 A 
ATOM      5  C   UNL     1       5.671   5.249  19.369  0.00  0.00    +0.000 A 
ATOM      6  C   UNL     1       4.972   4.877  18.205  0.00  0.00    +0.000 A 
ATOM      7  C   UNL     1       5.704   4.697  17.006  0.00  0.00    +0.000 A 
ATOM      8  C   UNL     1       7.098   4.911  16.989  0.00  0.00    +0.000 A 
ATOM      9  C   UNL     1       7.769   5.275  18.155  0.00  0.00    +0.000 A 
ATOM     10  O   UNL     1       7.775   4.755  15.823  0.00  0.00    +0.000 OA
ATOM     11  C   UNL     1       7.103   4.709  14.611  0.00  0.00    +0.000 C 
ATOM     12  C   UNL     1       5.845   3.846  14.770  0.00  0.00    +0.000 C 
ATOM     13  O   UNL     1       5.103   4.313  15.847  0.00  0.00    +0.000 OA
ENDBRANCH   3   6
ENDBRANCH   1   3
BRANCH   1  14
ATOM     14  C   UNL     1       2.408   6.456  19.524  0.00  0.00    +0.000 C 
BRANCH  14  15
ATOM     15  C   UNL     1       1.886   7.869  19.401  0.00  0.00    +0.000 A 
ATOM     16  C   UNL     1       2.042   8.570  18.193  0.00  0.00    +0.000 A 
ATOM     17  C   UNL     1       1.610   9.892  18.078  0.00  0.00    +0.000 A 
ATOM     18  C   UNL     1       0.999  10.534  19.164  0.00  0.00    +0.000 A 
ATOM     19  C   UNL     1       0.815   9.829  20.365  0.00  0.00    +0.000 A 
ATOM     20  C   UNL     1       1.257   8.506  20.483  0.00  0.00    +0.000 A 
BRANCH  18  21
ATOM     21  C   UNL     1       0.572  11.974  19.037  0.00  0.00    +0.000 C 
BRANCH  21  22
ATOM     22  N   UNL     1       1.722  12.871  19.096  0.00  0.00    +0.000 N 
ATOM     23  C   UNL     1       2.297  13.384  20.197  0.00  0.00    +0.000 A 
ATOM     24  N   UNL     1       3.342  14.164  19.864  0.00  0.00    +0.000 NA
ATOM     25  C   UNL     1       3.366  14.095  18.516  0.00  0.00    +0.000 A 
ATOM     26  N   UNL     1       2.383  13.309  18.038  0.00  0.00    +0.000 NA
ENDBRANCH  21  22
ENDBRANCH  18  21
ENDBRANCH  14  15
ENDBRANCH   1  14
TORSDOF 6
ENDMDL
MODEL 9
REMARK VINA RESULT:      -6.8      1.382      1.856
REMARK  Name = 
REMARK  6 active torsions:
REMARK  status: ('A' for Active; 'I' for Inactive)
REMARK    1  A    between atoms: C_3  and  C_4
REMARK    2  A    between atoms: C_4  and  N_5
REMARK    3  A    between atoms: N_5  and  C_6
REMARK    4  A    between atoms: C_6  and  C_7
REMARK    5  A    between atoms: C_10  and  C_11
REMARK    6  A    between atoms: C_11  and  N_12
REMARK                            x       y       z     vdW  Elec       q    Type
REMARK                         _______ _______ _______ _____ _____    ______ ____
ROOT
ATOM      1  N   UNL     1       2.666   5.276  17.827  0.00  0.00    +0.000 NA
ATOM      2  H   UNL     1       1.826   5.367  18.439  0.00  0.00    +0.000 HD
ENDROOT
BRANCH   1   3
ATOM      3  C   UNL     1       3.545   4.250  18.401  0.00  0.00    +0.000 C 
BRANCH   3   6
ATOM      4  C   UNL     1       7.026   5.505  19.355  0.00  0.00    +0.000 A 
ATOM      5  C   UNL     1       5.681   5.127  19.426  0.00  0.00    +0.000 A 
ATOM      6  C   UNL     1       4.999   4.664  18.284  0.00  0.00    +0.000 A 
ATOM      7  C   UNL     1       5.709   4.583  17.062  0.00  0.00    +0.000 A 
ATOM      8  C   UNL     1       7.060   4.981  16.999  0.00  0.00    +0.000 A 
ATOM      9  C   UNL     1       7.715   5.431  18.144  0.00  0.00    +0.000 A 
ATOM     10  O   UNL     1       7.713   4.916  15.810  0.00  0.00    +0.000 OA
ATOM     11  C   UNL     1       7.013   4.780  14.621  0.00  0.00    +0.000 C 
ATOM     12  C   UNL     1       5.887   3.757  14.819  0.00  0.00    +0.000 C 
ATOM     13  O   UNL     1       5.126   4.121  15.921  0.00  0.00    +0.000 OA
ENDBRANCH   3   6
ENDBRANCH   1   3
BRANCH   1  14
ATOM     14  C   UNL     1       3.333   6.584  17.749  0.00  0.00    +0.000 C 
BRANCH  14  15
ATOM     15  C   UNL     1       2.487   7.627  18.442  0.00  0.00    +0.000 A 
ATOM     16  C   UNL     1       2.158   7.473  19.799  0.00  0.00    +0.000 A 
ATOM     17  C   UNL     1       1.337   8.401  20.441  0.00  0.00    +0.000 A 
ATOM     18  C   UNL     1       0.840   9.510  19.742  0.00  0.00    +0.000 A 
ATOM     19  C   UNL     1       1.188   9.684  18.392  0.00  0.00    +0.000 A 
ATOM     20  C   UNL     1       2.005   8.748  17.746  0.00  0.00    +0.000 A 
BRANCH  18  21
ATOM     21  C   UNL     1      -0.077  10.484  20.437  0.00  0.00    +0.000 C 
BRANCH  21  22
ATOM     22  N   UNL     1       0.025  11.815  19.846  0.00  0.00    +0.000 N 
ATOM     23  C   UNL     1       0.990  12.725  20.054  0.00  0.00    +0.000 A 
ATOM     24  N   UNL     1       0.756  13.835  19.331  0.00  0.00    +0.000 NA
ATOM     25  C   UNL     1      -0.393  13.549  18.681  0.00  0.00    +0.000 A 
ATOM     26  N   UNL     1      -0.846  12.319  18.988  0.00  0.00    +0.000 NA
ENDBRANCH  21  22
ENDBRANCH  18  21
ENDBRANCH  14  15
ENDBRANCH   1  14
TORSDOF 6
ENDMDL
