MODEL 1
REMARK VINA RESULT:      -7.7      0.000      0.000
REMARK  Name = 
REMARK  6 active torsions:
REMARK  status: ('A' for Active; 'I' for Inactive)
REMARK    1  A    between atoms: C_2  and  C_4
REMARK    2  A    between atoms: C_11  and  O_12
REMARK    3  A    between atoms: O_12  and  C_13
REMARK    4  A    between atoms: C_13  and  C_14
REMARK    5  A    between atoms: C_14  and  C_15
REMARK    6  A    between atoms: C_15  and  C_16
REMARK                            x       y       z     vdW  Elec       q    Type
REMARK                         _______ _______ _______ _____ _____    ______ ____
ROOT
ATOM      1  C   UNL     1       6.806   6.204  18.142  0.00  0.00    +0.000 A 
ATOM      2  C   UNL     1       5.976   6.005  17.060  0.00  0.00    +0.000 A 
ATOM      3  C   UNL     1       5.007   5.008  17.151  0.00  0.00    +0.000 A 
ATOM      4  C   UNL     1       4.864   4.244  18.308  0.00  0.00    +0.000 A 
ATOM      5  N   UNL     1       3.860   3.321  18.435  0.00  0.00    +0.000 N 
ATOM      6  C   UNL     1       3.208   2.630  17.342  0.00  0.00    +0.000 C 
ATOM      7  C   UNL     1       1.901   2.206  17.980  0.00  0.00    +0.000 C 
ATOM      8  C   UNL     1       2.284   1.823  19.415  0.00  0.00    +0.000 C 
ATOM      9  C   UNL     1       3.560   2.662  19.706  0.00  0.00    +0.000 C 
ATOM     10  N   UNL     1       5.706   4.488  19.341  0.00  0.00    +0.000 NA
ATOM     11  N   UNL     1       6.695   5.462  19.265  0.00  0.00    +0.000 NA
ENDROOT
BRANCH   1  13
ATOM     12  N   UNL     1       7.817   8.121  17.042  0.00  0.00    +0.000 N 
ATOM     13  C   UNL     1       7.856   7.259  18.104  0.00  0.00    +0.000 C 
ATOM     14  O   UNL     1       8.710   7.361  18.976  0.00  0.00    +0.000 OA
ATOM     15  H   UNL     1       8.515   8.850  16.979  0.00  0.00    +0.000 HD
ATOM     16  H   UNL     1       7.107   8.036  16.324  0.00  0.00    +0.000 HD
ENDBRANCH   1  13
BRANCH   8  17
ATOM     17  O   UNL     1       1.234   2.134  20.340  0.00  0.00    +0.000 OA
BRANCH  17  18
ATOM     18  C   UNL     1       1.561   3.198  21.236  0.00  0.00    +0.000 C 
BRANCH  18  19
ATOM     19  C   UNL     1       1.178   4.529  20.598  0.00  0.00    +0.000 C 
BRANCH  19  20
ATOM     20  C   UNL     1       2.258   5.585  20.841  0.00  0.00    +0.000 C 
BRANCH  20  21
ATOM     21  C   UNL     1       2.029   6.839  20.035  0.00  0.00    +0.000 A 
ATOM     22  C   UNL     1       1.421   7.958  20.621  0.00  0.00    +0.000 A 
ATOM     23  C   UNL     1       1.199   9.116  19.872  0.00  0.00    +0.000 A 
ATOM     24  C   UNL     1       1.576   9.164  18.532  0.00  0.00    +0.000 A 
ATOM     25  C   UNL     1       2.177   8.055  17.939  0.00  0.00    +0.000 A 
ATOM     26  C   UNL     1       2.401   6.897  18.686  0.00  0.00    +0.000 A 
ENDBRANCH  20  21
ENDBRANCH  19  20
ENDBRANCH  18  19
ENDBRANCH  17  18
ENDBRANCH   8  17
TORSDOF 6
ENDMDL
MODEL 2
REMARK VINA RESULT:      -7.7      1.387      1.745
REMARK  Name = 
REMARK  6 active torsions:
REMARK  status: ('A' for Active; 'I' for Inactive)
REMARK    1  A    between atoms: C_2  and  C_4
REMARK    2  A    between atoms: C_11  and  O_12
REMARK    3  A    between atoms: O_12  and  C_13
REMARK    4  A    between atoms: C_13  and  C_14
REMARK    5  A    between atoms: C_14  and  C_15
REMARK    6  A    between atoms: C_15  and  C_16
REMARK                            x       y       z     vdW  Elec       q    Type
REMARK                         _______ _______ _______ _____ _____    ______ ____
ROOT
ATOM      1  C   UNL     1       6.268   5.089  16.555  0.00  0.00    +0.000 A 
ATOM      2  C   UNL     1       5.106   4.825  15.863  0.00  0.00    +0.000 A 
ATOM      3  C   UNL     1       4.121   4.070  16.497  0.00  0.00    +0.000 A 
ATOM      4  C   UNL     1       4.294   3.610  17.801  0.00  0.00    +0.000 A 
ATOM      5  N   UNL     1       3.297   2.940  18.460  0.00  0.00    +0.000 N 
ATOM      6  C   UNL     1       2.245   2.167  17.833  0.00  0.00    +0.000 C 
ATOM      7  C   UNL     1       1.190   2.142  18.921  0.00  0.00    +0.000 C 
ATOM      8  C   UNL     1       1.990   2.007  20.223  0.00  0.00    +0.000 C 
ATOM      9  C   UNL     1       3.372   2.634  19.888  0.00  0.00    +0.000 C 
ATOM     10  N   UNL     1       5.455   3.905  18.433  0.00  0.00    +0.000 NA
ATOM     11  N   UNL     1       6.461   4.637  17.813  0.00  0.00    +0.000 NA
ENDROOT
BRANCH   1  13
ATOM     12  N   UNL     1       7.769   5.501  14.687  0.00  0.00    +0.000 N 
ATOM     13  C   UNL     1       7.352   5.896  15.929  0.00  0.00    +0.000 C 
ATOM     14  O   UNL     1       7.846   6.868  16.487  0.00  0.00    +0.000 OA
ATOM     15  H   UNL     1       8.505   6.021  14.231  0.00  0.00    +0.000 HD
ATOM     16  H   UNL     1       7.355   4.698  14.228  0.00  0.00    +0.000 HD
ENDBRANCH   1  13
BRANCH   8  17
ATOM     17  O   UNL     1       1.352   2.699  21.304  0.00  0.00    +0.000 OA
BRANCH  17  18
ATOM     18  C   UNL     1       2.005   3.917  21.665  0.00  0.00    +0.000 C 
BRANCH  18  19
ATOM     19  C   UNL     1       1.484   5.048  20.783  0.00  0.00    +0.000 C 
BRANCH  19  20
ATOM     20  C   UNL     1       2.634   5.909  20.258  0.00  0.00    +0.000 C 
BRANCH  20  21
ATOM     21  C   UNL     1       2.154   7.212  19.670  0.00  0.00    +0.000 A 
ATOM     22  C   UNL     1       2.416   7.524  18.328  0.00  0.00    +0.000 A 
ATOM     23  C   UNL     1       1.980   8.735  17.785  0.00  0.00    +0.000 A 
ATOM     24  C   UNL     1       1.286   9.646  18.577  0.00  0.00    +0.000 A 
ATOM     25  C   UNL     1       1.024   9.347  19.913  0.00  0.00    +0.000 A 
ATOM     26  C   UNL     1       1.457   8.137  20.458  0.00  0.00    +0.000 A 
ENDBRANCH  20  21
ENDBRANCH  19  20
ENDBRANCH  18  19
ENDBRANCH  17  18
ENDBRANCH   8  17
TORSDOF 6
ENDMDL
MODEL 3
REMARK VINA RESULT:      -7.5      3.453      7.885
REMARK  Name = 
REMARK  6 active torsions:
REMARK  status: ('A' for Active; 'I' for Inactive)
REMARK    1  A    between atoms: C_2  and  C_4
REMARK    2  A    between atoms: C_11  and  O_12
REMARK    3  A    between atoms: O_12  and  C_13
REMARK    4  A    between atoms: C_13  and  C_14
REMARK    5  A    between atoms: C_14  and  C_15
REMARK    6  A    between atoms: C_15  and  C_16
REMARK                            x       y       z     vdW  Elec       q    Type
REMARK                         _______ _______ _______ _____ _____    ______ ____
ROOT
ATOM      1  C   UNL     1       2.300   3.400  18.956  0.00  0.00    +0.000 A 
ATOM      2  C   UNL     1       3.099   3.669  20.047  0.00  0.00    +0.000 A 
ATOM      3  C   UNL     1       4.350   4.239  19.820  0.00  0.00    +0.000 A 
ATOM      4  C   UNL     1       4.778   4.547  18.530  0.00  0.00    +0.000 A 
ATOM      5  N   UNL     1       5.971   5.184  18.306  0.00  0.00    +0.000 N 
ATOM      6  C   UNL     1       7.126   5.138  19.178  0.00  0.00    +0.000 C 
ATOM      7  C   UNL     1       7.879   6.384  18.757  0.00  0.00    +0.000 C 
ATOM      8  C   UNL     1       7.684   6.452  17.238  0.00  0.00    +0.000 C 
ATOM      9  C   UNL     1       6.344   5.703  16.991  0.00  0.00    +0.000 C 
ATOM     10  N   UNL     1       3.948   4.263  17.498  0.00  0.00    +0.000 NA
ATOM     11  N   UNL     1       2.705   3.674  17.698  0.00  0.00    +0.000 NA
ENDROOT
BRANCH   1  13
ATOM     12  N   UNL     1       0.360   2.981  20.360  0.00  0.00    +0.000 N 
ATOM     13  C   UNL     1       0.951   2.797  19.140  0.00  0.00    +0.000 C 
ATOM     14  O   UNL     1       0.389   2.172  18.249  0.00  0.00    +0.000 OA
ATOM     15  H   UNL     1      -0.555   2.584  20.524  0.00  0.00    +0.000 HD
ATOM     16  H   UNL     1       0.826   3.502  21.094  0.00  0.00    +0.000 HD
ENDBRANCH   1  13
BRANCH   8  17
ATOM     17  O   UNL     1       7.616   7.808  16.777  0.00  0.00    +0.000 OA
BRANCH  17  18
ATOM     18  C   UNL     1       7.328   8.748  17.814  0.00  0.00    +0.000 C 
BRANCH  18  19
ATOM     19  C   UNL     1       8.328   9.898  17.743  0.00  0.00    +0.000 C 
BRANCH  19  20
ATOM     20  C   UNL     1       9.130  10.009  19.040  0.00  0.00    +0.000 C 
BRANCH  20  21
ATOM     21  C   UNL     1      10.227  11.040  18.952  0.00  0.00    +0.000 A 
ATOM     22  C   UNL     1      10.617  11.556  17.708  0.00  0.00    +0.000 A 
ATOM     23  C   UNL     1      11.640  12.504  17.624  0.00  0.00    +0.000 A 
ATOM     24  C   UNL     1      12.285  12.939  18.779  0.00  0.00    +0.000 A 
ATOM     25  C   UNL     1      11.907  12.429  20.020  0.00  0.00    +0.000 A 
ATOM     26  C   UNL     1      10.885  11.483  20.106  0.00  0.00    +0.000 A 
ENDBRANCH  20  21
ENDBRANCH  19  20
ENDBRANCH  18  19
ENDBRANCH  17  18
ENDBRANCH   8  17
TORSDOF 6
ENDMDL
MODEL 4
REMARK VINA RESULT:      -7.5      3.813      7.933
REMARK  Name = 
REMARK  6 active torsions:
REMARK  status: ('A' for Active; 'I' for Inactive)
REMARK    1  A    between atoms: C_2  and  C_4
REMARK    2  A    between atoms: C_11  and  O_12
REMARK    3  A    between atoms: O_12  and  C_13
REMARK    4  A    between atoms: C_13  and  C_14
REMARK    5  A    between atoms: C_14  and  C_15
REMARK    6  A    between atoms: C_15  and  C_16
REMARK                            x       y       z     vdW  Elec       q    Type
REMARK                         _______ _______ _______ _____ _____    ______ ____
ROOT
ATOM      1  C   UNL     1       2.307   3.469  19.334  0.00  0.00    +0.000 A 
ATOM      2  C   UNL     1       3.492   3.186  19.979  0.00  0.00    +0.000 A 
ATOM      3  C   UNL     1       4.655   3.794  19.511  0.00  0.00    +0.000 A 
ATOM      4  C   UNL     1       4.624   4.677  18.434  0.00  0.00    +0.000 A 
ATOM      5  N   UNL     1       5.750   5.342  18.023  0.00  0.00    +0.000 N 
ATOM      6  C   UNL     1       7.112   4.885  18.206  0.00  0.00    +0.000 C 
ATOM      7  C   UNL     1       7.890   6.181  18.087  0.00  0.00    +0.000 C 
ATOM      8  C   UNL     1       7.160   6.963  16.989  0.00  0.00    +0.000 C 
ATOM      9  C   UNL     1       5.702   6.424  17.040  0.00  0.00    +0.000 C 
ATOM     10  N   UNL     1       3.430   4.920  17.843  0.00  0.00    +0.000 NA
ATOM     11  N   UNL     1       2.260   4.308  18.278  0.00  0.00    +0.000 NA
ENDROOT
BRANCH   1  13
ATOM     12  N   UNL     1       0.816   2.832  21.146  0.00  0.00    +0.000 N 
ATOM     13  C   UNL     1       1.032   2.853  19.795  0.00  0.00    +0.000 C 
ATOM     14  O   UNL     1       0.210   2.393  19.012  0.00  0.00    +0.000 OA
ATOM     15  H   UNL     1      -0.037   2.420  21.498  0.00  0.00    +0.000 HD
ATOM     16  H   UNL     1       1.497   3.217  21.791  0.00  0.00    +0.000 HD
ENDBRANCH   1  13
BRANCH   8  17
ATOM     17  O   UNL     1       7.202   8.375  17.234  0.00  0.00    +0.000 OA
BRANCH  17  18
ATOM     18  C   UNL     1       8.287   8.775  18.073  0.00  0.00    +0.000 C 
BRANCH  18  19
ATOM     19  C   UNL     1       8.336  10.299  18.140  0.00  0.00    +0.000 C 
BRANCH  19  20
ATOM     20  C   UNL     1       9.554  10.774  18.934  0.00  0.00    +0.000 C 
BRANCH  20  21
ATOM     21  C   UNL     1      10.153  12.037  18.368  0.00  0.00    +0.000 A 
ATOM     22  C   UNL     1       9.513  13.270  18.553  0.00  0.00    +0.000 A 
ATOM     23  C   UNL     1      10.062  14.439  18.021  0.00  0.00    +0.000 A 
ATOM     24  C   UNL     1      11.249  14.385  17.294  0.00  0.00    +0.000 A 
ATOM     25  C   UNL     1      11.891  13.163  17.102  0.00  0.00    +0.000 A 
ATOM     26  C   UNL     1      11.345  11.994  17.634  0.00  0.00    +0.000 A 
ENDBRANCH  20  21
ENDBRANCH  19  20
ENDBRANCH  18  19
ENDBRANCH  17  18
ENDBRANCH   8  17
TORSDOF 6
ENDMDL
MODEL 5
REMARK VINA RESULT:      -7.5      1.460      1.521
REMARK  Name = 
REMARK  6 active torsions:
REMARK  status: ('A' for Active; 'I' for Inactive)
REMARK    1  A    between atoms: C_2  and  C_4
REMARK    2  A    between atoms: C_11  and  O_12
REMARK    3  A    between atoms: O_12  and  C_13
REMARK    4  A    between atoms: C_13  and  C_14
REMARK    5  A    between atoms: C_14  and  C_15
REMARK    6  A    between atoms: C_15  and  C_16
REMARK                            x       y       z     vdW  Elec       q    Type
REMARK                         _______ _______ _______ _____ _____    ______ ____
ROOT
ATOM      1  C   UNL     1       6.251   5.018  16.532  0.00  0.00    +0.000 A 
ATOM      2  C   UNL     1       5.120   4.693  15.814  0.00  0.00    +0.000 A 
ATOM      3  C   UNL     1       4.128   3.950  16.451  0.00  0.00    +0.000 A 
ATOM      4  C   UNL     1       4.263   3.560  17.782  0.00  0.00    +0.000 A 
ATOM      5  N   UNL     1       3.256   2.902  18.439  0.00  0.00    +0.000 N 
ATOM      6  C   UNL     1       2.243   2.076  17.815  0.00  0.00    +0.000 C 
ATOM      7  C   UNL     1       1.151   2.083  18.866  0.00  0.00    +0.000 C 
ATOM      8  C   UNL     1       1.906   2.031  20.200  0.00  0.00    +0.000 C 
ATOM      9  C   UNL     1       3.287   2.670  19.882  0.00  0.00    +0.000 C 
ATOM     10  N   UNL     1       5.395   3.911  18.438  0.00  0.00    +0.000 NA
ATOM     11  N   UNL     1       6.407   4.633  17.816  0.00  0.00    +0.000 NA
ENDROOT
BRANCH   1  13
ATOM     12  N   UNL     1       7.774   6.911  16.599  0.00  0.00    +0.000 N 
ATOM     13  C   UNL     1       7.340   5.815  15.904  0.00  0.00    +0.000 C 
ATOM     14  O   UNL     1       7.833   5.510  14.825  0.00  0.00    +0.000 OA
ATOM     15  H   UNL     1       8.510   7.480  16.205  0.00  0.00    +0.000 HD
ATOM     16  H   UNL     1       7.366   7.159  17.494  0.00  0.00    +0.000 HD
ENDBRANCH   1  13
BRANCH   8  17
ATOM     17  O   UNL     1       1.216   2.761  21.222  0.00  0.00    +0.000 OA
BRANCH  17  18
ATOM     18  C   UNL     1       1.872   3.974  21.596  0.00  0.00    +0.000 C 
BRANCH  18  19
ATOM     19  C   UNL     1       1.434   5.094  20.657  0.00  0.00    +0.000 C 
BRANCH  19  20
ATOM     20  C   UNL     1       2.560   6.109  20.451  0.00  0.00    +0.000 C 
BRANCH  20  21
ATOM     21  C   UNL     1       2.090   7.353  19.739  0.00  0.00    +0.000 A 
ATOM     22  C   UNL     1       1.413   8.360  20.442  0.00  0.00    +0.000 A 
ATOM     23  C   UNL     1       0.969   9.507  19.780  0.00  0.00    +0.000 A 
ATOM     24  C   UNL     1       1.190   9.656  18.414  0.00  0.00    +0.000 A 
ATOM     25  C   UNL     1       1.859   8.659  17.706  0.00  0.00    +0.000 A 
ATOM     26  C   UNL     1       2.305   7.512  18.364  0.00  0.00    +0.000 A 
ENDBRANCH  20  21
ENDBRANCH  19  20
ENDBRANCH  18  19
ENDBRANCH  17  18
ENDBRANCH   8  17
TORSDOF 6
ENDMDL
MODEL 6
REMARK VINA RESULT:      -7.4      0.640      1.176
REMARK  Name = 
REMARK  6 active torsions:
REMARK  status: ('A' for Active; 'I' for Inactive)
REMARK    1  A    between atoms: C_2  and  C_4
REMARK    2  A    between atoms: C_11  and  O_12
REMARK    3  A    between atoms: O_12  and  C_13
REMARK    4  A    between atoms: C_13  and  C_14
REMARK    5  A    between atoms: C_14  and  C_15
REMARK    6  A    between atoms: C_15  and  C_16
REMARK                            x       y       z     vdW  Elec       q    Type
REMARK                         _______ _______ _______ _____ _____    ______ ____
ROOT
ATOM      1  C   UNL     1       7.068   6.538  18.075  0.00  0.00    +0.000 A 
ATOM      2  C   UNL     1       6.328   6.277  16.943  0.00  0.00    +0.000 A 
ATOM      3  C   UNL     1       5.443   5.201  16.971  0.00  0.00    +0.000 A 
ATOM      4  C   UNL     1       5.293   4.420  18.115  0.00  0.00    +0.000 A 
ATOM      5  N   UNL     1       4.365   3.414  18.176  0.00  0.00    +0.000 N 
ATOM      6  C   UNL     1       3.845   2.678  17.043  0.00  0.00    +0.000 C 
ATOM      7  C   UNL     1       2.540   2.140  17.597  0.00  0.00    +0.000 C 
ATOM      8  C   UNL     1       2.864   1.781  19.052  0.00  0.00    +0.000 C 
ATOM      9  C   UNL     1       4.043   2.723  19.425  0.00  0.00    +0.000 C 
ATOM     10  N   UNL     1       6.045   4.727  19.199  0.00  0.00    +0.000 NA
ATOM     11  N   UNL     1       6.950   5.782  19.187  0.00  0.00    +0.000 NA
ENDROOT
BRANCH   1  13
ATOM     12  N   UNL     1       7.962   8.557  17.058  0.00  0.00    +0.000 N 
ATOM     13  C   UNL     1       8.025   7.678  18.105  0.00  0.00    +0.000 C 
ATOM     14  O   UNL     1       8.826   7.834  19.018  0.00  0.00    +0.000 OA
ATOM     15  H   UNL     1       8.597   9.343  17.041  0.00  0.00    +0.000 HD
ATOM     16  H   UNL     1       7.295   8.427  16.306  0.00  0.00    +0.000 HD
ENDBRANCH   1  13
BRANCH   8  17
ATOM     17  O   UNL     1       1.735   1.996  19.910  0.00  0.00    +0.000 OA
BRANCH  17  18
ATOM     18  C   UNL     1       0.973   3.155  19.569  0.00  0.00    +0.000 C 
BRANCH  18  19
ATOM     19  C   UNL     1       0.979   4.126  20.746  0.00  0.00    +0.000 C 
BRANCH  19  20
ATOM     20  C   UNL     1       2.257   4.966  20.758  0.00  0.00    +0.000 C 
BRANCH  20  21
ATOM     21  C   UNL     1       2.083   6.287  20.050  0.00  0.00    +0.000 A 
ATOM     22  C   UNL     1       2.484   6.434  18.715  0.00  0.00    +0.000 A 
ATOM     23  C   UNL     1       2.332   7.660  18.062  0.00  0.00    +0.000 A 
ATOM     24  C   UNL     1       1.785   8.748  18.737  0.00  0.00    +0.000 A 
ATOM     25  C   UNL     1       1.386   8.612  20.066  0.00  0.00    +0.000 A 
ATOM     26  C   UNL     1       1.536   7.388  20.720  0.00  0.00    +0.000 A 
ENDBRANCH  20  21
ENDBRANCH  19  20
ENDBRANCH  18  19
ENDBRANCH  17  18
ENDBRANCH   8  17
TORSDOF 6
ENDMDL
MODEL 7
REMARK VINA RESULT:      -7.4      3.253      7.404
REMARK  Name = 
REMARK  6 active torsions:
REMARK  status: ('A' for Active; 'I' for Inactive)
REMARK    1  A    between atoms: C_2  and  C_4
REMARK    2  A    between atoms: C_11  and  O_12
REMARK    3  A    between atoms: O_12  and  C_13
REMARK    4  A    between atoms: C_13  and  C_14
REMARK    5  A    between atoms: C_14  and  C_15
REMARK    6  A    between atoms: C_15  and  C_16
REMARK                            x       y       z     vdW  Elec       q    Type
REMARK                         _______ _______ _______ _____ _____    ______ ____
ROOT
ATOM      1  C   UNL     1       2.422   3.410  19.524  0.00  0.00    +0.000 A 
ATOM      2  C   UNL     1       3.092   2.553  18.678  0.00  0.00    +0.000 A 
ATOM      3  C   UNL     1       3.987   3.102  17.761  0.00  0.00    +0.000 A 
ATOM      4  C   UNL     1       4.214   4.476  17.710  0.00  0.00    +0.000 A 
ATOM      5  N   UNL     1       5.153   5.013  16.869  0.00  0.00    +0.000 N 
ATOM      6  C   UNL     1       5.608   4.423  15.628  0.00  0.00    +0.000 C 
ATOM      7  C   UNL     1       6.949   5.103  15.436  0.00  0.00    +0.000 C 
ATOM      8  C   UNL     1       6.720   6.540  15.920  0.00  0.00    +0.000 C 
ATOM      9  C   UNL     1       5.558   6.416  16.946  0.00  0.00    +0.000 C 
ATOM     10  N   UNL     1       3.529   5.268  18.569  0.00  0.00    +0.000 NA
ATOM     11  N   UNL     1       2.616   4.745  19.477  0.00  0.00    +0.000 NA
ENDROOT
BRANCH   1  13
ATOM     12  N   UNL     1       0.211   2.556  20.067  0.00  0.00    +0.000 N 
ATOM     13  C   UNL     1       1.459   2.879  20.528  0.00  0.00    +0.000 C 
ATOM     14  O   UNL     1       1.761   2.729  21.705  0.00  0.00    +0.000 OA
ATOM     15  H   UNL     1      -0.471   2.195  20.719  0.00  0.00    +0.000 HD
ATOM     16  H   UNL     1      -0.034   2.678  19.091  0.00  0.00    +0.000 HD
ENDBRANCH   1  13
BRANCH   8  17
ATOM     17  O   UNL     1       7.898   7.082  16.530  0.00  0.00    +0.000 OA
BRANCH  17  18
ATOM     18  C   UNL     1       7.654   7.687  17.802  0.00  0.00    +0.000 C 
BRANCH  18  19
ATOM     19  C   UNL     1       8.235   9.098  17.807  0.00  0.00    +0.000 C 
BRANCH  19  20
ATOM     20  C   UNL     1       8.970   9.383  19.118  0.00  0.00    +0.000 C 
BRANCH  20  21
ATOM     21  C   UNL     1       9.700  10.702  19.093  0.00  0.00    +0.000 A 
ATOM     22  C   UNL     1      10.105  11.266  17.874  0.00  0.00    +0.000 A 
ATOM     23  C   UNL     1      10.791  12.483  17.851  0.00  0.00    +0.000 A 
ATOM     24  C   UNL     1      11.082  13.143  19.042  0.00  0.00    +0.000 A 
ATOM     25  C   UNL     1      10.686  12.590  20.258  0.00  0.00    +0.000 A 
ATOM     26  C   UNL     1      10.001  11.374  20.284  0.00  0.00    +0.000 A 
ENDBRANCH  20  21
ENDBRANCH  19  20
ENDBRANCH  18  19
ENDBRANCH  17  18
ENDBRANCH   8  17
TORSDOF 6
ENDMDL
MODEL 8
REMARK VINA RESULT:      -7.4      3.310      7.491
REMARK  Name = 
REMARK  6 active torsions:
REMARK  status: ('A' for Active; 'I' for Inactive)
REMARK    1  A    between atoms: C_2  and  C_4
REMARK    2  A    between atoms: C_11  and  O_12
REMARK    3  A    between atoms: O_12  and  C_13
REMARK    4  A    between atoms: C_13  and  C_14
REMARK    5  A    between atoms: C_14  and  C_15
REMARK    6  A    between atoms: C_15  and  C_16
REMARK                            x       y       z     vdW  Elec       q    Type
REMARK                         _______ _______ _______ _____ _____    ______ ____
ROOT
ATOM      1  C   UNL     1       2.373   3.491  19.457  0.00  0.00    +0.000 A 
ATOM      2  C   UNL     1       3.045   2.646  18.601  0.00  0.00    +0.000 A 
ATOM      3  C   UNL     1       3.968   3.203  17.719  0.00  0.00    +0.000 A 
ATOM      4  C   UNL     1       4.222   4.573  17.713  0.00  0.00    +0.000 A 
ATOM      5  N   UNL     1       5.189   5.117  16.907  0.00  0.00    +0.000 N 
ATOM      6  C   UNL     1       5.659   4.554  15.658  0.00  0.00    +0.000 C 
ATOM      7  C   UNL     1       7.016   5.213  15.515  0.00  0.00    +0.000 C 
ATOM      8  C   UNL     1       6.803   6.640  16.035  0.00  0.00    +0.000 C 
ATOM      9  C   UNL     1       5.618   6.509  17.032  0.00  0.00    +0.000 C 
ATOM     10  N   UNL     1       3.534   5.354  18.580  0.00  0.00    +0.000 NA
ATOM     11  N   UNL     1       2.592   4.823  19.453  0.00  0.00    +0.000 NA
ENDROOT
BRANCH   1  13
ATOM     12  N   UNL     1       0.149   2.625  19.921  0.00  0.00    +0.000 N 
ATOM     13  C   UNL     1       1.379   2.950  20.425  0.00  0.00    +0.000 C 
ATOM     14  O   UNL     1       1.642   2.794  21.611  0.00  0.00    +0.000 OA
ATOM     15  H   UNL     1      -0.554   2.257  20.548  0.00  0.00    +0.000 HD
ATOM     16  H   UNL     1      -0.064   2.751  18.939  0.00  0.00    +0.000 HD
ENDBRANCH   1  13
BRANCH   8  17
ATOM     17  O   UNL     1       7.978   7.142  16.685  0.00  0.00    +0.000 OA
BRANCH  17  18
ATOM     18  C   UNL     1       7.700   7.855  17.892  0.00  0.00    +0.000 C 
BRANCH  18  19
ATOM     19  C   UNL     1       8.321   9.246  17.809  0.00  0.00    +0.000 C 
BRANCH  19  20
ATOM     20  C   UNL     1       8.865   9.686  19.169  0.00  0.00    +0.000 C 
BRANCH  20  21
ATOM     21  C   UNL     1       9.887  10.789  19.051  0.00  0.00    +0.000 A 
ATOM     22  C   UNL     1      10.391  11.415  20.200  0.00  0.00    +0.000 A 
ATOM     23  C   UNL     1      11.330  12.443  20.090  0.00  0.00    +0.000 A 
ATOM     24  C   UNL     1      11.768  12.859  18.835  0.00  0.00    +0.000 A 
ATOM     25  C   UNL     1      11.270  12.245  17.687  0.00  0.00    +0.000 A 
ATOM     26  C   UNL     1      10.332  11.216  17.794  0.00  0.00    +0.000 A 
ENDBRANCH  20  21
ENDBRANCH  19  20
ENDBRANCH  18  19
ENDBRANCH  17  18
ENDBRANCH   8  17
TORSDOF 6
ENDMDL
MODEL 9
REMARK VINA RESULT:      -7.3      3.161      4.179
REMARK  Name = 
REMARK  6 active torsions:
REMARK  status: ('A' for Active; 'I' for Inactive)
REMARK    1  A    between atoms: C_2  and  C_4
REMARK    2  A    between atoms: C_11  and  O_12
REMARK    3  A    between atoms: O_12  and  C_13
REMARK    4  A    between atoms: C_13  and  C_14
REMARK    5  A    between atoms: C_14  and  C_15
REMARK    6  A    between atoms: C_15  and  C_16
REMARK                            x       y       z     vdW  Elec       q    Type
REMARK                         _______ _______ _______ _____ _____    ______ ____
ROOT
ATOM      1  C   UNL     1       6.943   5.041  14.421  0.00  0.00    +0.000 A 
ATOM      2  C   UNL     1       5.917   4.122  14.372  0.00  0.00    +0.000 A 
ATOM      3  C   UNL     1       5.085   4.007  15.484  0.00  0.00    +0.000 A 
ATOM      4  C   UNL     1       5.270   4.808  16.608  0.00  0.00    +0.000 A 
ATOM      5  N   UNL     1       4.405   4.758  17.671  0.00  0.00    +0.000 N 
ATOM      6  C   UNL     1       3.595   3.618  18.044  0.00  0.00    +0.000 C 
ATOM      7  C   UNL     1       2.503   4.272  18.867  0.00  0.00    +0.000 C 
ATOM      8  C   UNL     1       3.226   5.376  19.649  0.00  0.00    +0.000 C 
ATOM      9  C   UNL     1       4.454   5.729  18.763  0.00  0.00    +0.000 C 
ATOM     10  N   UNL     1       6.293   5.696  16.598  0.00  0.00    +0.000 NA
ATOM     11  N   UNL     1       7.149   5.813  15.509  0.00  0.00    +0.000 NA
ENDROOT
BRANCH   1  13
ATOM     12  N   UNL     1       7.539   4.524  12.121  0.00  0.00    +0.000 N 
ATOM     13  C   UNL     1       7.860   5.212  13.260  0.00  0.00    +0.000 C 
ATOM     14  O   UNL     1       8.848   5.933  13.310  0.00  0.00    +0.000 OA
ATOM     15  H   UNL     1       8.138   4.612  11.313  0.00  0.00    +0.000 HD
ATOM     16  H   UNL     1       6.718   3.931  12.083  0.00  0.00    +0.000 HD
ENDBRANCH   1  13
BRANCH   8  17
ATOM     17  O   UNL     1       2.382   6.517  19.848  0.00  0.00    +0.000 OA
BRANCH  17  18
ATOM     18  C   UNL     1       2.451   7.469  18.785  0.00  0.00    +0.000 C 
BRANCH  18  19
ATOM     19  C   UNL     1       1.660   8.715  19.173  0.00  0.00    +0.000 C 
BRANCH  19  20
ATOM     20  C   UNL     1       1.073   9.399  17.938  0.00  0.00    +0.000 C 
BRANCH  20  21
ATOM     21  C   UNL     1      -0.197  10.152  18.247  0.00  0.00    +0.000 A 
ATOM     22  C   UNL     1      -1.353   9.939  17.482  0.00  0.00    +0.000 A 
ATOM     23  C   UNL     1      -2.526  10.644  17.761  0.00  0.00    +0.000 A 
ATOM     24  C   UNL     1      -2.553  11.571  18.801  0.00  0.00    +0.000 A 
ATOM     25  C   UNL     1      -1.408  11.793  19.564  0.00  0.00    +0.000 A 
ATOM     26  C   UNL     1      -0.235  11.088  19.288  0.00  0.00    +0.000 A 
ENDBRANCH  20  21
ENDBRANCH  19  20
ENDBRANCH  18  19
ENDBRANCH  17  18
ENDBRANCH   8  17
TORSDOF 6
ENDMDL
