MODEL 1
REMARK VINA RESULT:      -8.0      0.000      0.000
REMARK  Name = 
REMARK  7 active torsions:
REMARK  status: ('A' for Active; 'I' for Inactive)
REMARK    1  A    between atoms: C_1  and  O_2
REMARK    2  A    between atoms: O_2  and  C_3
REMARK    3  A    between atoms: C_3  and  C_5
REMARK    4  A    between atoms: N_7  and  C_8
REMARK    5  A    between atoms: C_8  and  C_9
REMARK    6  A    between atoms: C_9  and  C_10
REMARK    7  A    between atoms: C_21  and  O_22
REMARK                            x       y       z     vdW  Elec       q    Type
REMARK                         _______ _______ _______ _____ _____    ______ ____
ROOT
ATOM      1  C   UNL     1       6.950   5.914  17.528  0.00  0.00    +0.000 A 
ATOM      2  C   UNL     1       6.130   5.240  18.365  0.00  0.00    +0.000 A 
ATOM      3  N   UNL     1       5.294   4.167  18.004  0.00  0.00    +0.000 N 
ATOM      4  C   UNL     1       5.285   3.777  16.664  0.00  0.00    +0.000 A 
ATOM      5  C   UNL     1       6.074   4.340  15.752  0.00  0.00    +0.000 A 
ATOM      6  C   UNL     1       6.368   4.184  14.356  0.00  0.00    +0.000 A 
ATOM      7  N   UNL     1       7.276   5.023  13.945  0.00  0.00    +0.000 NA
ATOM      8  N   UNL     1       7.664   5.836  15.098  0.00  0.00    +0.000 NA
ATOM      9  C   UNL     1       6.964   5.442  16.128  0.00  0.00    +0.000 A 
ENDROOT
BRANCH   1  10
ATOM     10  C   UNL     1       7.742   7.052  18.037  0.00  0.00    +0.000 C 
ATOM     11  O   UNL     1       8.483   6.990  19.008  0.00  0.00    +0.000 OA
BRANCH  10  13
ATOM     12  C   UNL     1       8.084   9.369  17.798  0.00  0.00    +0.000 C 
ATOM     13  O   UNL     1       7.498   8.164  17.306  0.00  0.00    +0.000 OA
ENDBRANCH  10  13
ENDBRANCH   1  10
BRANCH   6  14
ATOM     14  O   UNL     1       5.777   3.266  13.599  0.00  0.00    +0.000 OA
ATOM     15  H   UNL     1       5.289   2.604  14.111  0.00  0.00    +0.000 HD
ENDBRANCH   6  14
BRANCH   3  16
ATOM     16  C   UNL     1       4.403   3.504  18.995  0.00  0.00    +0.000 C 
BRANCH  16  17
ATOM     17  C   UNL     1       2.931   3.834  18.725  0.00  0.00    +0.000 C 
BRANCH  17  18
ATOM     18  C   UNL     1       2.583   5.259  18.976  0.00  0.00    +0.000 A 
ATOM     19  C   UNL     1       2.184   5.845  20.159  0.00  0.00    +0.000 A 
ATOM     20  N   UNL     1       1.896   7.149  19.853  0.00  0.00    +0.000 N 
ATOM     21  C   UNL     1       1.436   8.170  20.680  0.00  0.00    +0.000 A 
ATOM     22  C   UNL     1       1.210   9.386  20.154  0.00  0.00    +0.000 A 
ATOM     23  C   UNL     1       1.450   9.592  18.732  0.00  0.00    +0.000 A 
ATOM     24  C   UNL     1       1.894   8.595  17.940  0.00  0.00    +0.000 A 
ATOM     25  C   UNL     1       2.139   7.305  18.493  0.00  0.00    +0.000 A 
ATOM     26  N   UNL     1       2.557   6.178  17.950  0.00  0.00    +0.000 NA
ENDBRANCH  17  18
ENDBRANCH  16  17
ENDBRANCH   3  16
TORSDOF 6
ENDMDL
MODEL 2
REMARK VINA RESULT:      -7.8      0.878      1.550
REMARK  Name = 
REMARK  7 active torsions:
REMARK  status: ('A' for Active; 'I' for Inactive)
REMARK    1  A    between atoms: C_1  and  O_2
REMARK    2  A    between atoms: O_2  and  C_3
REMARK    3  A    between atoms: C_3  and  C_5
REMARK    4  A    between atoms: N_7  and  C_8
REMARK    5  A    between atoms: C_8  and  C_9
REMARK    6  A    between atoms: C_9  and  C_10
REMARK    7  A    between atoms: C_21  and  O_22
REMARK                            x       y       z     vdW  Elec       q    Type
REMARK                         _______ _______ _______ _____ _____    ______ ____
ROOT
ATOM      1  C   UNL     1       6.641   6.008  17.323  0.00  0.00    +0.000 A 
ATOM      2  C   UNL     1       5.549   5.626  18.022  0.00  0.00    +0.000 A 
ATOM      3  N   UNL     1       4.508   4.815  17.534  0.00  0.00    +0.000 N 
ATOM      4  C   UNL     1       4.588   4.387  16.208  0.00  0.00    +0.000 A 
ATOM      5  C   UNL     1       5.631   4.669  15.430  0.00  0.00    +0.000 A 
ATOM      6  C   UNL     1       6.072   4.378  14.096  0.00  0.00    +0.000 A 
ATOM      7  N   UNL     1       7.231   4.912  13.832  0.00  0.00    +0.000 NA
ATOM      8  N   UNL     1       7.657   5.632  15.033  0.00  0.00    +0.000 NA
ATOM      9  C   UNL     1       6.729   5.492  15.941  0.00  0.00    +0.000 A 
ENDROOT
BRANCH   1  10
ATOM     10  C   UNL     1       7.638   6.899  17.950  0.00  0.00    +0.000 C 
ATOM     11  O   UNL     1       8.271   6.615  18.957  0.00  0.00    +0.000 OA
BRANCH  10  13
ATOM     12  C   UNL     1       8.244   9.172  18.017  0.00  0.00    +0.000 C 
ATOM     13  O   UNL     1       7.715   8.072  17.279  0.00  0.00    +0.000 OA
ENDBRANCH  10  13
ENDBRANCH   1  10
BRANCH   6  14
ATOM     14  O   UNL     1       5.365   3.631  13.254  0.00  0.00    +0.000 OA
ATOM     15  H   UNL     1       4.512   4.025  13.017  0.00  0.00    +0.000 HD
ENDBRANCH   6  14
BRANCH   3  16
ATOM     16  C   UNL     1       3.329   4.469  18.374  0.00  0.00    +0.000 C 
BRANCH  16  17
ATOM     17  C   UNL     1       3.301   5.302  19.660  0.00  0.00    +0.000 C 
BRANCH  17  18
ATOM     18  C   UNL     1       2.567   6.589  19.521  0.00  0.00    +0.000 A 
ATOM     19  C   UNL     1       2.542   7.447  18.441  0.00  0.00    +0.000 A 
ATOM     20  N   UNL     1       1.800   8.529  18.837  0.00  0.00    +0.000 N 
ATOM     21  C   UNL     1       1.481   9.687  18.134  0.00  0.00    +0.000 A 
ATOM     22  C   UNL     1       0.738  10.633  18.734  0.00  0.00    +0.000 A 
ATOM     23  C   UNL     1       0.297  10.414  20.105  0.00  0.00    +0.000 A 
ATOM     24  C   UNL     1       0.614   9.289  20.778  0.00  0.00    +0.000 A 
ATOM     25  C   UNL     1       1.398   8.281  20.145  0.00  0.00    +0.000 A 
ATOM     26  N   UNL     1       1.847   7.116  20.571  0.00  0.00    +0.000 NA
ENDBRANCH  17  18
ENDBRANCH  16  17
ENDBRANCH   3  16
TORSDOF 6
ENDMDL
MODEL 3
REMARK VINA RESULT:      -7.7      2.191      4.642
REMARK  Name = 
REMARK  7 active torsions:
REMARK  status: ('A' for Active; 'I' for Inactive)
REMARK    1  A    between atoms: C_1  and  O_2
REMARK    2  A    between atoms: O_2  and  C_3
REMARK    3  A    between atoms: C_3  and  C_5
REMARK    4  A    between atoms: N_7  and  C_8
REMARK    5  A    between atoms: C_8  and  C_9
REMARK    6  A    between atoms: C_9  and  C_10
REMARK    7  A    between atoms: C_21  and  O_22
REMARK                            x       y       z     vdW  Elec       q    Type
REMARK                         _______ _______ _______ _____ _____    ______ ____
ROOT
ATOM      1  C   UNL     1       6.325   5.339  15.508  0.00  0.00    +0.000 A 
ATOM      2  C   UNL     1       5.264   6.168  15.624  0.00  0.00    +0.000 A 
ATOM      3  N   UNL     1       4.811   6.757  16.819  0.00  0.00    +0.000 N 
ATOM      4  C   UNL     1       5.495   6.442  17.995  0.00  0.00    +0.000 A 
ATOM      5  C   UNL     1       6.576   5.665  18.004  0.00  0.00    +0.000 A 
ATOM      6  C   UNL     1       7.529   5.179  18.961  0.00  0.00    +0.000 A 
ATOM      7  N   UNL     1       8.442   4.431  18.412  0.00  0.00    +0.000 NA
ATOM      8  N   UNL     1       8.141   4.364  16.982  0.00  0.00    +0.000 NA
ATOM      9  C   UNL     1       7.065   5.069  16.759  0.00  0.00    +0.000 A 
ENDROOT
BRANCH   1  10
ATOM     10  C   UNL     1       6.661   4.757  14.193  0.00  0.00    +0.000 C 
ATOM     11  O   UNL     1       7.474   5.244  13.419  0.00  0.00    +0.000 OA
BRANCH  10  13
ATOM     12  C   UNL     1       5.651   3.363  12.589  0.00  0.00    +0.000 C 
ATOM     13  O   UNL     1       5.921   3.649  13.961  0.00  0.00    +0.000 OA
ENDBRANCH  10  13
ENDBRANCH   1  10
BRANCH   6  14
ATOM     14  O   UNL     1       7.469   5.490  20.252  0.00  0.00    +0.000 OA
ATOM     15  H   UNL     1       8.340   5.602  20.659  0.00  0.00    +0.000 HD
ENDBRANCH   6  14
BRANCH   3  16
ATOM     16  C   UNL     1       3.612   7.638  16.850  0.00  0.00    +0.000 C 
BRANCH  16  17
ATOM     17  C   UNL     1       2.958   7.636  18.236  0.00  0.00    +0.000 C 
BRANCH  17  18
ATOM     18  C   UNL     1       2.559   6.281  18.705  0.00  0.00    +0.000 A 
ATOM     19  C   UNL     1       2.045   5.237  17.963  0.00  0.00    +0.000 A 
ATOM     20  N   UNL     1       1.757   4.244  18.863  0.00  0.00    +0.000 N 
ATOM     21  C   UNL     1       1.204   2.986  18.643  0.00  0.00    +0.000 A 
ATOM     22  C   UNL     1       0.999   2.169  19.691  0.00  0.00    +0.000 A 
ATOM     23  C   UNL     1       1.359   2.634  21.024  0.00  0.00    +0.000 A 
ATOM     24  C   UNL     1       1.891   3.856  21.226  0.00  0.00    +0.000 A 
ATOM     25  C   UNL     1       2.115   4.724  20.118  0.00  0.00    +0.000 A 
ATOM     26  N   UNL     1       2.603   5.947  20.040  0.00  0.00    +0.000 NA
ENDBRANCH  17  18
ENDBRANCH  16  17
ENDBRANCH   3  16
TORSDOF 6
ENDMDL
MODEL 4
REMARK VINA RESULT:      -7.7      0.556      1.182
REMARK  Name = 
REMARK  7 active torsions:
REMARK  status: ('A' for Active; 'I' for Inactive)
REMARK    1  A    between atoms: C_1  and  O_2
REMARK    2  A    between atoms: O_2  and  C_3
REMARK    3  A    between atoms: C_3  and  C_5
REMARK    4  A    between atoms: N_7  and  C_8
REMARK    5  A    between atoms: C_8  and  C_9
REMARK    6  A    between atoms: C_9  and  C_10
REMARK    7  A    between atoms: C_21  and  O_22
REMARK                            x       y       z     vdW  Elec       q    Type
REMARK                         _______ _______ _______ _____ _____    ______ ____
ROOT
ATOM      1  C   UNL     1       6.961   5.888  17.539  0.00  0.00    +0.000 A 
ATOM      2  C   UNL     1       6.155   5.203  18.380  0.00  0.00    +0.000 A 
ATOM      3  N   UNL     1       5.330   4.120  18.022  0.00  0.00    +0.000 N 
ATOM      4  C   UNL     1       5.316   3.733  16.681  0.00  0.00    +0.000 A 
ATOM      5  C   UNL     1       6.092   4.308  15.765  0.00  0.00    +0.000 A 
ATOM      6  C   UNL     1       6.378   4.158  14.367  0.00  0.00    +0.000 A 
ATOM      7  N   UNL     1       7.273   5.009  13.952  0.00  0.00    +0.000 NA
ATOM      8  N   UNL     1       7.658   5.824  15.104  0.00  0.00    +0.000 NA
ATOM      9  C   UNL     1       6.971   5.419  16.137  0.00  0.00    +0.000 A 
ENDROOT
BRANCH   1  10
ATOM     10  C   UNL     1       7.743   7.035  18.045  0.00  0.00    +0.000 C 
ATOM     11  O   UNL     1       8.479   6.983  19.020  0.00  0.00    +0.000 OA
BRANCH  10  13
ATOM     12  C   UNL     1       8.087   9.348  17.783  0.00  0.00    +0.000 C 
ATOM     13  O   UNL     1       7.496   8.141  17.305  0.00  0.00    +0.000 OA
ENDBRANCH  10  13
ENDBRANCH   1  10
BRANCH   6  14
ATOM     14  O   UNL     1       5.793   3.235  13.612  0.00  0.00    +0.000 OA
ATOM     15  H   UNL     1       5.658   3.519  12.695  0.00  0.00    +0.000 HD
ENDBRANCH   6  14
BRANCH   3  16
ATOM     16  C   UNL     1       4.454   3.444  19.017  0.00  0.00    +0.000 C 
BRANCH  16  17
ATOM     17  C   UNL     1       2.973   3.667  18.695  0.00  0.00    +0.000 C 
BRANCH  17  18
ATOM     18  C   UNL     1       2.523   5.072  18.896  0.00  0.00    +0.000 A 
ATOM     19  C   UNL     1       2.520   6.107  17.985  0.00  0.00    +0.000 A 
ATOM     20  N   UNL     1       2.100   7.214  18.675  0.00  0.00    +0.000 N 
ATOM     21  C   UNL     1       1.937   8.523  18.231  0.00  0.00    +0.000 A 
ATOM     22  C   UNL     1       1.517   9.460  19.098  0.00  0.00    +0.000 A 
ATOM     23  C   UNL     1       1.252   9.072  20.477  0.00  0.00    +0.000 A 
ATOM     24  C   UNL     1       1.417   7.801  20.898  0.00  0.00    +0.000 A 
ATOM     25  C   UNL     1       1.858   6.803  19.981  0.00  0.00    +0.000 A 
ATOM     26  N   UNL     1       2.103   5.515  20.131  0.00  0.00    +0.000 NA
ENDBRANCH  17  18
ENDBRANCH  16  17
ENDBRANCH   3  16
TORSDOF 6
ENDMDL
MODEL 5
REMARK VINA RESULT:      -7.6      2.164      4.499
REMARK  Name = 
REMARK  7 active torsions:
REMARK  status: ('A' for Active; 'I' for Inactive)
REMARK    1  A    between atoms: C_1  and  O_2
REMARK    2  A    between atoms: O_2  and  C_3
REMARK    3  A    between atoms: C_3  and  C_5
REMARK    4  A    between atoms: N_7  and  C_8
REMARK    5  A    between atoms: C_8  and  C_9
REMARK    6  A    between atoms: C_9  and  C_10
REMARK    7  A    between atoms: C_21  and  O_22
REMARK                            x       y       z     vdW  Elec       q    Type
REMARK                         _______ _______ _______ _____ _____    ______ ____
ROOT
ATOM      1  C   UNL     1       6.337   5.331  15.510  0.00  0.00    +0.000 A 
ATOM      2  C   UNL     1       5.254   6.133  15.606  0.00  0.00    +0.000 A 
ATOM      3  N   UNL     1       4.757   6.699  16.794  0.00  0.00    +0.000 N 
ATOM      4  C   UNL     1       5.417   6.388  17.984  0.00  0.00    +0.000 A 
ATOM      5  C   UNL     1       6.516   5.637  18.014  0.00  0.00    +0.000 A 
ATOM      6  C   UNL     1       7.456   5.165  18.991  0.00  0.00    +0.000 A 
ATOM      7  N   UNL     1       8.401   4.444  18.458  0.00  0.00    +0.000 NA
ATOM      8  N   UNL     1       8.138   4.385  17.020  0.00  0.00    +0.000 NA
ATOM      9  C   UNL     1       7.052   5.066  16.776  0.00  0.00    +0.000 A 
ENDROOT
BRANCH   1  10
ATOM     10  C   UNL     1       6.722   4.771  14.198  0.00  0.00    +0.000 C 
ATOM     11  O   UNL     1       7.525   5.297  13.440  0.00  0.00    +0.000 OA
BRANCH  10  13
ATOM     12  C   UNL     1       5.438   3.541  12.655  0.00  0.00    +0.000 C 
ATOM     13  O   UNL     1       6.035   3.633  13.948  0.00  0.00    +0.000 OA
ENDBRANCH  10  13
ENDBRANCH   1  10
BRANCH   6  14
ATOM     14  O   UNL     1       7.355   5.460  20.283  0.00  0.00    +0.000 OA
ATOM     15  H   UNL     1       6.471   5.763  20.538  0.00  0.00    +0.000 HD
ENDBRANCH   6  14
BRANCH   3  16
ATOM     16  C   UNL     1       3.537   7.551  16.803  0.00  0.00    +0.000 C 
BRANCH  16  17
ATOM     17  C   UNL     1       2.961   7.680  18.217  0.00  0.00    +0.000 C 
BRANCH  17  18
ATOM     18  C   UNL     1       2.463   6.395  18.778  0.00  0.00    +0.000 A 
ATOM     19  C   UNL     1       2.438   5.991  20.097  0.00  0.00    +0.000 A 
ATOM     20  N   UNL     1       1.973   4.702  20.086  0.00  0.00    +0.000 N 
ATOM     21  C   UNL     1       1.773   3.825  21.149  0.00  0.00    +0.000 A 
ATOM     22  C   UNL     1       1.311   2.588  20.899  0.00  0.00    +0.000 A 
ATOM     23  C   UNL     1       1.042   2.205  19.519  0.00  0.00    +0.000 A 
ATOM     24  C   UNL     1       1.242   3.061  18.497  0.00  0.00    +0.000 A 
ATOM     25  C   UNL     1       1.727   4.376  18.757  0.00  0.00    +0.000 A 
ATOM     26  N   UNL     1       2.012   5.385  17.956  0.00  0.00    +0.000 NA
ENDBRANCH  17  18
ENDBRANCH  16  17
ENDBRANCH   3  16
TORSDOF 6
ENDMDL
MODEL 6
REMARK VINA RESULT:      -7.6      2.643      4.651
REMARK  Name = 
REMARK  7 active torsions:
REMARK  status: ('A' for Active; 'I' for Inactive)
REMARK    1  A    between atoms: C_1  and  O_2
REMARK    2  A    between atoms: O_2  and  C_3
REMARK    3  A    between atoms: C_3  and  C_5
REMARK    4  A    between atoms: N_7  and  C_8
REMARK    5  A    between atoms: C_8  and  C_9
REMARK    6  A    between atoms: C_9  and  C_10
REMARK    7  A    between atoms: C_21  and  O_22
REMARK                            x       y       z     vdW  Elec       q    Type
REMARK                         _______ _______ _______ _____ _____    ______ ____
ROOT
ATOM      1  C   UNL     1       4.252   4.441  18.937  0.00  0.00    +0.000 A 
ATOM      2  C   UNL     1       3.190   5.232  18.665  0.00  0.00    +0.000 A 
ATOM      3  N   UNL     1       3.233   6.444  17.952  0.00  0.00    +0.000 N 
ATOM      4  C   UNL     1       4.479   6.888  17.507  0.00  0.00    +0.000 A 
ATOM      5  C   UNL     1       5.593   6.180  17.683  0.00  0.00    +0.000 A 
ATOM      6  C   UNL     1       6.983   6.281  17.341  0.00  0.00    +0.000 A 
ATOM      7  N   UNL     1       7.671   5.257  17.761  0.00  0.00    +0.000 NA
ATOM      8  N   UNL     1       6.736   4.364  18.448  0.00  0.00    +0.000 NA
ATOM      9  C   UNL     1       5.549   4.906  18.404  0.00  0.00    +0.000 A 
ENDROOT
BRANCH   1  10
ATOM     10  C   UNL     1       4.066   3.213  19.736  0.00  0.00    +0.000 C 
ATOM     11  O   UNL     1       4.970   2.438  20.019  0.00  0.00    +0.000 OA
BRANCH  10  13
ATOM     12  C   UNL     1       2.509   2.735  21.435  0.00  0.00    +0.000 C 
ATOM     13  O   UNL     1       2.764   3.054  20.068  0.00  0.00    +0.000 OA
ENDBRANCH  10  13
ENDBRANCH   1  10
BRANCH   6  14
ATOM     14  O   UNL     1       7.479   7.306  16.656  0.00  0.00    +0.000 OA
ATOM     15  H   UNL     1       8.276   7.685  17.058  0.00  0.00    +0.000 HD
ENDBRANCH   6  14
BRANCH   3  16
ATOM     16  C   UNL     1       2.010   7.260  17.725  0.00  0.00    +0.000 C 
BRANCH  16  17
ATOM     17  C   UNL     1       2.257   8.734  18.065  0.00  0.00    +0.000 C 
BRANCH  17  18
ATOM     18  C   UNL     1       1.425   9.234  19.193  0.00  0.00    +0.000 A 
ATOM     19  C   UNL     1       0.707  10.410  19.269  0.00  0.00    +0.000 A 
ATOM     20  N   UNL     1       0.189  10.451  20.537  0.00  0.00    +0.000 N 
ATOM     21  C   UNL     1      -0.599  11.429  21.139  0.00  0.00    +0.000 A 
ATOM     22  C   UNL     1      -0.989  11.261  22.414  0.00  0.00    +0.000 A 
ATOM     23  C   UNL     1      -0.569  10.061  23.125  0.00  0.00    +0.000 A 
ATOM     24  C   UNL     1       0.196   9.121  22.533  0.00  0.00    +0.000 A 
ATOM     25  C   UNL     1       0.609   9.292  21.180  0.00  0.00    +0.000 A 
ATOM     26  N   UNL     1       1.351   8.546  20.384  0.00  0.00    +0.000 NA
ENDBRANCH  17  18
ENDBRANCH  16  17
ENDBRANCH   3  16
TORSDOF 6
ENDMDL
MODEL 7
REMARK VINA RESULT:      -7.6      2.621      4.386
REMARK  Name = 
REMARK  7 active torsions:
REMARK  status: ('A' for Active; 'I' for Inactive)
REMARK    1  A    between atoms: C_1  and  O_2
REMARK    2  A    between atoms: O_2  and  C_3
REMARK    3  A    between atoms: C_3  and  C_5
REMARK    4  A    between atoms: N_7  and  C_8
REMARK    5  A    between atoms: C_8  and  C_9
REMARK    6  A    between atoms: C_9  and  C_10
REMARK    7  A    between atoms: C_21  and  O_22
REMARK                            x       y       z     vdW  Elec       q    Type
REMARK                         _______ _______ _______ _____ _____    ______ ____
ROOT
ATOM      1  C   UNL     1       4.969   5.128  18.753  0.00  0.00    +0.000 A 
ATOM      2  C   UNL     1       4.127   6.113  18.371  0.00  0.00    +0.000 A 
ATOM      3  N   UNL     1       2.749   5.966  18.131  0.00  0.00    +0.000 N 
ATOM      4  C   UNL     1       2.201   4.689  18.271  0.00  0.00    +0.000 A 
ATOM      5  C   UNL     1       2.921   3.645  18.676  0.00  0.00    +0.000 A 
ATOM      6  C   UNL     1       2.709   2.257  18.972  0.00  0.00    +0.000 A 
ATOM      7  N   UNL     1       3.800   1.664  19.365  0.00  0.00    +0.000 NA
ATOM      8  N   UNL     1       4.864   2.668  19.354  0.00  0.00    +0.000 NA
ATOM      9  C   UNL     1       4.351   3.799  18.951  0.00  0.00    +0.000 A 
ENDROOT
BRANCH   1  10
ATOM     10  C   UNL     1       6.407   5.417  18.928  0.00  0.00    +0.000 C 
ATOM     11  O   UNL     1       6.977   5.419  20.010  0.00  0.00    +0.000 OA
BRANCH  10  13
ATOM     12  C   UNL     1       7.379   4.597  16.948  0.00  0.00    +0.000 C 
ATOM     13  O   UNL     1       6.979   5.715  17.739  0.00  0.00    +0.000 OA
ENDBRANCH  10  13
ENDBRANCH   1  10
BRANCH   6  14
ATOM     14  O   UNL     1       1.519   1.676  18.864  0.00  0.00    +0.000 OA
ATOM     15  H   UNL     1       1.572   0.720  18.711  0.00  0.00    +0.000 HD
ENDBRANCH   6  14
BRANCH   3  16
ATOM     16  C   UNL     1       1.907   7.109  17.685  0.00  0.00    +0.000 C 
BRANCH  16  17
ATOM     17  C   UNL     1       2.419   8.433  18.262  0.00  0.00    +0.000 C 
BRANCH  17  18
ATOM     18  C   UNL     1       1.543   9.000  19.324  0.00  0.00    +0.000 A 
ATOM     19  C   UNL     1       0.806  10.166  19.291  0.00  0.00    +0.000 A 
ATOM     20  N   UNL     1       0.246  10.291  20.535  0.00  0.00    +0.000 N 
ATOM     21  C   UNL     1      -0.575  11.297  21.038  0.00  0.00    +0.000 A 
ATOM     22  C   UNL     1      -1.005  11.216  22.309  0.00  0.00    +0.000 A 
ATOM     23  C   UNL     1      -0.592  10.077  23.118  0.00  0.00    +0.000 A 
ATOM     24  C   UNL     1       0.205   9.110  22.622  0.00  0.00    +0.000 A 
ATOM     25  C   UNL     1       0.661   9.188  21.274  0.00  0.00    +0.000 A 
ATOM     26  N   UNL     1       1.439   8.399  20.559  0.00  0.00    +0.000 NA
ENDBRANCH  17  18
ENDBRANCH  16  17
ENDBRANCH   3  16
TORSDOF 6
ENDMDL
MODEL 8
REMARK VINA RESULT:      -7.4      2.672      6.484
REMARK  Name = 
REMARK  7 active torsions:
REMARK  status: ('A' for Active; 'I' for Inactive)
REMARK    1  A    between atoms: C_1  and  O_2
REMARK    2  A    between atoms: O_2  and  C_3
REMARK    3  A    between atoms: C_3  and  C_5
REMARK    4  A    between atoms: N_7  and  C_8
REMARK    5  A    between atoms: C_8  and  C_9
REMARK    6  A    between atoms: C_9  and  C_10
REMARK    7  A    between atoms: C_21  and  O_22
REMARK                            x       y       z     vdW  Elec       q    Type
REMARK                         _______ _______ _______ _____ _____    ______ ____
ROOT
ATOM      1  C   UNL     1       3.224   5.476  19.211  0.00  0.00    +0.000 A 
ATOM      2  C   UNL     1       4.513   5.786  18.950  0.00  0.00    +0.000 A 
ATOM      3  N   UNL     1       5.526   4.867  18.623  0.00  0.00    +0.000 N 
ATOM      4  C   UNL     1       5.186   3.514  18.590  0.00  0.00    +0.000 A 
ATOM      5  C   UNL     1       3.942   3.087  18.795  0.00  0.00    +0.000 A 
ATOM      6  C   UNL     1       3.231   1.840  18.794  0.00  0.00    +0.000 A 
ATOM      7  N   UNL     1       1.963   1.994  19.051  0.00  0.00    +0.000 NA
ATOM      8  N   UNL     1       1.736   3.426  19.253  0.00  0.00    +0.000 NA
ATOM      9  C   UNL     1       2.878   4.043  19.111  0.00  0.00    +0.000 A 
ENDROOT
BRANCH   1  10
ATOM     10  C   UNL     1       2.273   6.543  19.584  0.00  0.00    +0.000 C 
ATOM     11  O   UNL     1       1.769   6.652  20.693  0.00  0.00    +0.000 OA
BRANCH  10  13
ATOM     12  C   UNL     1       1.825   8.725  18.823  0.00  0.00    +0.000 C 
ATOM     13  O   UNL     1       2.017   7.343  18.523  0.00  0.00    +0.000 OA
ENDBRANCH  10  13
ENDBRANCH   1  10
BRANCH   6  14
ATOM     14  O   UNL     1       3.823   0.678  18.538  0.00  0.00    +0.000 OA
ATOM     15  H   UNL     1       4.255   0.652  17.671  0.00  0.00    +0.000 HD
ENDBRANCH   6  14
BRANCH   3  16
ATOM     16  C   UNL     1       6.928   5.304  18.378  0.00  0.00    +0.000 C 
BRANCH  16  17
ATOM     17  C   UNL     1       7.009   6.266  17.188  0.00  0.00    +0.000 C 
BRANCH  17  18
ATOM     18  C   UNL     1       6.744   5.615  15.876  0.00  0.00    +0.000 A 
ATOM     19  C   UNL     1       5.627   4.908  15.482  0.00  0.00    +0.000 A 
ATOM     20  N   UNL     1       5.903   4.438  14.225  0.00  0.00    +0.000 N 
ATOM     21  C   UNL     1       5.121   3.653  13.383  0.00  0.00    +0.000 A 
ATOM     22  C   UNL     1       5.606   3.299  12.181  0.00  0.00    +0.000 A 
ATOM     23  C   UNL     1       6.941   3.745  11.803  0.00  0.00    +0.000 A 
ATOM     24  C   UNL     1       7.692   4.503  12.628  0.00  0.00    +0.000 A 
ATOM     25  C   UNL     1       7.180   4.885  13.902  0.00  0.00    +0.000 A 
ATOM     26  N   UNL     1       7.699   5.599  14.883  0.00  0.00    +0.000 NA
ENDBRANCH  17  18
ENDBRANCH  16  17
ENDBRANCH   3  16
TORSDOF 6
ENDMDL
MODEL 9
REMARK VINA RESULT:      -7.4      2.819      5.099
REMARK  Name = 
REMARK  7 active torsions:
REMARK  status: ('A' for Active; 'I' for Inactive)
REMARK    1  A    between atoms: C_1  and  O_2
REMARK    2  A    between atoms: O_2  and  C_3
REMARK    3  A    between atoms: C_3  and  C_5
REMARK    4  A    between atoms: N_7  and  C_8
REMARK    5  A    between atoms: C_8  and  C_9
REMARK    6  A    between atoms: C_9  and  C_10
REMARK    7  A    between atoms: C_21  and  O_22
REMARK                            x       y       z     vdW  Elec       q    Type
REMARK                         _______ _______ _______ _____ _____    ______ ____
ROOT
ATOM      1  C   UNL     1       3.230   4.769  19.412  0.00  0.00    +0.000 A 
ATOM      2  C   UNL     1       2.418   5.731  18.921  0.00  0.00    +0.000 A 
ATOM      3  N   UNL     1       2.806   6.767  18.052  0.00  0.00    +0.000 N 
ATOM      4  C   UNL     1       4.151   6.830  17.681  0.00  0.00    +0.000 A 
ATOM      5  C   UNL     1       5.041   5.920  18.071  0.00  0.00    +0.000 A 
ATOM      6  C   UNL     1       6.432   5.636  17.865  0.00  0.00    +0.000 A 
ATOM      7  N   UNL     1       6.816   4.563  18.495  0.00  0.00    +0.000 NA
ATOM      8  N   UNL     1       5.647   4.036  19.200  0.00  0.00    +0.000 NA
ATOM      9  C   UNL     1       4.636   4.825  18.956  0.00  0.00    +0.000 A 
ENDROOT
BRANCH   1  10
ATOM     10  C   UNL     1       2.694   3.765  20.353  0.00  0.00    +0.000 C 
ATOM     11  O   UNL     1       2.373   4.014  21.507  0.00  0.00    +0.000 OA
BRANCH  10  13
ATOM     12  C   UNL     1       1.451   2.239  19.064  0.00  0.00    +0.000 C 
ATOM     13  O   UNL     1       2.652   2.545  19.771  0.00  0.00    +0.000 OA
ENDBRANCH  10  13
ENDBRANCH   1  10
BRANCH   6  14
ATOM     14  O   UNL     1       7.211   6.392  17.098  0.00  0.00    +0.000 OA
ATOM     15  H   UNL     1       7.423   5.982  16.246  0.00  0.00    +0.000 HD
ENDBRANCH   6  14
BRANCH   3  16
ATOM     16  C   UNL     1       1.841   7.799  17.586  0.00  0.00    +0.000 C 
BRANCH  16  17
ATOM     17  C   UNL     1       2.208   9.186  18.125  0.00  0.00    +0.000 C 
BRANCH  17  18
ATOM     18  C   UNL     1       1.363   9.625  19.269  0.00  0.00    +0.000 A 
ATOM     19  C   UNL     1       0.776  10.856  19.473  0.00  0.00    +0.000 A 
ATOM     20  N   UNL     1       0.182  10.788  20.706  0.00  0.00    +0.000 N 
ATOM     21  C   UNL     1      -0.531  11.763  21.399  0.00  0.00    +0.000 A 
ATOM     22  C   UNL     1      -1.023  11.473  22.616  0.00  0.00    +0.000 A 
ATOM     23  C   UNL     1      -0.786  10.147  23.171  0.00  0.00    +0.000 A 
ATOM     24  C   UNL     1      -0.092   9.211  22.492  0.00  0.00    +0.000 A 
ATOM     25  C   UNL     1       0.428   9.512  21.200  0.00  0.00    +0.000 A 
ATOM     26  N   UNL     1       1.134   8.797  20.345  0.00  0.00    +0.000 NA
ENDBRANCH  17  18
ENDBRANCH  16  17
ENDBRANCH   3  16
TORSDOF 6
ENDMDL
