MODEL 1
REMARK VINA RESULT:      -7.9      0.000      0.000
REMARK  Name = 
REMARK  3 active torsions:
REMARK  status: ('A' for Active; 'I' for Inactive)
REMARK    1  A    between atoms: N_2  and  C_4
REMARK    2  A    between atoms: C_7  and  C_8
REMARK    3  A    between atoms: C_13  and  C_14
REMARK                            x       y       z     vdW  Elec       q    Type
REMARK                         _______ _______ _______ _____ _____    ______ ____
ROOT
ATOM      1  C   UNL     1       3.670   4.953  18.402  0.00  0.00    +0.000 A 
ATOM      2  N   UNL     1       3.512   3.860  19.177  0.00  0.00    +0.000 NA
ATOM      3  O   UNL     1       2.677   4.228  20.216  0.00  0.00    +0.000 OA
ATOM      4  C   UNL     1       2.336   5.531  20.080  0.00  0.00    +0.000 A 
ATOM      5  C   UNL     1       1.535   6.284  20.926  0.00  0.00    +0.000 A 
ATOM      6  C   UNL     1       1.364   7.623  20.550  0.00  0.00    +0.000 A 
ATOM      7  C   UNL     1       1.982   8.078  19.383  0.00  0.00    +0.000 A 
ATOM      8  N   UNL     1       2.763   7.340  18.553  0.00  0.00    +0.000 NA
ATOM      9  C   UNL     1       2.927   6.045  18.941  0.00  0.00    +0.000 A 
ENDROOT
BRANCH   1  13
ATOM     10  C   UNL     1       6.159   4.879  14.928  0.00  0.00    +0.000 A 
ATOM     11  C   UNL     1       5.843   3.679  15.579  0.00  0.00    +0.000 A 
ATOM     12  C   UNL     1       5.024   3.702  16.715  0.00  0.00    +0.000 A 
ATOM     13  C   UNL     1       4.520   4.913  17.212  0.00  0.00    +0.000 A 
ATOM     14  C   UNL     1       4.851   6.108  16.545  0.00  0.00    +0.000 A 
ATOM     15  C   UNL     1       5.663   6.096  15.407  0.00  0.00    +0.000 A 
BRANCH  10  17
ATOM     16  O   UNL     1       7.956   5.668  13.690  0.00  0.00    +0.000 OA
ATOM     17  N   UNL     1       7.017   4.861  13.736  0.00  0.00    +0.000 N 
ATOM     18  O   UNL     1       6.751   4.038  12.848  0.00  0.00    +0.000 OA
ENDBRANCH  10  17
ENDBRANCH   1  13
BRANCH   6  19
ATOM     19  C   UNL     1       0.543   8.574  21.367  0.00  0.00    +0.000 C 
ATOM     20  F   UNL     1      -0.706   8.110  21.644  0.00  0.00    +0.000 F 
ATOM     21  F   UNL     1       1.115   8.852  22.569  0.00  0.00    +0.000 F 
ATOM     22  F   UNL     1       0.369   9.773  20.747  0.00  0.00    +0.000 F 
ENDBRANCH   6  19
TORSDOF 3
ENDMDL
MODEL 2
REMARK VINA RESULT:      -7.8      0.295      1.074
REMARK  Name = 
REMARK  3 active torsions:
REMARK  status: ('A' for Active; 'I' for Inactive)
REMARK    1  A    between atoms: N_2  and  C_4
REMARK    2  A    between atoms: C_7  and  C_8
REMARK    3  A    between atoms: C_13  and  C_14
REMARK                            x       y       z     vdW  Elec       q    Type
REMARK                         _______ _______ _______ _____ _____    ______ ____
ROOT
ATOM      1  C   UNL     1       3.513   5.134  18.543  0.00  0.00    +0.000 A 
ATOM      2  N   UNL     1       3.331   4.053  19.330  0.00  0.00    +0.000 NA
ATOM      3  O   UNL     1       2.486   4.446  20.352  0.00  0.00    +0.000 OA
ATOM      4  C   UNL     1       2.163   5.752  20.195  0.00  0.00    +0.000 A 
ATOM      5  C   UNL     1       1.361   6.525  21.019  0.00  0.00    +0.000 A 
ATOM      6  C   UNL     1       1.212   7.861  20.623  0.00  0.00    +0.000 A 
ATOM      7  C   UNL     1       1.852   8.293  19.460  0.00  0.00    +0.000 A 
ATOM      8  N   UNL     1       2.634   7.534  18.650  0.00  0.00    +0.000 NA
ATOM      9  C   UNL     1       2.777   6.243  19.057  0.00  0.00    +0.000 A 
ENDROOT
BRANCH   1  13
ATOM     10  C   UNL     1       6.035   4.899  15.100  0.00  0.00    +0.000 A 
ATOM     11  C   UNL     1       5.610   6.151  15.562  0.00  0.00    +0.000 A 
ATOM     12  C   UNL     1       4.786   6.230  16.693  0.00  0.00    +0.000 A 
ATOM     13  C   UNL     1       4.379   5.068  17.365  0.00  0.00    +0.000 A 
ATOM     14  C   UNL     1       4.815   3.820  16.884  0.00  0.00    +0.000 A 
ATOM     15  C   UNL     1       5.641   3.730  15.760  0.00  0.00    +0.000 A 
BRANCH  10  17
ATOM     16  O   UNL     1       7.858   5.594  13.843  0.00  0.00    +0.000 OA
ATOM     17  N   UNL     1       6.899   4.811  13.916  0.00  0.00    +0.000 N 
ATOM     18  O   UNL     1       6.619   3.959  13.060  0.00  0.00    +0.000 OA
ENDBRANCH  10  17
ENDBRANCH   1  13
BRANCH   6  19
ATOM     19  C   UNL     1       0.392   8.833  21.416  0.00  0.00    +0.000 C 
ATOM     20  F   UNL     1      -0.734   8.284  21.947  0.00  0.00    +0.000 F 
ATOM     21  F   UNL     1       1.082   9.359  22.464  0.00  0.00    +0.000 F 
ATOM     22  F   UNL     1      -0.022   9.892  20.670  0.00  0.00    +0.000 F 
ENDBRANCH   6  19
TORSDOF 3
ENDMDL
MODEL 3
REMARK VINA RESULT:      -7.8      0.264      1.109
REMARK  Name = 
REMARK  3 active torsions:
REMARK  status: ('A' for Active; 'I' for Inactive)
REMARK    1  A    between atoms: N_2  and  C_4
REMARK    2  A    between atoms: C_7  and  C_8
REMARK    3  A    between atoms: C_13  and  C_14
REMARK                            x       y       z     vdW  Elec       q    Type
REMARK                         _______ _______ _______ _____ _____    ______ ____
ROOT
ATOM      1  C   UNL     1       3.549   5.098  18.460  0.00  0.00    +0.000 A 
ATOM      2  N   UNL     1       3.362   4.031  19.265  0.00  0.00    +0.000 NA
ATOM      3  O   UNL     1       2.521   4.446  20.282  0.00  0.00    +0.000 OA
ATOM      4  C   UNL     1       2.207   5.751  20.104  0.00  0.00    +0.000 A 
ATOM      5  C   UNL     1       1.412   6.544  20.916  0.00  0.00    +0.000 A 
ATOM      6  C   UNL     1       1.271   7.874  20.499  0.00  0.00    +0.000 A 
ATOM      7  C   UNL     1       1.912   8.282  19.327  0.00  0.00    +0.000 A 
ATOM      8  N   UNL     1       2.687   7.505  18.529  0.00  0.00    +0.000 NA
ATOM      9  C   UNL     1       2.822   6.219  18.957  0.00  0.00    +0.000 A 
ENDROOT
BRANCH   1  13
ATOM     10  C   UNL     1       6.076   4.872  15.020  0.00  0.00    +0.000 A 
ATOM     11  C   UNL     1       5.747   3.701  15.714  0.00  0.00    +0.000 A 
ATOM     12  C   UNL     1       4.915   3.773  16.840  0.00  0.00    +0.000 A 
ATOM     13  C   UNL     1       4.413   5.006  17.282  0.00  0.00    +0.000 A 
ATOM     14  C   UNL     1       4.757   6.171  16.572  0.00  0.00    +0.000 A 
ATOM     15  C   UNL     1       5.582   6.110  15.444  0.00  0.00    +0.000 A 
BRANCH  10  17
ATOM     16  O   UNL     1       6.645   3.995  12.948  0.00  0.00    +0.000 OA
ATOM     17  N   UNL     1       6.947   4.801  13.839  0.00  0.00    +0.000 N 
ATOM     18  O   UNL     1       7.932   5.553  13.804  0.00  0.00    +0.000 OA
ENDBRANCH  10  17
ENDBRANCH   1  13
BRANCH   6  19
ATOM     19  C   UNL     1       0.459   8.865  21.277  0.00  0.00    +0.000 C 
ATOM     20  F   UNL     1       1.149   9.450  22.293  0.00  0.00    +0.000 F 
ATOM     21  F   UNL     1       0.002   9.884  20.500  0.00  0.00    +0.000 F 
ATOM     22  F   UNL     1      -0.641   8.302  21.845  0.00  0.00    +0.000 F 
ENDBRANCH   6  19
TORSDOF 3
ENDMDL
MODEL 4
REMARK VINA RESULT:      -7.7      1.129      1.735
REMARK  Name = 
REMARK  3 active torsions:
REMARK  status: ('A' for Active; 'I' for Inactive)
REMARK    1  A    between atoms: N_2  and  C_4
REMARK    2  A    between atoms: C_7  and  C_8
REMARK    3  A    between atoms: C_13  and  C_14
REMARK                            x       y       z     vdW  Elec       q    Type
REMARK                         _______ _______ _______ _____ _____    ______ ____
ROOT
ATOM      1  C   UNL     1       3.183   5.944  18.921  0.00  0.00    +0.000 A 
ATOM      2  N   UNL     1       3.033   5.058  19.927  0.00  0.00    +0.000 NA
ATOM      3  O   UNL     1       2.187   5.646  20.849  0.00  0.00    +0.000 OA
ATOM      4  C   UNL     1       1.832   6.878  20.414  0.00  0.00    +0.000 A 
ATOM      5  C   UNL     1       1.018   7.796  21.059  0.00  0.00    +0.000 A 
ATOM      6  C   UNL     1       0.834   9.009  20.383  0.00  0.00    +0.000 A 
ATOM      7  C   UNL     1       1.455   9.190  19.146  0.00  0.00    +0.000 A 
ATOM      8  N   UNL     1       2.249   8.290  18.512  0.00  0.00    +0.000 NA
ATOM      9  C   UNL     1       2.425   7.122  19.189  0.00  0.00    +0.000 A 
ENDROOT
BRANCH   1  13
ATOM     10  C   UNL     1       5.677   5.018  15.575  0.00  0.00    +0.000 A 
ATOM     11  C   UNL     1       5.482   6.355  15.943  0.00  0.00    +0.000 A 
ATOM     12  C   UNL     1       4.668   6.660  17.042  0.00  0.00    +0.000 A 
ATOM     13  C   UNL     1       4.042   5.641  17.775  0.00  0.00    +0.000 A 
ATOM     14  C   UNL     1       4.249   4.304  17.387  0.00  0.00    +0.000 A 
ATOM     15  C   UNL     1       5.064   3.988  16.296  0.00  0.00    +0.000 A 
BRANCH  10  17
ATOM     16  O   UNL     1       7.564   5.358  14.268  0.00  0.00    +0.000 OA
ATOM     17  N   UNL     1       6.529   4.693  14.423  0.00  0.00    +0.000 N 
ATOM     18  O   UNL     1       6.164   3.774  13.677  0.00  0.00    +0.000 OA
ENDBRANCH  10  17
ENDBRANCH   1  13
BRANCH   6  19
ATOM     19  C   UNL     1      -0.003  10.114  20.955  0.00  0.00    +0.000 C 
ATOM     20  F   UNL     1      -0.942  10.583  20.090  0.00  0.00    +0.000 F 
ATOM     21  F   UNL     1      -0.680   9.727  22.070  0.00  0.00    +0.000 F 
ATOM     22  F   UNL     1       0.741  11.191  21.322  0.00  0.00    +0.000 F 
ENDBRANCH   6  19
TORSDOF 3
ENDMDL
MODEL 5
REMARK VINA RESULT:      -7.7      4.811      7.733
REMARK  Name = 
REMARK  3 active torsions:
REMARK  status: ('A' for Active; 'I' for Inactive)
REMARK    1  A    between atoms: N_2  and  C_4
REMARK    2  A    between atoms: C_7  and  C_8
REMARK    3  A    between atoms: C_13  and  C_14
REMARK                            x       y       z     vdW  Elec       q    Type
REMARK                         _______ _______ _______ _____ _____    ______ ____
ROOT
ATOM      1  C   UNL     1       2.573   6.340  18.699  0.00  0.00    +0.000 A 
ATOM      2  N   UNL     1       2.081   5.148  19.097  0.00  0.00    +0.000 NA
ATOM      3  O   UNL     1       2.815   4.178  18.439  0.00  0.00    +0.000 OA
ATOM      4  C   UNL     1       3.737   4.771  17.644  0.00  0.00    +0.000 A 
ATOM      5  C   UNL     1       4.648   4.149  16.805  0.00  0.00    +0.000 A 
ATOM      6  C   UNL     1       5.477   5.015  16.078  0.00  0.00    +0.000 A 
ATOM      7  C   UNL     1       5.333   6.392  16.260  0.00  0.00    +0.000 A 
ATOM      8  N   UNL     1       4.443   7.001  17.085  0.00  0.00    +0.000 NA
ATOM      9  C   UNL     1       3.640   6.144  17.773  0.00  0.00    +0.000 A 
ENDROOT
BRANCH   1  13
ATOM     10  C   UNL     1       0.913   9.983  20.197  0.00  0.00    +0.000 A 
ATOM     11  C   UNL     1       1.238   9.878  18.838  0.00  0.00    +0.000 A 
ATOM     12  C   UNL     1       1.778   8.683  18.345  0.00  0.00    +0.000 A 
ATOM     13  C   UNL     1       2.002   7.592  19.198  0.00  0.00    +0.000 A 
ATOM     14  C   UNL     1       1.672   7.719  20.560  0.00  0.00    +0.000 A 
ATOM     15  C   UNL     1       1.127   8.905  21.061  0.00  0.00    +0.000 A 
BRANCH  10  17
ATOM     16  O   UNL     1      -0.864  11.434  20.542  0.00  0.00    +0.000 OA
ATOM     17  N   UNL     1       0.346  11.234  20.718  0.00  0.00    +0.000 N 
ATOM     18  O   UNL     1       1.111  12.013  21.304  0.00  0.00    +0.000 OA
ENDBRANCH  10  17
ENDBRANCH   1  13
BRANCH   6  19
ATOM     19  C   UNL     1       6.503   4.502  15.113  0.00  0.00    +0.000 C 
ATOM     20  F   UNL     1       6.703   5.327  14.049  0.00  0.00    +0.000 F 
ATOM     21  F   UNL     1       7.721   4.335  15.693  0.00  0.00    +0.000 F 
ATOM     22  F   UNL     1       6.165   3.292  14.591  0.00  0.00    +0.000 F 
ENDBRANCH   6  19
TORSDOF 3
ENDMDL
MODEL 6
REMARK VINA RESULT:      -7.7      1.142      1.737
REMARK  Name = 
REMARK  3 active torsions:
REMARK  status: ('A' for Active; 'I' for Inactive)
REMARK    1  A    between atoms: N_2  and  C_4
REMARK    2  A    between atoms: C_7  and  C_8
REMARK    3  A    between atoms: C_13  and  C_14
REMARK                            x       y       z     vdW  Elec       q    Type
REMARK                         _______ _______ _______ _____ _____    ______ ____
ROOT
ATOM      1  C   UNL     1       3.183   5.918  18.939  0.00  0.00    +0.000 A 
ATOM      2  N   UNL     1       3.005   5.037  19.945  0.00  0.00    +0.000 NA
ATOM      3  O   UNL     1       2.155   5.641  20.854  0.00  0.00    +0.000 OA
ATOM      4  C   UNL     1       1.827   6.878  20.411  0.00  0.00    +0.000 A 
ATOM      5  C   UNL     1       1.019   7.811  21.043  0.00  0.00    +0.000 A 
ATOM      6  C   UNL     1       0.865   9.025  20.362  0.00  0.00    +0.000 A 
ATOM      7  C   UNL     1       1.506   9.193  19.133  0.00  0.00    +0.000 A 
ATOM      8  N   UNL     1       2.294   8.278  18.512  0.00  0.00    +0.000 NA
ATOM      9  C   UNL     1       2.441   7.109  19.194  0.00  0.00    +0.000 A 
ENDROOT
BRANCH   1  13
ATOM     10  C   UNL     1       5.743   5.020  15.635  0.00  0.00    +0.000 A 
ATOM     11  C   UNL     1       4.984   3.998  16.221  0.00  0.00    +0.000 A 
ATOM     12  C   UNL     1       4.142   4.292  17.301  0.00  0.00    +0.000 A 
ATOM     13  C   UNL     1       4.053   5.598  17.806  0.00  0.00    +0.000 A 
ATOM     14  C   UNL     1       4.825   6.610  17.205  0.00  0.00    +0.000 A 
ATOM     15  C   UNL     1       5.665   6.329  16.123  0.00  0.00    +0.000 A 
BRANCH  10  17
ATOM     16  O   UNL     1       6.267   3.833  13.712  0.00  0.00    +0.000 OA
ATOM     17  N   UNL     1       6.627   4.717  14.502  0.00  0.00    +0.000 N 
ATOM     18  O   UNL     1       7.679   5.365  14.403  0.00  0.00    +0.000 OA
ENDBRANCH  10  17
ENDBRANCH   1  13
BRANCH   6  19
ATOM     19  C   UNL     1       0.038  10.145  20.919  0.00  0.00    +0.000 C 
ATOM     20  F   UNL     1       0.772  11.235  21.271  0.00  0.00    +0.000 F 
ATOM     21  F   UNL     1      -0.894  10.590  20.035  0.00  0.00    +0.000 F 
ATOM     22  F   UNL     1      -0.647   9.778  22.035  0.00  0.00    +0.000 F 
ENDBRANCH   6  19
TORSDOF 3
ENDMDL
MODEL 7
REMARK VINA RESULT:      -7.7      1.084      1.915
REMARK  Name = 
REMARK  3 active torsions:
REMARK  status: ('A' for Active; 'I' for Inactive)
REMARK    1  A    between atoms: N_2  and  C_4
REMARK    2  A    between atoms: C_7  and  C_8
REMARK    3  A    between atoms: C_13  and  C_14
REMARK                            x       y       z     vdW  Elec       q    Type
REMARK                         _______ _______ _______ _____ _____    ______ ____
ROOT
ATOM      1  C   UNL     1       3.243   5.810  18.983  0.00  0.00    +0.000 A 
ATOM      2  N   UNL     1       3.073   4.893  19.958  0.00  0.00    +0.000 NA
ATOM      3  O   UNL     1       2.210   5.454  20.882  0.00  0.00    +0.000 OA
ATOM      4  C   UNL     1       1.865   6.700  20.479  0.00  0.00    +0.000 A 
ATOM      5  C   UNL     1       1.039   7.598  21.137  0.00  0.00    +0.000 A 
ATOM      6  C   UNL     1       0.870   8.832  20.495  0.00  0.00    +0.000 A 
ATOM      7  C   UNL     1       1.514   9.050  19.275  0.00  0.00    +0.000 A 
ATOM      8  N   UNL     1       2.319   8.169  18.629  0.00  0.00    +0.000 NA
ATOM      9  C   UNL     1       2.481   6.980  19.273  0.00  0.00    +0.000 A 
ENDROOT
BRANCH   1  13
ATOM     10  C   UNL     1       5.791   4.988  15.651  0.00  0.00    +0.000 A 
ATOM     11  C   UNL     1       5.826   6.252  16.253  0.00  0.00    +0.000 A 
ATOM     12  C   UNL     1       4.994   6.522  17.347  0.00  0.00    +0.000 A 
ATOM     13  C   UNL     1       4.123   5.541  17.845  0.00  0.00    +0.000 A 
ATOM     14  C   UNL     1       4.102   4.278  17.224  0.00  0.00    +0.000 A 
ATOM     15  C   UNL     1       4.932   3.996  16.135  0.00  0.00    +0.000 A 
BRANCH  10  17
ATOM     16  O   UNL     1       6.328   3.780  13.743  0.00  0.00    +0.000 OA
ATOM     17  N   UNL     1       6.662   4.700  14.503  0.00  0.00    +0.000 N 
ATOM     18  O   UNL     1       7.677   5.397  14.362  0.00  0.00    +0.000 OA
ENDBRANCH  10  17
ENDBRANCH   1  13
BRANCH   6  19
ATOM     19  C   UNL     1       0.023   9.920  21.085  0.00  0.00    +0.000 C 
ATOM     20  F   UNL     1       0.741  10.999  21.500  0.00  0.00    +0.000 F 
ATOM     21  F   UNL     1      -0.895  10.398  20.202  0.00  0.00    +0.000 F 
ATOM     22  F   UNL     1      -0.682   9.499  22.169  0.00  0.00    +0.000 F 
ENDBRANCH   6  19
TORSDOF 3
ENDMDL
MODEL 8
REMARK VINA RESULT:      -7.7      1.167      1.466
REMARK  Name = 
REMARK  3 active torsions:
REMARK  status: ('A' for Active; 'I' for Inactive)
REMARK    1  A    between atoms: N_2  and  C_4
REMARK    2  A    between atoms: C_7  and  C_8
REMARK    3  A    between atoms: C_13  and  C_14
REMARK                            x       y       z     vdW  Elec       q    Type
REMARK                         _______ _______ _______ _____ _____    ______ ____
ROOT
ATOM      1  C   UNL     1       3.159   5.989  18.935  0.00  0.00    +0.000 A 
ATOM      2  N   UNL     1       3.005   5.129  19.963  0.00  0.00    +0.000 NA
ATOM      3  O   UNL     1       2.168   5.747  20.874  0.00  0.00    +0.000 OA
ATOM      4  C   UNL     1       1.822   6.972  20.410  0.00  0.00    +0.000 A 
ATOM      5  C   UNL     1       1.019   7.913  21.036  0.00  0.00    +0.000 A 
ATOM      6  C   UNL     1       0.843   9.110  20.331  0.00  0.00    +0.000 A 
ATOM      7  C   UNL     1       1.460   9.255  19.087  0.00  0.00    +0.000 A 
ATOM      8  N   UNL     1       2.244   8.332  18.472  0.00  0.00    +0.000 NA
ATOM      9  C   UNL     1       2.412   7.180  19.177  0.00  0.00    +0.000 A 
ENDROOT
BRANCH   1  13
ATOM     10  C   UNL     1       5.660   5.037  15.602  0.00  0.00    +0.000 A 
ATOM     11  C   UNL     1       5.026   4.007  16.308  0.00  0.00    +0.000 A 
ATOM     12  C   UNL     1       4.203   4.317  17.399  0.00  0.00    +0.000 A 
ATOM     13  C   UNL     1       4.010   5.650  17.794  0.00  0.00    +0.000 A 
ATOM     14  C   UNL     1       4.658   6.670  17.073  0.00  0.00    +0.000 A 
ATOM     15  C   UNL     1       5.477   6.371  15.980  0.00  0.00    +0.000 A 
BRANCH  10  17
ATOM     16  O   UNL     1       7.585   5.347  14.343  0.00  0.00    +0.000 OA
ATOM     17  N   UNL     1       6.524   4.716  14.458  0.00  0.00    +0.000 N 
ATOM     18  O   UNL     1       6.141   3.833  13.678  0.00  0.00    +0.000 OA
ENDBRANCH  10  17
ENDBRANCH   1  13
BRANCH   6  19
ATOM     19  C   UNL     1       0.018  10.236  20.879  0.00  0.00    +0.000 C 
ATOM     20  F   UNL     1      -0.978  10.633  20.041  0.00  0.00    +0.000 F 
ATOM     21  F   UNL     1      -0.586   9.912  22.053  0.00  0.00    +0.000 F 
ATOM     22  F   UNL     1       0.761  11.347  21.132  0.00  0.00    +0.000 F 
ENDBRANCH   6  19
TORSDOF 3
ENDMDL
MODEL 9
REMARK VINA RESULT:      -7.7      4.799      7.693
REMARK  Name = 
REMARK  3 active torsions:
REMARK  status: ('A' for Active; 'I' for Inactive)
REMARK    1  A    between atoms: N_2  and  C_4
REMARK    2  A    between atoms: C_7  and  C_8
REMARK    3  A    between atoms: C_13  and  C_14
REMARK                            x       y       z     vdW  Elec       q    Type
REMARK                         _______ _______ _______ _____ _____    ______ ____
ROOT
ATOM      1  C   UNL     1       2.581   6.312  18.756  0.00  0.00    +0.000 A 
ATOM      2  N   UNL     1       2.104   5.116  19.159  0.00  0.00    +0.000 NA
ATOM      3  O   UNL     1       2.834   4.153  18.487  0.00  0.00    +0.000 OA
ATOM      4  C   UNL     1       3.738   4.754  17.679  0.00  0.00    +0.000 A 
ATOM      5  C   UNL     1       4.641   4.141  16.823  0.00  0.00    +0.000 A 
ATOM      6  C   UNL     1       5.452   5.014  16.086  0.00  0.00    +0.000 A 
ATOM      7  C   UNL     1       5.302   6.390  16.273  0.00  0.00    +0.000 A 
ATOM      8  N   UNL     1       4.421   6.990  17.114  0.00  0.00    +0.000 NA
ATOM      9  C   UNL     1       3.635   6.126  17.813  0.00  0.00    +0.000 A 
ENDROOT
BRANCH   1  13
ATOM     10  C   UNL     1       0.907   9.967  20.209  0.00  0.00    +0.000 A 
ATOM     11  C   UNL     1       1.090   8.892  21.089  0.00  0.00    +0.000 A 
ATOM     12  C   UNL     1       1.643   7.694  20.615  0.00  0.00    +0.000 A 
ATOM     13  C   UNL     1       2.010   7.559  19.267  0.00  0.00    +0.000 A 
ATOM     14  C   UNL     1       1.815   8.650  18.400  0.00  0.00    +0.000 A 
ATOM     15  C   UNL     1       1.269   9.850  18.864  0.00  0.00    +0.000 A 
BRANCH  10  17
ATOM     16  O   UNL     1      -0.874  11.429  20.484  0.00  0.00    +0.000 OA
ATOM     17  N   UNL     1       0.328  11.224  20.702  0.00  0.00    +0.000 N 
ATOM     18  O   UNL     1       1.077  12.004  21.308  0.00  0.00    +0.000 OA
ENDBRANCH  10  17
ENDBRANCH   1  13
BRANCH   6  19
ATOM     19  C   UNL     1       6.466   4.511  15.103  0.00  0.00    +0.000 C 
ATOM     20  F   UNL     1       6.637   5.334  14.034  0.00  0.00    +0.000 F 
ATOM     21  F   UNL     1       7.697   4.360  15.661  0.00  0.00    +0.000 F 
ATOM     22  F   UNL     1       6.134   3.295  14.592  0.00  0.00    +0.000 F 
ENDBRANCH   6  19
TORSDOF 3
ENDMDL
