MODEL 1
REMARK VINA RESULT:      -7.3      0.000      0.000
REMARK  Name = 
REMARK  6 active torsions:
REMARK  status: ('A' for Active; 'I' for Inactive)
REMARK    1  A    between atoms: C_2  and  C_3
REMARK    2  A    between atoms: C_3  and  N_4
REMARK    3  A    between atoms: N_4  and  C_5
REMARK    4  A    between atoms: N_4  and  C_8
REMARK    5  A    between atoms: C_5  and  C_6
REMARK    6  A    between atoms: C_8  and  C_9
REMARK                            x       y       z     vdW  Elec       q    Type
REMARK                         _______ _______ _______ _____ _____    ______ ____
ROOT
ATOM      1  C   UNL     1       4.596   4.257  18.211  0.00  0.00    +0.000 A 
ATOM      2  C   UNL     1       4.936   3.027  18.661  0.00  0.00    +0.000 A 
ATOM      3  C   UNL     1       4.456   2.437  19.902  0.00  0.00    +0.000 A 
ATOM      4  O   UNL     1       4.859   1.332  20.274  0.00  0.00    +0.000 OA
ATOM      5  O   UNL     1       3.502   3.150  20.578  0.00  0.00    +0.000 OA
ATOM      6  C   UNL     1       3.098   4.435  20.149  0.00  0.00    +0.000 A 
ATOM      7  C   UNL     1       2.100   4.999  20.933  0.00  0.00    +0.000 A 
ATOM      8  C   UNL     1       1.600   6.250  20.600  0.00  0.00    +0.000 A 
ATOM      9  C   UNL     1       2.124   6.955  19.515  0.00  0.00    +0.000 A 
ATOM     10  C   UNL     1       1.557   8.205  19.193  0.00  0.00    +0.000 A 
ATOM     11  C   UNL     1       2.019   8.954  18.114  0.00  0.00    +0.000 A 
ATOM     12  C   UNL     1       3.110   8.502  17.402  0.00  0.00    +0.000 A 
ATOM     13  C   UNL     1       3.709   7.287  17.751  0.00  0.00    +0.000 A 
ATOM     14  C   UNL     1       3.195   6.419  18.747  0.00  0.00    +0.000 A 
ATOM     15  C   UNL     1       3.657   5.079  19.027  0.00  0.00    +0.000 A 
ENDROOT
BRANCH   1  16
ATOM     16  C   UNL     1       5.090   4.635  16.825  0.00  0.00    +0.000 C 
BRANCH  16  17
ATOM     17  N   UNL     1       6.559   4.582  16.661  0.00  0.00    +0.000 NA
BRANCH  17  18
ATOM     18  C   UNL     1       6.933   4.721  15.246  0.00  0.00    +0.000 C 
BRANCH  18  20
ATOM     19  C   UNL     1       6.048   3.691  13.129  0.00  0.00    +0.000 C 
ATOM     20  C   UNL     1       5.852   4.349  14.277  0.00  0.00    +0.000 C 
ENDBRANCH  18  20
ENDBRANCH  17  18
BRANCH  17  21
ATOM     21  C   UNL     1       7.236   5.528  17.565  0.00  0.00    +0.000 C 
BRANCH  21  22
ATOM     22  C   UNL     1       7.365   6.933  17.053  0.00  0.00    +0.000 C 
ATOM     23  C   UNL     1       7.810   7.968  17.768  0.00  0.00    +0.000 C 
ENDBRANCH  21  22
ENDBRANCH  17  21
ENDBRANCH  16  17
ENDBRANCH   1  16
TORSDOF 6
ENDMDL
MODEL 2
REMARK VINA RESULT:      -7.1      0.462      2.429
REMARK  Name = 
REMARK  6 active torsions:
REMARK  status: ('A' for Active; 'I' for Inactive)
REMARK    1  A    between atoms: C_2  and  C_3
REMARK    2  A    between atoms: C_3  and  N_4
REMARK    3  A    between atoms: N_4  and  C_5
REMARK    4  A    between atoms: N_4  and  C_8
REMARK    5  A    between atoms: C_5  and  C_6
REMARK    6  A    between atoms: C_8  and  C_9
REMARK                            x       y       z     vdW  Elec       q    Type
REMARK                         _______ _______ _______ _____ _____    ______ ____
ROOT
ATOM      1  C   UNL     1       4.414   4.483  18.005  0.00  0.00    +0.000 A 
ATOM      2  C   UNL     1       4.794   3.241  18.384  0.00  0.00    +0.000 A 
ATOM      3  C   UNL     1       4.423   2.610  19.643  0.00  0.00    +0.000 A 
ATOM      4  O   UNL     1       4.859   1.495  19.943  0.00  0.00    +0.000 OA
ATOM      5  O   UNL     1       3.530   3.296  20.420  0.00  0.00    +0.000 OA
ATOM      6  C   UNL     1       3.088   4.592  20.070  0.00  0.00    +0.000 A 
ATOM      7  C   UNL     1       2.161   5.127  20.955  0.00  0.00    +0.000 A 
ATOM      8  C   UNL     1       1.632   6.385  20.707  0.00  0.00    +0.000 A 
ATOM      9  C   UNL     1       2.060   7.127  19.604  0.00  0.00    +0.000 A 
ATOM     10  C   UNL     1       1.464   8.384  19.373  0.00  0.00    +0.000 A 
ATOM     11  C   UNL     1       1.830   9.169  18.282  0.00  0.00    +0.000 A 
ATOM     12  C   UNL     1       2.856   8.745  17.464  0.00  0.00    +0.000 A 
ATOM     13  C   UNL     1       3.486   7.522  17.722  0.00  0.00    +0.000 A 
ATOM     14  C   UNL     1       3.061   6.620  18.730  0.00  0.00    +0.000 A 
ATOM     15  C   UNL     1       3.548   5.274  18.925  0.00  0.00    +0.000 A 
ENDROOT
BRANCH   1  16
ATOM     16  C   UNL     1       4.786   4.908  16.594  0.00  0.00    +0.000 C 
BRANCH  16  17
ATOM     17  N   UNL     1       6.140   5.487  16.464  0.00  0.00    +0.000 NA
BRANCH  17  18
ATOM     18  C   UNL     1       6.910   5.302  17.703  0.00  0.00    +0.000 C 
BRANCH  18  20
ATOM     19  C   UNL     1       7.640   7.707  17.593  0.00  0.00    +0.000 C 
ATOM     20  C   UNL     1       7.487   6.564  18.271  0.00  0.00    +0.000 C 
ENDBRANCH  18  20
ENDBRANCH  17  18
BRANCH  17  21
ATOM     21  C   UNL     1       6.818   5.005  15.249  0.00  0.00    +0.000 C 
BRANCH  21  22
ATOM     22  C   UNL     1       6.148   3.861  14.545  0.00  0.00    +0.000 C 
ATOM     23  C   UNL     1       6.078   3.717  13.220  0.00  0.00    +0.000 C 
ENDBRANCH  21  22
ENDBRANCH  17  21
ENDBRANCH  16  17
ENDBRANCH   1  16
TORSDOF 6
ENDMDL
MODEL 3
REMARK VINA RESULT:      -7.1      2.132      4.025
REMARK  Name = 
REMARK  6 active torsions:
REMARK  status: ('A' for Active; 'I' for Inactive)
REMARK    1  A    between atoms: C_2  and  C_3
REMARK    2  A    between atoms: C_3  and  N_4
REMARK    3  A    between atoms: N_4  and  C_5
REMARK    4  A    between atoms: N_4  and  C_8
REMARK    5  A    between atoms: C_5  and  C_6
REMARK    6  A    between atoms: C_8  and  C_9
REMARK                            x       y       z     vdW  Elec       q    Type
REMARK                         _______ _______ _______ _____ _____    ______ ____
ROOT
ATOM      1  C   UNL     1       3.663   6.446  17.410  0.00  0.00    +0.000 A 
ATOM      2  C   UNL     1       3.507   7.790  17.381  0.00  0.00    +0.000 A 
ATOM      3  C   UNL     1       2.616   8.539  18.256  0.00  0.00    +0.000 A 
ATOM      4  O   UNL     1       2.484   9.760  18.128  0.00  0.00    +0.000 OA
ATOM      5  O   UNL     1       2.000   7.822  19.246  0.00  0.00    +0.000 OA
ATOM      6  C   UNL     1       2.136   6.417  19.333  0.00  0.00    +0.000 A 
ATOM      7  C   UNL     1       1.469   5.856  20.415  0.00  0.00    +0.000 A 
ATOM      8  C   UNL     1       1.546   4.488  20.625  0.00  0.00    +0.000 A 
ATOM      9  C   UNL     1       2.249   3.674  19.734  0.00  0.00    +0.000 A 
ATOM     10  C   UNL     1       2.330   2.294  20.011  0.00  0.00    +0.000 A 
ATOM     11  C   UNL     1       3.029   1.427  19.175  0.00  0.00    +0.000 A 
ATOM     12  C   UNL     1       3.577   1.917  18.008  0.00  0.00    +0.000 A 
ATOM     13  C   UNL     1       3.452   3.277  17.703  0.00  0.00    +0.000 A 
ATOM     14  C   UNL     1       2.876   4.227  18.583  0.00  0.00    +0.000 A 
ATOM     15  C   UNL     1       2.882   5.661  18.408  0.00  0.00    +0.000 A 
ENDROOT
BRANCH   1  16
ATOM     16  C   UNL     1       4.744   5.867  16.513  0.00  0.00    +0.000 C 
BRANCH  16  17
ATOM     17  N   UNL     1       5.866   5.231  17.236  0.00  0.00    +0.000 NA
BRANCH  17  18
ATOM     18  C   UNL     1       6.688   4.425  16.321  0.00  0.00    +0.000 C 
BRANCH  18  20
ATOM     19  C   UNL     1       6.439   4.117  13.837  0.00  0.00    +0.000 C 
ATOM     20  C   UNL     1       5.976   3.968  15.084  0.00  0.00    +0.000 C 
ENDBRANCH  18  20
ENDBRANCH  17  18
BRANCH  17  21
ATOM     21  C   UNL     1       6.624   6.215  18.027  0.00  0.00    +0.000 C 
BRANCH  21  22
ATOM     22  C   UNL     1       7.316   7.287  17.236  0.00  0.00    +0.000 C 
ATOM     23  C   UNL     1       7.944   8.339  17.764  0.00  0.00    +0.000 C 
ENDBRANCH  21  22
ENDBRANCH  17  21
ENDBRANCH  16  17
ENDBRANCH   1  16
TORSDOF 6
ENDMDL
MODEL 4
REMARK VINA RESULT:      -6.9      2.120      4.654
REMARK  Name = 
REMARK  6 active torsions:
REMARK  status: ('A' for Active; 'I' for Inactive)
REMARK    1  A    between atoms: C_2  and  C_3
REMARK    2  A    between atoms: C_3  and  N_4
REMARK    3  A    between atoms: N_4  and  C_5
REMARK    4  A    between atoms: N_4  and  C_8
REMARK    5  A    between atoms: C_5  and  C_6
REMARK    6  A    between atoms: C_8  and  C_9
REMARK                            x       y       z     vdW  Elec       q    Type
REMARK                         _______ _______ _______ _____ _____    ______ ____
ROOT
ATOM      1  C   UNL     1       3.684   6.192  17.304  0.00  0.00    +0.000 A 
ATOM      2  C   UNL     1       3.578   7.529  17.121  0.00  0.00    +0.000 A 
ATOM      3  C   UNL     1       2.794   8.420  17.965  0.00  0.00    +0.000 A 
ATOM      4  O   UNL     1       2.698   9.621  17.699  0.00  0.00    +0.000 OA
ATOM      5  O   UNL     1       2.237   7.857  19.082  0.00  0.00    +0.000 OA
ATOM      6  C   UNL     1       2.326   6.468  19.332  0.00  0.00    +0.000 A 
ATOM      7  C   UNL     1       1.733   6.074  20.524  0.00  0.00    +0.000 A 
ATOM      8  C   UNL     1       1.774   4.738  20.894  0.00  0.00    +0.000 A 
ATOM      9  C   UNL     1       2.368   3.790  20.057  0.00  0.00    +0.000 A 
ATOM     10  C   UNL     1       2.420   2.451  20.496  0.00  0.00    +0.000 A 
ATOM     11  C   UNL     1       3.012   1.458  19.720  0.00  0.00    +0.000 A 
ATOM     12  C   UNL     1       3.477   1.777  18.462  0.00  0.00    +0.000 A 
ATOM     13  C   UNL     1       3.378   3.095  18.002  0.00  0.00    +0.000 A 
ATOM     14  C   UNL     1       2.915   4.170  18.801  0.00  0.00    +0.000 A 
ATOM     15  C   UNL     1       2.962   5.571  18.450  0.00  0.00    +0.000 A 
ENDROOT
BRANCH   1  16
ATOM     16  C   UNL     1       4.662   5.459  16.402  0.00  0.00    +0.000 C 
BRANCH  16  17
ATOM     17  N   UNL     1       6.061   5.927  16.503  0.00  0.00    +0.000 NA
BRANCH  17  18
ATOM     18  C   UNL     1       6.539   5.855  17.893  0.00  0.00    +0.000 C 
BRANCH  18  20
ATOM     19  C   UNL     1       7.808   8.016  17.681  0.00  0.00    +0.000 C 
ATOM     20  C   UNL     1       7.657   6.799  18.215  0.00  0.00    +0.000 C 
ENDBRANCH  18  20
ENDBRANCH  17  18
BRANCH  17  21
ATOM     21  C   UNL     1       6.929   5.248  15.526  0.00  0.00    +0.000 C 
BRANCH  21  22
ATOM     22  C   UNL     1       6.331   4.046  14.855  0.00  0.00    +0.000 C 
ATOM     23  C   UNL     1       6.252   3.870  13.534  0.00  0.00    +0.000 C 
ENDBRANCH  21  22
ENDBRANCH  17  21
ENDBRANCH  16  17
ENDBRANCH   1  16
TORSDOF 6
ENDMDL
MODEL 5
REMARK VINA RESULT:      -6.6      2.243      5.818
REMARK  Name = 
REMARK  6 active torsions:
REMARK  status: ('A' for Active; 'I' for Inactive)
REMARK    1  A    between atoms: C_2  and  C_3
REMARK    2  A    between atoms: C_3  and  N_4
REMARK    3  A    between atoms: N_4  and  C_5
REMARK    4  A    between atoms: N_4  and  C_8
REMARK    5  A    between atoms: C_5  and  C_6
REMARK    6  A    between atoms: C_8  and  C_9
REMARK                            x       y       z     vdW  Elec       q    Type
REMARK                         _______ _______ _______ _____ _____    ______ ____
ROOT
ATOM      1  C   UNL     1       2.604   5.348  19.799  0.00  0.00    +0.000 A 
ATOM      2  C   UNL     1       1.898   4.756  20.791  0.00  0.00    +0.000 A 
ATOM      3  C   UNL     1       1.618   3.330  20.868  0.00  0.00    +0.000 A 
ATOM      4  O   UNL     1       0.915   2.873  21.774  0.00  0.00    +0.000 OA
ATOM      5  O   UNL     1       2.224   2.544  19.926  0.00  0.00    +0.000 OA
ATOM      6  C   UNL     1       2.983   3.106  18.873  0.00  0.00    +0.000 A 
ATOM      7  C   UNL     1       3.552   2.162  18.027  0.00  0.00    +0.000 A 
ATOM      8  C   UNL     1       4.341   2.587  16.969  0.00  0.00    +0.000 A 
ATOM      9  C   UNL     1       4.527   3.950  16.728  0.00  0.00    +0.000 A 
ATOM     10  C   UNL     1       5.369   4.332  15.663  0.00  0.00    +0.000 A 
ATOM     11  C   UNL     1       5.612   5.673  15.377  0.00  0.00    +0.000 A 
ATOM     12  C   UNL     1       4.947   6.643  16.096  0.00  0.00    +0.000 A 
ATOM     13  C   UNL     1       4.069   6.267  17.118  0.00  0.00    +0.000 A 
ATOM     14  C   UNL     1       3.892   4.927  17.544  0.00  0.00    +0.000 A 
ATOM     15  C   UNL     1       3.147   4.495  18.704  0.00  0.00    +0.000 A 
ENDROOT
BRANCH   1  16
ATOM     16  C   UNL     1       2.909   6.827  19.971  0.00  0.00    +0.000 C 
BRANCH  16  17
ATOM     17  N   UNL     1       1.748   7.721  19.775  0.00  0.00    +0.000 NA
BRANCH  17  18
ATOM     18  C   UNL     1       1.482   8.508  20.988  0.00  0.00    +0.000 C 
BRANCH  18  20
ATOM     19  C   UNL     1      -0.456   9.111  22.475  0.00  0.00    +0.000 C 
ATOM     20  C   UNL     1       0.117   8.305  21.574  0.00  0.00    +0.000 C 
ENDBRANCH  18  20
ENDBRANCH  17  18
BRANCH  17  21
ATOM     21  C   UNL     1       1.887   8.524  18.548  0.00  0.00    +0.000 C 
BRANCH  21  22
ATOM     22  C   UNL     1       1.150   9.831  18.543  0.00  0.00    +0.000 C 
ATOM     23  C   UNL     1      -0.116   9.992  18.151  0.00  0.00    +0.000 C 
ENDBRANCH  21  22
ENDBRANCH  17  21
ENDBRANCH  16  17
ENDBRANCH   1  16
TORSDOF 6
ENDMDL
MODEL 6
REMARK VINA RESULT:      -6.5      2.428      4.461
REMARK  Name = 
REMARK  6 active torsions:
REMARK  status: ('A' for Active; 'I' for Inactive)
REMARK    1  A    between atoms: C_2  and  C_3
REMARK    2  A    between atoms: C_3  and  N_4
REMARK    3  A    between atoms: N_4  and  C_5
REMARK    4  A    between atoms: N_4  and  C_8
REMARK    5  A    between atoms: C_5  and  C_6
REMARK    6  A    between atoms: C_8  and  C_9
REMARK                            x       y       z     vdW  Elec       q    Type
REMARK                         _______ _______ _______ _____ _____    ______ ____
ROOT
ATOM      1  C   UNL     1       3.465   7.157  17.745  0.00  0.00    +0.000 A 
ATOM      2  C   UNL     1       3.029   8.438  17.736  0.00  0.00    +0.000 A 
ATOM      3  C   UNL     1       2.039   8.982  18.655  0.00  0.00    +0.000 A 
ATOM      4  O   UNL     1       1.648  10.147  18.545  0.00  0.00    +0.000 OA
ATOM      5  O   UNL     1       1.631   8.150  19.662  0.00  0.00    +0.000 OA
ATOM      6  C   UNL     1       2.063   6.805  19.730  0.00  0.00    +0.000 A 
ATOM      7  C   UNL     1       1.577   6.115  20.833  0.00  0.00    +0.000 A 
ATOM      8  C   UNL     1       1.948   4.793  21.026  0.00  0.00    +0.000 A 
ATOM      9  C   UNL     1       2.768   4.146  20.098  0.00  0.00    +0.000 A 
ATOM     10  C   UNL     1       3.150   2.814  20.358  0.00  0.00    +0.000 A 
ATOM     11  C   UNL     1       3.979   2.115  19.484  0.00  0.00    +0.000 A 
ATOM     12  C   UNL     1       4.360   2.711  18.300  0.00  0.00    +0.000 A 
ATOM     13  C   UNL     1       3.939   4.014  18.014  0.00  0.00    +0.000 A 
ATOM     14  C   UNL     1       3.214   4.820  18.927  0.00  0.00    +0.000 A 
ATOM     15  C   UNL     1       2.911   6.224  18.766  0.00  0.00    +0.000 A 
ENDROOT
BRANCH   1  16
ATOM     16  C   UNL     1       4.604   6.820  16.797  0.00  0.00    +0.000 C 
BRANCH  16  17
ATOM     17  N   UNL     1       5.950   6.889  17.406  0.00  0.00    +0.000 NA
BRANCH  17  18
ATOM     18  C   UNL     1       6.804   5.796  16.916  0.00  0.00    +0.000 C 
BRANCH  18  20
ATOM     19  C   UNL     1       7.258   5.162  19.307  0.00  0.00    +0.000 C 
ATOM     20  C   UNL     1       7.440   4.973  17.995  0.00  0.00    +0.000 C 
ENDBRANCH  18  20
ENDBRANCH  17  18
BRANCH  17  21
ATOM     21  C   UNL     1       6.539   8.231  17.260  0.00  0.00    +0.000 C 
BRANCH  21  22
ATOM     22  C   UNL     1       7.979   8.354  17.665  0.00  0.00    +0.000 C 
ATOM     23  C   UNL     1       8.502   9.392  18.320  0.00  0.00    +0.000 C 
ENDBRANCH  21  22
ENDBRANCH  17  21
ENDBRANCH  16  17
ENDBRANCH   1  16
TORSDOF 6
ENDMDL
MODEL 7
REMARK VINA RESULT:      -6.2      2.591      4.770
REMARK  Name = 
REMARK  6 active torsions:
REMARK  status: ('A' for Active; 'I' for Inactive)
REMARK    1  A    between atoms: C_2  and  C_3
REMARK    2  A    between atoms: C_3  and  N_4
REMARK    3  A    between atoms: N_4  and  C_5
REMARK    4  A    between atoms: N_4  and  C_8
REMARK    5  A    between atoms: C_5  and  C_6
REMARK    6  A    between atoms: C_8  and  C_9
REMARK                            x       y       z     vdW  Elec       q    Type
REMARK                         _______ _______ _______ _____ _____    ______ ____
ROOT
ATOM      1  C   UNL     1       4.736   4.997  18.207  0.00  0.00    +0.000 A 
ATOM      2  C   UNL     1       5.611   4.775  17.199  0.00  0.00    +0.000 A 
ATOM      3  C   UNL     1       5.760   5.629  16.028  0.00  0.00    +0.000 A 
ATOM      4  O   UNL     1       6.539   5.327  15.121  0.00  0.00    +0.000 OA
ATOM      5  O   UNL     1       5.038   6.792  16.036  0.00  0.00    +0.000 OA
ATOM      6  C   UNL     1       4.118   7.084  17.069  0.00  0.00    +0.000 A 
ATOM      7  C   UNL     1       3.497   8.319  16.934  0.00  0.00    +0.000 A 
ATOM      8  C   UNL     1       2.590   8.732  17.898  0.00  0.00    +0.000 A 
ATOM      9  C   UNL     1       2.269   7.898  18.971  0.00  0.00    +0.000 A 
ATOM     10  C   UNL     1       1.371   8.378  19.946  0.00  0.00    +0.000 A 
ATOM     11  C   UNL     1       1.020   7.606  21.050  0.00  0.00    +0.000 A 
ATOM     12  C   UNL     1       1.494   6.315  21.144  0.00  0.00    +0.000 A 
ATOM     13  C   UNL     1       2.343   5.816  20.151  0.00  0.00    +0.000 A 
ATOM     14  C   UNL     1       2.844   6.601  19.082  0.00  0.00    +0.000 A 
ATOM     15  C   UNL     1       3.860   6.201  18.137  0.00  0.00    +0.000 A 
ENDROOT
BRANCH   1  16
ATOM     16  C   UNL     1       4.832   4.070  19.407  0.00  0.00    +0.000 C 
BRANCH  16  17
ATOM     17  N   UNL     1       3.709   3.118  19.539  0.00  0.00    +0.000 NA
BRANCH  17  18
ATOM     18  C   UNL     1       3.616   2.249  18.356  0.00  0.00    +0.000 C 
BRANCH  18  20
ATOM     19  C   UNL     1       1.481   3.386  17.666  0.00  0.00    +0.000 C 
ATOM     20  C   UNL     1       2.315   2.341  17.618  0.00  0.00    +0.000 C 
ENDBRANCH  18  20
ENDBRANCH  17  18
BRANCH  17  21
ATOM     21  C   UNL     1       3.762   2.395  20.821  0.00  0.00    +0.000 C 
BRANCH  21  22
ATOM     22  C   UNL     1       2.570   2.573  21.715  0.00  0.00    +0.000 C 
ATOM     23  C   UNL     1       1.306   2.659  21.293  0.00  0.00    +0.000 C 
ENDBRANCH  21  22
ENDBRANCH  17  21
ENDBRANCH  16  17
ENDBRANCH   1  16
TORSDOF 6
ENDMDL
MODEL 8
REMARK VINA RESULT:      -6.2      2.122      4.081
REMARK  Name = 
REMARK  6 active torsions:
REMARK  status: ('A' for Active; 'I' for Inactive)
REMARK    1  A    between atoms: C_2  and  C_3
REMARK    2  A    between atoms: C_3  and  N_4
REMARK    3  A    between atoms: N_4  and  C_5
REMARK    4  A    between atoms: N_4  and  C_8
REMARK    5  A    between atoms: C_5  and  C_6
REMARK    6  A    between atoms: C_8  and  C_9
REMARK                            x       y       z     vdW  Elec       q    Type
REMARK                         _______ _______ _______ _____ _____    ______ ____
ROOT
ATOM      1  C   UNL     1       2.861   6.860  17.998  0.00  0.00    +0.000 A 
ATOM      2  C   UNL     1       2.511   8.097  18.419  0.00  0.00    +0.000 A 
ATOM      3  C   UNL     1       1.805   8.380  19.661  0.00  0.00    +0.000 A 
ATOM      4  O   UNL     1       1.467   9.531  19.948  0.00  0.00    +0.000 OA
ATOM      5  O   UNL     1       1.604   7.313  20.495  0.00  0.00    +0.000 OA
ATOM      6  C   UNL     1       1.961   5.999  20.114  0.00  0.00    +0.000 A 
ATOM      7  C   UNL     1       1.715   5.046  21.093  0.00  0.00    +0.000 A 
ATOM      8  C   UNL     1       2.045   3.721  20.849  0.00  0.00    +0.000 A 
ATOM      9  C   UNL     1       2.578   3.340  19.615  0.00  0.00    +0.000 A 
ATOM     10  C   UNL     1       2.934   1.989  19.429  0.00  0.00    +0.000 A 
ATOM     11  C   UNL     1       3.486   1.544  18.231  0.00  0.00    +0.000 A 
ATOM     12  C   UNL     1       3.604   2.427  17.178  0.00  0.00    +0.000 A 
ATOM     13  C   UNL     1       3.203   3.757  17.342  0.00  0.00    +0.000 A 
ATOM     14  C   UNL     1       2.768   4.296  18.579  0.00  0.00    +0.000 A 
ATOM     15  C   UNL     1       2.517   5.692  18.856  0.00  0.00    +0.000 A 
ENDROOT
BRANCH   1  16
ATOM     16  C   UNL     1       3.717   6.786  16.744  0.00  0.00    +0.000 C 
BRANCH  16  17
ATOM     17  N   UNL     1       5.043   6.162  16.941  0.00  0.00    +0.000 NA
BRANCH  17  18
ATOM     18  C   UNL     1       5.684   5.874  15.649  0.00  0.00    +0.000 C 
BRANCH  18  20
ATOM     19  C   UNL     1       6.297   3.902  14.214  0.00  0.00    +0.000 C 
ATOM     20  C   UNL     1       5.947   4.421  15.396  0.00  0.00    +0.000 C 
ENDBRANCH  18  20
ENDBRANCH  17  18
BRANCH  17  21
ATOM     21  C   UNL     1       5.874   6.945  17.871  0.00  0.00    +0.000 C 
BRANCH  21  22
ATOM     22  C   UNL     1       7.267   7.244  17.400  0.00  0.00    +0.000 C 
ATOM     23  C   UNL     1       7.967   8.332  17.727  0.00  0.00    +0.000 C 
ENDBRANCH  21  22
ENDBRANCH  17  21
ENDBRANCH  16  17
ENDBRANCH   1  16
TORSDOF 6
ENDMDL
MODEL 9
REMARK VINA RESULT:      -6.1      1.282      1.556
REMARK  Name = 
REMARK  6 active torsions:
REMARK  status: ('A' for Active; 'I' for Inactive)
REMARK    1  A    between atoms: C_2  and  C_3
REMARK    2  A    between atoms: C_3  and  N_4
REMARK    3  A    between atoms: N_4  and  C_5
REMARK    4  A    between atoms: N_4  and  C_8
REMARK    5  A    between atoms: C_5  and  C_6
REMARK    6  A    between atoms: C_8  and  C_9
REMARK                            x       y       z     vdW  Elec       q    Type
REMARK                         _______ _______ _______ _____ _____    ______ ____
ROOT
ATOM      1  C   UNL     1       3.606   4.196  19.229  0.00  0.00    +0.000 A 
ATOM      2  C   UNL     1       3.580   3.096  20.018  0.00  0.00    +0.000 A 
ATOM      3  C   UNL     1       2.897   3.014  21.301  0.00  0.00    +0.000 A 
ATOM      4  O   UNL     1       2.969   1.994  21.991  0.00  0.00    +0.000 OA
ATOM      5  O   UNL     1       2.136   4.098  21.649  0.00  0.00    +0.000 OA
ATOM      6  C   UNL     1       2.114   5.270  20.858  0.00  0.00    +0.000 A 
ATOM      7  C   UNL     1       1.267   6.257  21.343  0.00  0.00    +0.000 A 
ATOM      8  C   UNL     1       1.139   7.447  20.642  0.00  0.00    +0.000 A 
ATOM      9  C   UNL     1       1.888   7.670  19.484  0.00  0.00    +0.000 A 
ATOM     10  C   UNL     1       1.693   8.879  18.785  0.00  0.00    +0.000 A 
ATOM     11  C   UNL     1       2.394   9.159  17.615  0.00  0.00    +0.000 A 
ATOM     12  C   UNL     1       3.358   8.273  17.181  0.00  0.00    +0.000 A 
ATOM     13  C   UNL     1       3.591   7.096  17.902  0.00  0.00    +0.000 A 
ATOM     14  C   UNL     1       2.813   6.695  19.017  0.00  0.00    +0.000 A 
ATOM     15  C   UNL     1       2.883   5.416  19.686  0.00  0.00    +0.000 A 
ENDROOT
BRANCH   1  16
ATOM     16  C   UNL     1       4.253   4.038  17.864  0.00  0.00    +0.000 C 
BRANCH  16  17
ATOM     17  N   UNL     1       5.732   4.040  17.881  0.00  0.00    +0.000 NA
BRANCH  17  18
ATOM     18  C   UNL     1       6.272   4.062  16.513  0.00  0.00    +0.000 C 
BRANCH  18  20
ATOM     19  C   UNL     1       5.498   5.954  15.048  0.00  0.00    +0.000 C 
ATOM     20  C   UNL     1       5.372   4.701  15.500  0.00  0.00    +0.000 C 
ENDBRANCH  18  20
ENDBRANCH  17  18
BRANCH  17  21
ATOM     21  C   UNL     1       6.259   5.098  18.759  0.00  0.00    +0.000 C 
BRANCH  21  22
ATOM     22  C   UNL     1       7.557   5.713  18.324  0.00  0.00    +0.000 C 
ATOM     23  C   UNL     1       7.762   7.021  18.153  0.00  0.00    +0.000 C 
ENDBRANCH  21  22
ENDBRANCH  17  21
ENDBRANCH  16  17
ENDBRANCH   1  16
TORSDOF 6
ENDMDL
