MODEL 1
REMARK VINA RESULT:      -5.6      0.000      0.000
REMARK  Name = 
REMARK  13 active torsions:
REMARK  status: ('A' for Active; 'I' for Inactive)
REMARK    1  A    between atoms: C_1  and  C_2
REMARK    2  A    between atoms: C_2  and  C_3
REMARK    3  A    between atoms: C_3  and  C_4
REMARK    4  A    between atoms: C_4  and  C_5
REMARK    5  A    between atoms: C_5  and  C_6
REMARK    6  A    between atoms: C_6  and  C_7
REMARK    7  A    between atoms: C_7  and  C_8
REMARK    8  A    between atoms: C_8  and  C_9
REMARK    9  A    between atoms: C_9  and  C_10
REMARK   10  A    between atoms: C_10  and  C_11
REMARK   11  A    between atoms: C_11  and  C_12
REMARK   12  A    between atoms: C_12  and  N_13
REMARK   13  A    between atoms: N_16  and  C_17
REMARK                            x       y       z     vdW  Elec       q    Type
REMARK                         _______ _______ _______ _____ _____    ______ ____
ROOT
ATOM      1  C   UNL     1       3.564   7.274  17.595  0.00  0.00    +0.000 C 
ENDROOT
BRANCH   1   2
ATOM      2  C   UNL     1       2.435   6.719  18.449  0.00  0.00    +0.000 C 
BRANCH   2   3
ATOM      3  C   UNL     1       2.992   5.927  19.625  0.00  0.00    +0.000 C 
BRANCH   3   4
ATOM      4  C   UNL     1       1.857   5.395  20.488  0.00  0.00    +0.000 C 
BRANCH   4   5
ATOM      5  C   UNL     1       2.244   4.061  21.112  0.00  0.00    +0.000 C 
BRANCH   5   6
ATOM      6  C   UNL     1       1.122   3.048  20.931  0.00  0.00    +0.000 C 
BRANCH   6   7
ATOM      7  C   UNL     1       0.815   2.852  19.452  0.00  0.00    +0.000 C 
BRANCH   7   8
ATOM      8  C   UNL     1       1.970   2.142  18.758  0.00  0.00    +0.000 C 
BRANCH   8  10
ATOM      9  C   UNL     1       3.951   3.000  17.491  0.00  0.00    +0.000 C 
ATOM     10  C   UNL     1       2.436   2.928  17.538  0.00  0.00    +0.000 C 
ENDBRANCH   8  10
ENDBRANCH   7   8
ENDBRANCH   6   7
ENDBRANCH   5   6
ENDBRANCH   4   5
ENDBRANCH   3   4
ENDBRANCH   2   3
ENDBRANCH   1   2
BRANCH   1  11
ATOM     11  C   UNL     1       4.835   6.446  17.768  0.00  0.00    +0.000 C 
BRANCH  11  12
ATOM     12  C   UNL     1       5.855   6.838  16.710  0.00  0.00    +0.000 C 
BRANCH  12  13
ATOM     13  N   UNL     1       5.789   5.888  15.606  0.00  0.00    +0.000 NA
ATOM     14  C   UNL     1       6.634   4.917  15.619  0.00  0.00    +0.000 C 
ATOM     15  N   UNL     1       7.578   4.685  16.557  0.00  0.00    +0.000 N 
ATOM     16  N   UNL     1       6.679   3.966  14.652  0.00  0.00    +0.000 N 
ATOM     17  C   UNL     1       5.809   3.907  13.504  0.00  0.00    +0.000 C 
ATOM     18  H   UNL     1       7.681   5.305  17.343  0.00  0.00    +0.000 HD
ATOM     19  H   UNL     1       8.211   3.906  16.500  0.00  0.00    +0.000 HD
ATOM     20  H   UNL     1       7.360   3.229  14.722  0.00  0.00    +0.000 HD
ENDBRANCH  12  13
ENDBRANCH  11  12
ENDBRANCH   1  11
TORSDOF 11
ENDMDL
MODEL 2
REMARK VINA RESULT:      -5.5      3.005      6.201
REMARK  Name = 
REMARK  13 active torsions:
REMARK  status: ('A' for Active; 'I' for Inactive)
REMARK    1  A    between atoms: C_1  and  C_2
REMARK    2  A    between atoms: C_2  and  C_3
REMARK    3  A    between atoms: C_3  and  C_4
REMARK    4  A    between atoms: C_4  and  C_5
REMARK    5  A    between atoms: C_5  and  C_6
REMARK    6  A    between atoms: C_6  and  C_7
REMARK    7  A    between atoms: C_7  and  C_8
REMARK    8  A    between atoms: C_8  and  C_9
REMARK    9  A    between atoms: C_9  and  C_10
REMARK   10  A    between atoms: C_10  and  C_11
REMARK   11  A    between atoms: C_11  and  C_12
REMARK   12  A    between atoms: C_12  and  N_13
REMARK   13  A    between atoms: N_16  and  C_17
REMARK                            x       y       z     vdW  Elec       q    Type
REMARK                         _______ _______ _______ _____ _____    ______ ____
ROOT
ATOM      1  C   UNL     1       5.529   5.861  18.115  0.00  0.00    +0.000 C 
ENDROOT
BRANCH   1   2
ATOM      2  C   UNL     1       4.619   5.743  16.901  0.00  0.00    +0.000 C 
BRANCH   2   3
ATOM      3  C   UNL     1       5.346   6.194  15.641  0.00  0.00    +0.000 C 
BRANCH   3   4
ATOM      4  C   UNL     1       6.510   5.260  15.340  0.00  0.00    +0.000 C 
BRANCH   4   5
ATOM      5  C   UNL     1       5.998   3.895  14.904  0.00  0.00    +0.000 C 
BRANCH   5   6
ATOM      6  C   UNL     1       6.132   3.737  13.396  0.00  0.00    +0.000 C 
BRANCH   6   7
ATOM      7  C   UNL     1       4.762   3.783  12.732  0.00  0.00    +0.000 C 
BRANCH   7   8
ATOM      8  C   UNL     1       4.786   3.028  11.410  0.00  0.00    +0.000 C 
BRANCH   8  10
ATOM      9  C   UNL     1       3.164   4.171   9.883  0.00  0.00    +0.000 C 
ATOM     10  C   UNL     1       3.394   2.976  10.790  0.00  0.00    +0.000 C 
ENDBRANCH   8  10
ENDBRANCH   7   8
ENDBRANCH   6   7
ENDBRANCH   5   6
ENDBRANCH   4   5
ENDBRANCH   3   4
ENDBRANCH   2   3
ENDBRANCH   1   2
BRANCH   1  11
ATOM     11  C   UNL     1       5.078   4.918  19.227  0.00  0.00    +0.000 C 
BRANCH  11  12
ATOM     12  C   UNL     1       4.867   3.520  18.666  0.00  0.00    +0.000 C 
BRANCH  12  13
ATOM     13  N   UNL     1       3.450   3.185  18.729  0.00  0.00    +0.000 NA
ATOM     14  C   UNL     1       3.132   1.953  18.544  0.00  0.00    +0.000 C 
ATOM     15  N   UNL     1       3.979   0.930  18.299  0.00  0.00    +0.000 N 
ATOM     16  N   UNL     1       1.849   1.510  18.578  0.00  0.00    +0.000 N 
ATOM     17  C   UNL     1       0.692   2.335  18.821  0.00  0.00    +0.000 C 
ATOM     18  H   UNL     1       4.971   1.093  18.237  0.00  0.00    +0.000 HD
ATOM     19  H   UNL     1       3.658  -0.011  18.158  0.00  0.00    +0.000 HD
ATOM     20  H   UNL     1       1.664   0.532  18.430  0.00  0.00    +0.000 HD
ENDBRANCH  12  13
ENDBRANCH  11  12
ENDBRANCH   1  11
TORSDOF 11
ENDMDL
MODEL 3
REMARK VINA RESULT:      -5.4      1.299      2.945
REMARK  Name = 
REMARK  13 active torsions:
REMARK  status: ('A' for Active; 'I' for Inactive)
REMARK    1  A    between atoms: C_1  and  C_2
REMARK    2  A    between atoms: C_2  and  C_3
REMARK    3  A    between atoms: C_3  and  C_4
REMARK    4  A    between atoms: C_4  and  C_5
REMARK    5  A    between atoms: C_5  and  C_6
REMARK    6  A    between atoms: C_6  and  C_7
REMARK    7  A    between atoms: C_7  and  C_8
REMARK    8  A    between atoms: C_8  and  C_9
REMARK    9  A    between atoms: C_9  and  C_10
REMARK   10  A    between atoms: C_10  and  C_11
REMARK   11  A    between atoms: C_11  and  C_12
REMARK   12  A    between atoms: C_12  and  N_13
REMARK   13  A    between atoms: N_16  and  C_17
REMARK                            x       y       z     vdW  Elec       q    Type
REMARK                         _______ _______ _______ _____ _____    ______ ____
ROOT
ATOM      1  C   UNL     1       4.503   3.694  18.249  0.00  0.00    +0.000 C 
ENDROOT
BRANCH   1   2
ATOM      2  C   UNL     1       3.205   4.231  17.665  0.00  0.00    +0.000 C 
BRANCH   2   3
ATOM      3  C   UNL     1       2.337   3.090  17.150  0.00  0.00    +0.000 C 
BRANCH   3   4
ATOM      4  C   UNL     1       2.095   2.071  18.253  0.00  0.00    +0.000 C 
BRANCH   4   5
ATOM      5  C   UNL     1       1.136   2.631  19.294  0.00  0.00    +0.000 C 
BRANCH   5   6
ATOM      6  C   UNL     1       1.723   2.479  20.690  0.00  0.00    +0.000 C 
BRANCH   6   7
ATOM      7  C   UNL     1       1.873   3.840  21.356  0.00  0.00    +0.000 C 
BRANCH   7   8
ATOM      8  C   UNL     1       1.278   4.932  20.476  0.00  0.00    +0.000 C 
BRANCH   8  10
ATOM      9  C   UNL     1       2.259   7.034  19.534  0.00  0.00    +0.000 C 
ATOM     10  C   UNL     1       1.892   6.287  20.804  0.00  0.00    +0.000 C 
ENDBRANCH   8  10
ENDBRANCH   7   8
ENDBRANCH   6   7
ENDBRANCH   5   6
ENDBRANCH   4   5
ENDBRANCH   3   4
ENDBRANCH   2   3
ENDBRANCH   1   2
BRANCH   1  11
ATOM     11  C   UNL     1       5.257   4.790  18.996  0.00  0.00    +0.000 C 
BRANCH  11  12
ATOM     12  C   UNL     1       6.674   4.903  18.455  0.00  0.00    +0.000 C 
BRANCH  12  13
ATOM     13  N   UNL     1       6.664   4.628  17.023  0.00  0.00    +0.000 NA
ATOM     14  C   UNL     1       7.102   5.555  16.247  0.00  0.00    +0.000 C 
ATOM     15  N   UNL     1       7.577   6.762  16.623  0.00  0.00    +0.000 N 
ATOM     16  N   UNL     1       7.147   5.426  14.897  0.00  0.00    +0.000 N 
ATOM     17  C   UNL     1       6.723   4.262  14.159  0.00  0.00    +0.000 C 
ATOM     18  H   UNL     1       7.607   7.020  17.596  0.00  0.00    +0.000 HD
ATOM     19  H   UNL     1       7.899   7.444  15.958  0.00  0.00    +0.000 HD
ATOM     20  H   UNL     1       7.506   6.185  14.343  0.00  0.00    +0.000 HD
ENDBRANCH  12  13
ENDBRANCH  11  12
ENDBRANCH   1  11
TORSDOF 11
ENDMDL
MODEL 4
REMARK VINA RESULT:      -5.4      1.108      1.192
REMARK  Name = 
REMARK  13 active torsions:
REMARK  status: ('A' for Active; 'I' for Inactive)
REMARK    1  A    between atoms: C_1  and  C_2
REMARK    2  A    between atoms: C_2  and  C_3
REMARK    3  A    between atoms: C_3  and  C_4
REMARK    4  A    between atoms: C_4  and  C_5
REMARK    5  A    between atoms: C_5  and  C_6
REMARK    6  A    between atoms: C_6  and  C_7
REMARK    7  A    between atoms: C_7  and  C_8
REMARK    8  A    between atoms: C_8  and  C_9
REMARK    9  A    between atoms: C_9  and  C_10
REMARK   10  A    between atoms: C_10  and  C_11
REMARK   11  A    between atoms: C_11  and  C_12
REMARK   12  A    between atoms: C_12  and  N_13
REMARK   13  A    between atoms: N_16  and  C_17
REMARK                            x       y       z     vdW  Elec       q    Type
REMARK                         _______ _______ _______ _____ _____    ______ ____
ROOT
ATOM      1  C   UNL     1       3.839   6.764  17.671  0.00  0.00    +0.000 C 
ENDROOT
BRANCH   1   2
ATOM      2  C   UNL     1       2.532   6.361  18.336  0.00  0.00    +0.000 C 
BRANCH   2   3
ATOM      3  C   UNL     1       2.311   7.162  19.612  0.00  0.00    +0.000 C 
BRANCH   3   4
ATOM      4  C   UNL     1       1.725   6.273  20.700  0.00  0.00    +0.000 C 
BRANCH   4   5
ATOM      5  C   UNL     1       2.223   4.844  20.544  0.00  0.00    +0.000 C 
BRANCH   5   6
ATOM      6  C   UNL     1       1.057   3.868  20.608  0.00  0.00    +0.000 C 
BRANCH   6   7
ATOM      7  C   UNL     1       1.472   2.505  20.070  0.00  0.00    +0.000 C 
BRANCH   7   8
ATOM      8  C   UNL     1       1.166   2.404  18.582  0.00  0.00    +0.000 C 
BRANCH   8  10
ATOM      9  C   UNL     1       3.495   1.502  18.410  0.00  0.00    +0.000 C 
ATOM     10  C   UNL     1       2.451   2.395  17.763  0.00  0.00    +0.000 C 
ENDBRANCH   8  10
ENDBRANCH   7   8
ENDBRANCH   6   7
ENDBRANCH   5   6
ENDBRANCH   4   5
ENDBRANCH   3   4
ENDBRANCH   2   3
ENDBRANCH   1   2
BRANCH   1  11
ATOM     11  C   UNL     1       5.032   6.153  18.400  0.00  0.00    +0.000 C 
BRANCH  11  12
ATOM     12  C   UNL     1       5.258   4.728  17.917  0.00  0.00    +0.000 C 
BRANCH  12  13
ATOM     13  N   UNL     1       5.730   4.758  16.538  0.00  0.00    +0.000 NA
ATOM     14  C   UNL     1       6.987   4.566  16.346  0.00  0.00    +0.000 C 
ATOM     15  N   UNL     1       7.920   4.333  17.294  0.00  0.00    +0.000 N 
ATOM     16  N   UNL     1       7.553   4.568  15.112  0.00  0.00    +0.000 N 
ATOM     17  C   UNL     1       6.845   4.780  13.874  0.00  0.00    +0.000 C 
ATOM     18  H   UNL     1       7.663   4.305  18.267  0.00  0.00    +0.000 HD
ATOM     19  H   UNL     1       8.890   4.197  17.071  0.00  0.00    +0.000 HD
ATOM     20  H   UNL     1       8.542   4.406  15.026  0.00  0.00    +0.000 HD
ENDBRANCH  12  13
ENDBRANCH  11  12
ENDBRANCH   1  11
TORSDOF 11
ENDMDL
MODEL 5
REMARK VINA RESULT:      -5.3      1.256      3.012
REMARK  Name = 
REMARK  13 active torsions:
REMARK  status: ('A' for Active; 'I' for Inactive)
REMARK    1  A    between atoms: C_1  and  C_2
REMARK    2  A    between atoms: C_2  and  C_3
REMARK    3  A    between atoms: C_3  and  C_4
REMARK    4  A    between atoms: C_4  and  C_5
REMARK    5  A    between atoms: C_5  and  C_6
REMARK    6  A    between atoms: C_6  and  C_7
REMARK    7  A    between atoms: C_7  and  C_8
REMARK    8  A    between atoms: C_8  and  C_9
REMARK    9  A    between atoms: C_9  and  C_10
REMARK   10  A    between atoms: C_10  and  C_11
REMARK   11  A    between atoms: C_11  and  C_12
REMARK   12  A    between atoms: C_12  and  N_13
REMARK   13  A    between atoms: N_16  and  C_17
REMARK                            x       y       z     vdW  Elec       q    Type
REMARK                         _______ _______ _______ _____ _____    ______ ____
ROOT
ATOM      1  C   UNL     1       4.276   3.071  17.899  0.00  0.00    +0.000 C 
ENDROOT
BRANCH   1   2
ATOM      2  C   UNL     1       2.871   3.642  17.785  0.00  0.00    +0.000 C 
BRANCH   2   3
ATOM      3  C   UNL     1       1.843   2.523  17.698  0.00  0.00    +0.000 C 
BRANCH   3   4
ATOM      4  C   UNL     1       1.534   1.980  19.086  0.00  0.00    +0.000 C 
BRANCH   4   5
ATOM      5  C   UNL     1       0.869   3.050  19.940  0.00  0.00    +0.000 C 
BRANCH   5   6
ATOM      6  C   UNL     1       1.653   3.263  21.227  0.00  0.00    +0.000 C 
BRANCH   6   7
ATOM      7  C   UNL     1       2.259   4.659  21.256  0.00  0.00    +0.000 C 
BRANCH   7   8
ATOM      8  C   UNL     1       1.555   5.567  20.257  0.00  0.00    +0.000 C 
BRANCH   8  10
ATOM      9  C   UNL     1       2.419   6.910  18.329  0.00  0.00    +0.000 C 
ATOM     10  C   UNL     1       2.462   6.716  19.834  0.00  0.00    +0.000 C 
ENDBRANCH   8  10
ENDBRANCH   7   8
ENDBRANCH   6   7
ENDBRANCH   5   6
ENDBRANCH   4   5
ENDBRANCH   3   4
ENDBRANCH   2   3
ENDBRANCH   1   2
BRANCH   1  11
ATOM     11  C   UNL     1       5.017   3.679  19.086  0.00  0.00    +0.000 C 
BRANCH  11  12
ATOM     12  C   UNL     1       5.655   4.998  18.677  0.00  0.00    +0.000 C 
BRANCH  12  13
ATOM     13  N   UNL     1       6.001   4.945  17.261  0.00  0.00    +0.000 NA
ATOM     14  C   UNL     1       7.209   4.614  16.968  0.00  0.00    +0.000 C 
ATOM     15  N   UNL     1       8.194   4.305  17.839  0.00  0.00    +0.000 N 
ATOM     16  N   UNL     1       7.658   4.527  15.690  0.00  0.00    +0.000 N 
ATOM     17  C   UNL     1       6.868   4.784  14.512  0.00  0.00    +0.000 C 
ATOM     18  H   UNL     1       8.024   4.328  18.831  0.00  0.00    +0.000 HD
ATOM     19  H   UNL     1       9.120   4.060  17.536  0.00  0.00    +0.000 HD
ATOM     20  H   UNL     1       8.614   4.258  15.524  0.00  0.00    +0.000 HD
ENDBRANCH  12  13
ENDBRANCH  11  12
ENDBRANCH   1  11
TORSDOF 11
ENDMDL
MODEL 6
REMARK VINA RESULT:      -5.3      1.087      1.632
REMARK  Name = 
REMARK  13 active torsions:
REMARK  status: ('A' for Active; 'I' for Inactive)
REMARK    1  A    between atoms: C_1  and  C_2
REMARK    2  A    between atoms: C_2  and  C_3
REMARK    3  A    between atoms: C_3  and  C_4
REMARK    4  A    between atoms: C_4  and  C_5
REMARK    5  A    between atoms: C_5  and  C_6
REMARK    6  A    between atoms: C_6  and  C_7
REMARK    7  A    between atoms: C_7  and  C_8
REMARK    8  A    between atoms: C_8  and  C_9
REMARK    9  A    between atoms: C_9  and  C_10
REMARK   10  A    between atoms: C_10  and  C_11
REMARK   11  A    between atoms: C_11  and  C_12
REMARK   12  A    between atoms: C_12  and  N_13
REMARK   13  A    between atoms: N_16  and  C_17
REMARK                            x       y       z     vdW  Elec       q    Type
REMARK                         _______ _______ _______ _____ _____    ______ ____
ROOT
ATOM      1  C   UNL     1       4.471   6.112  17.343  0.00  0.00    +0.000 C 
ENDROOT
BRANCH   1   2
ATOM      2  C   UNL     1       5.163   5.528  18.565  0.00  0.00    +0.000 C 
BRANCH   2   3
ATOM      3  C   UNL     1       4.170   5.344  19.705  0.00  0.00    +0.000 C 
BRANCH   3   4
ATOM      4  C   UNL     1       2.970   6.260  19.513  0.00  0.00    +0.000 C 
BRANCH   4   5
ATOM      5  C   UNL     1       1.791   5.774  20.344  0.00  0.00    +0.000 C 
BRANCH   5   6
ATOM      6  C   UNL     1       1.965   4.304  20.698  0.00  0.00    +0.000 C 
BRANCH   6   7
ATOM      7  C   UNL     1       0.943   3.453  19.957  0.00  0.00    +0.000 C 
BRANCH   7   8
ATOM      8  C   UNL     1       1.532   2.091  19.613  0.00  0.00    +0.000 C 
BRANCH   8  10
ATOM      9  C   UNL     1       2.491   2.792  17.410  0.00  0.00    +0.000 C 
ATOM     10  C   UNL     1       2.805   2.243  18.790  0.00  0.00    +0.000 C 
ENDBRANCH   8  10
ENDBRANCH   7   8
ENDBRANCH   6   7
ENDBRANCH   5   6
ENDBRANCH   4   5
ENDBRANCH   3   4
ENDBRANCH   2   3
ENDBRANCH   1   2
BRANCH   1  11
ATOM     11  C   UNL     1       5.490   6.703  16.371  0.00  0.00    +0.000 C 
BRANCH  11  12
ATOM     12  C   UNL     1       6.672   5.757  16.223  0.00  0.00    +0.000 C 
BRANCH  12  13
ATOM     13  N   UNL     1       6.679   5.206  14.873  0.00  0.00    +0.000 NA
ATOM     14  C   UNL     1       6.368   3.964  14.747  0.00  0.00    +0.000 C 
ATOM     15  N   UNL     1       6.030   3.114  15.741  0.00  0.00    +0.000 N 
ATOM     16  N   UNL     1       6.336   3.331  13.547  0.00  0.00    +0.000 N 
ATOM     17  C   UNL     1       6.637   3.942  12.277  0.00  0.00    +0.000 C 
ATOM     18  H   UNL     1       6.010   3.428  16.697  0.00  0.00    +0.000 HD
ATOM     19  H   UNL     1       5.803   2.150  15.569  0.00  0.00    +0.000 HD
ATOM     20  H   UNL     1       6.080   2.358  13.513  0.00  0.00    +0.000 HD
ENDBRANCH  12  13
ENDBRANCH  11  12
ENDBRANCH   1  11
TORSDOF 11
ENDMDL
MODEL 7
REMARK VINA RESULT:      -5.2      1.235      1.876
REMARK  Name = 
REMARK  13 active torsions:
REMARK  status: ('A' for Active; 'I' for Inactive)
REMARK    1  A    between atoms: C_1  and  C_2
REMARK    2  A    between atoms: C_2  and  C_3
REMARK    3  A    between atoms: C_3  and  C_4
REMARK    4  A    between atoms: C_4  and  C_5
REMARK    5  A    between atoms: C_5  and  C_6
REMARK    6  A    between atoms: C_6  and  C_7
REMARK    7  A    between atoms: C_7  and  C_8
REMARK    8  A    between atoms: C_8  and  C_9
REMARK    9  A    between atoms: C_9  and  C_10
REMARK   10  A    between atoms: C_10  and  C_11
REMARK   11  A    between atoms: C_11  and  C_12
REMARK   12  A    between atoms: C_12  and  N_13
REMARK   13  A    between atoms: N_16  and  C_17
REMARK                            x       y       z     vdW  Elec       q    Type
REMARK                         _______ _______ _______ _____ _____    ______ ____
ROOT
ATOM      1  C   UNL     1       3.707   4.719  17.156  0.00  0.00    +0.000 C 
ENDROOT
BRANCH   1   2
ATOM      2  C   UNL     1       3.731   6.214  17.433  0.00  0.00    +0.000 C 
BRANCH   2   3
ATOM      3  C   UNL     1       2.538   6.620  18.287  0.00  0.00    +0.000 C 
BRANCH   3   4
ATOM      4  C   UNL     1       2.821   6.342  19.757  0.00  0.00    +0.000 C 
BRANCH   4   5
ATOM      5  C   UNL     1       1.722   5.478  20.357  0.00  0.00    +0.000 C 
BRANCH   5   6
ATOM      6  C   UNL     1       2.317   4.455  21.314  0.00  0.00    +0.000 C 
BRANCH   6   7
ATOM      7  C   UNL     1       2.007   3.041  20.843  0.00  0.00    +0.000 C 
BRANCH   7   8
ATOM      8  C   UNL     1       0.787   3.038  19.932  0.00  0.00    +0.000 C 
BRANCH   8  10
ATOM      9  C   UNL     1       2.467   1.692  18.654  0.00  0.00    +0.000 C 
ATOM     10  C   UNL     1       1.098   2.348  18.610  0.00  0.00    +0.000 C 
ENDBRANCH   8  10
ENDBRANCH   7   8
ENDBRANCH   6   7
ENDBRANCH   5   6
ENDBRANCH   4   5
ENDBRANCH   3   4
ENDBRANCH   2   3
ENDBRANCH   1   2
BRANCH   1  11
ATOM     11  C   UNL     1       5.019   4.065  17.580  0.00  0.00    +0.000 C 
BRANCH  11  12
ATOM     12  C   UNL     1       6.158   4.582  16.715  0.00  0.00    +0.000 C 
BRANCH  12  13
ATOM     13  N   UNL     1       5.961   4.131  15.343  0.00  0.00    +0.000 NA
ATOM     14  C   UNL     1       6.764   4.600  14.453  0.00  0.00    +0.000 C 
ATOM     15  N   UNL     1       7.777   5.468  14.661  0.00  0.00    +0.000 N 
ATOM     16  N   UNL     1       6.688   4.261  13.141  0.00  0.00    +0.000 N 
ATOM     17  C   UNL     1       5.726   3.351  12.573  0.00  0.00    +0.000 C 
ATOM     18  H   UNL     1       7.965   5.824  15.584  0.00  0.00    +0.000 HD
ATOM     19  H   UNL     1       8.363   5.798  13.913  0.00  0.00    +0.000 HD
ATOM     20  H   UNL     1       7.349   4.657  12.494  0.00  0.00    +0.000 HD
ENDBRANCH  12  13
ENDBRANCH  11  12
ENDBRANCH   1  11
TORSDOF 11
ENDMDL
MODEL 8
REMARK VINA RESULT:      -5.2      2.167      3.833
REMARK  Name = 
REMARK  13 active torsions:
REMARK  status: ('A' for Active; 'I' for Inactive)
REMARK    1  A    between atoms: C_1  and  C_2
REMARK    2  A    between atoms: C_2  and  C_3
REMARK    3  A    between atoms: C_3  and  C_4
REMARK    4  A    between atoms: C_4  and  C_5
REMARK    5  A    between atoms: C_5  and  C_6
REMARK    6  A    between atoms: C_6  and  C_7
REMARK    7  A    between atoms: C_7  and  C_8
REMARK    8  A    between atoms: C_8  and  C_9
REMARK    9  A    between atoms: C_9  and  C_10
REMARK   10  A    between atoms: C_10  and  C_11
REMARK   11  A    between atoms: C_11  and  C_12
REMARK   12  A    between atoms: C_12  and  N_13
REMARK   13  A    between atoms: N_16  and  C_17
REMARK                            x       y       z     vdW  Elec       q    Type
REMARK                         _______ _______ _______ _____ _____    ______ ____
ROOT
ATOM      1  C   UNL     1       4.504   5.587  17.315  0.00  0.00    +0.000 C 
ENDROOT
BRANCH   1   2
ATOM      2  C   UNL     1       5.122   4.234  17.635  0.00  0.00    +0.000 C 
BRANCH   2   3
ATOM      3  C   UNL     1       4.799   3.822  19.064  0.00  0.00    +0.000 C 
BRANCH   3   4
ATOM      4  C   UNL     1       4.316   2.379  19.102  0.00  0.00    +0.000 C 
BRANCH   4   5
ATOM      5  C   UNL     1       3.482   2.064  17.869  0.00  0.00    +0.000 C 
BRANCH   5   6
ATOM      6  C   UNL     1       2.138   2.776  17.944  0.00  0.00    +0.000 C 
BRANCH   6   7
ATOM      7  C   UNL     1       1.284   2.184  19.056  0.00  0.00    +0.000 C 
BRANCH   7   8
ATOM      8  C   UNL     1       0.539   3.285  19.799  0.00  0.00    +0.000 C 
BRANCH   8  10
ATOM      9  C   UNL     1       1.984   3.150  21.838  0.00  0.00    +0.000 C 
ATOM     10  C   UNL     1       1.480   4.048  20.723  0.00  0.00    +0.000 C 
ENDBRANCH   8  10
ENDBRANCH   7   8
ENDBRANCH   6   7
ENDBRANCH   5   6
ENDBRANCH   4   5
ENDBRANCH   3   4
ENDBRANCH   2   3
ENDBRANCH   1   2
BRANCH   1  11
ATOM     11  C   UNL     1       5.373   6.364  16.331  0.00  0.00    +0.000 C 
BRANCH  11  12
ATOM     12  C   UNL     1       6.843   6.118  16.634  0.00  0.00    +0.000 C 
BRANCH  12  13
ATOM     13  N   UNL     1       7.440   7.348  17.142  0.00  0.00    +0.000 NA
ATOM     14  C   UNL     1       7.993   7.293  18.303  0.00  0.00    +0.000 C 
ATOM     15  N   UNL     1       8.082   6.207  19.101  0.00  0.00    +0.000 N 
ATOM     16  N   UNL     1       8.584   8.365  18.889  0.00  0.00    +0.000 N 
ATOM     17  C   UNL     1       8.676   9.682  18.310  0.00  0.00    +0.000 C 
ATOM     18  H   UNL     1       7.686   5.328  18.814  0.00  0.00    +0.000 HD
ATOM     19  H   UNL     1       8.525   6.239  20.003  0.00  0.00    +0.000 HD
ATOM     20  H   UNL     1       9.004   8.257  19.797  0.00  0.00    +0.000 HD
ENDBRANCH  12  13
ENDBRANCH  11  12
ENDBRANCH   1  11
TORSDOF 11
ENDMDL
MODEL 9
REMARK VINA RESULT:      -5.2      0.881      1.181
REMARK  Name = 
REMARK  13 active torsions:
REMARK  status: ('A' for Active; 'I' for Inactive)
REMARK    1  A    between atoms: C_1  and  C_2
REMARK    2  A    between atoms: C_2  and  C_3
REMARK    3  A    between atoms: C_3  and  C_4
REMARK    4  A    between atoms: C_4  and  C_5
REMARK    5  A    between atoms: C_5  and  C_6
REMARK    6  A    between atoms: C_6  and  C_7
REMARK    7  A    between atoms: C_7  and  C_8
REMARK    8  A    between atoms: C_8  and  C_9
REMARK    9  A    between atoms: C_9  and  C_10
REMARK   10  A    between atoms: C_10  and  C_11
REMARK   11  A    between atoms: C_11  and  C_12
REMARK   12  A    between atoms: C_12  and  N_13
REMARK   13  A    between atoms: N_16  and  C_17
REMARK                            x       y       z     vdW  Elec       q    Type
REMARK                         _______ _______ _______ _____ _____    ______ ____
ROOT
ATOM      1  C   UNL     1       2.799   6.826  18.164  0.00  0.00    +0.000 C 
ENDROOT
BRANCH   1   2
ATOM      2  C   UNL     1       3.131   6.233  19.526  0.00  0.00    +0.000 C 
BRANCH   2   3
ATOM      3  C   UNL     1       1.938   6.346  20.464  0.00  0.00    +0.000 C 
BRANCH   3   4
ATOM      4  C   UNL     1       1.186   5.024  20.524  0.00  0.00    +0.000 C 
BRANCH   4   5
ATOM      5  C   UNL     1       2.016   3.971  21.245  0.00  0.00    +0.000 C 
BRANCH   5   6
ATOM      6  C   UNL     1       1.447   2.583  20.989  0.00  0.00    +0.000 C 
BRANCH   6   7
ATOM      7  C   UNL     1       1.938   2.043  19.653  0.00  0.00    +0.000 C 
BRANCH   7   8
ATOM      8  C   UNL     1       3.382   2.462  19.408  0.00  0.00    +0.000 C 
BRANCH   8  10
ATOM      9  C   UNL     1       2.484   3.414  17.274  0.00  0.00    +0.000 C 
ATOM     10  C   UNL     1       3.641   2.674  17.921  0.00  0.00    +0.000 C 
ENDBRANCH   8  10
ENDBRANCH   7   8
ENDBRANCH   6   7
ENDBRANCH   5   6
ENDBRANCH   4   5
ENDBRANCH   3   4
ENDBRANCH   2   3
ENDBRANCH   1   2
BRANCH   1  11
ATOM     11  C   UNL     1       4.070   7.229  17.421  0.00  0.00    +0.000 C 
BRANCH  11  12
ATOM     12  C   UNL     1       5.161   6.198  17.667  0.00  0.00    +0.000 C 
BRANCH  12  13
ATOM     13  N   UNL     1       5.695   5.751  16.386  0.00  0.00    +0.000 NA
ATOM     14  C   UNL     1       6.854   5.191  16.399  0.00  0.00    +0.000 C 
ATOM     15  N   UNL     1       7.628   4.969  17.483  0.00  0.00    +0.000 N 
ATOM     16  N   UNL     1       7.463   4.731  15.277  0.00  0.00    +0.000 N 
ATOM     17  C   UNL     1       6.913   4.800  13.946  0.00  0.00    +0.000 C 
ATOM     18  H   UNL     1       7.321   5.258  18.398  0.00  0.00    +0.000 HD
ATOM     19  H   UNL     1       8.529   4.529  17.419  0.00  0.00    +0.000 HD
ATOM     20  H   UNL     1       8.367   4.297  15.353  0.00  0.00    +0.000 HD
ENDBRANCH  12  13
ENDBRANCH  11  12
ENDBRANCH   1  11
TORSDOF 11
ENDMDL
