MODEL 1
REMARK VINA RESULT:      -7.9      0.000      0.000
REMARK  Name = 
REMARK  3 active torsions:
REMARK  status: ('A' for Active; 'I' for Inactive)
REMARK    1  A    between atoms: C_3  and  S_4
REMARK    2  A    between atoms: S_4  and  C_5
REMARK    3  A    between atoms: C_17  and  N_18
REMARK                            x       y       z     vdW  Elec       q    Type
REMARK                         _______ _______ _______ _____ _____    ______ ____
ROOT
ATOM      1  C   UNL     1       7.156   7.433  17.251  0.00  0.00    +0.000 A 
ATOM      2  C   UNL     1       6.432   6.499  16.508  0.00  0.00    +0.000 A 
ATOM      3  C   UNL     1       6.421   5.160  16.891  0.00  0.00    +0.000 A 
ATOM      4  C   UNL     1       7.095   4.775  18.051  0.00  0.00    +0.000 A 
ATOM      5  C   UNL     1       7.826   5.714  18.786  0.00  0.00    +0.000 A 
ATOM      6  C   UNL     1       7.899   7.050  18.374  0.00  0.00    +0.000 A 
ENDROOT
BRANCH   6   7
ATOM      7  N   UNL     1       8.673   7.966  19.116  0.00  0.00    +0.000 N 
ATOM      8  C   UNL     1       8.835   9.283  18.824  0.00  0.00    +0.000 C 
ATOM      9  N   UNL     1       8.328   9.985  17.847  0.00  0.00    +0.000 NA
ATOM     10  C   UNL     1       8.890  11.344  18.029  0.00  0.00    +0.000 C 
ATOM     11  C   UNL     1       9.469  11.367  19.441  0.00  0.00    +0.000 C 
ATOM     12  N   UNL     1       9.636   9.950  19.708  0.00  0.00    +0.000 N 
ATOM     13  H   UNL     1       9.480   7.549  19.563  0.00  0.00    +0.000 HD
ATOM     14  H   UNL     1       9.492   9.684  20.675  0.00  0.00    +0.000 HD
ENDBRANCH   6   7
BRANCH   3  15
ATOM     15  S   UNL     1       5.501   3.980  15.940  0.00  0.00    +0.000 S 
BRANCH  15  16
ATOM     16  C   UNL     1       4.201   3.509  17.073  0.00  0.00    +0.000 A 
ATOM     17  C   UNL     1       4.028   2.178  17.474  0.00  0.00    +0.000 A 
ATOM     18  C   UNL     1       3.182   1.867  18.544  0.00  0.00    +0.000 A 
ATOM     19  C   UNL     1       2.533   2.887  19.234  0.00  0.00    +0.000 A 
ATOM     20  C   UNL     1       2.640   4.202  18.781  0.00  0.00    +0.000 A 
ATOM     21  C   UNL     1       3.455   4.514  17.695  0.00  0.00    +0.000 A 
ATOM     22  O   UNL     1       2.007   5.240  19.412  0.00  0.00    +0.000 OA
ATOM     23  C   UNL     1       2.002   4.979  20.815  0.00  0.00    +0.000 C 
ATOM     24  C   UNL     1       1.367   3.632  21.136  0.00  0.00    +0.000 C 
ATOM     25  O   UNL     1       1.870   2.530  20.373  0.00  0.00    +0.000 OA
ENDBRANCH  15  16
ENDBRANCH   3  15
TORSDOF 3
ENDMDL
MODEL 2
REMARK VINA RESULT:      -7.8      0.115      1.009
REMARK  Name = 
REMARK  3 active torsions:
REMARK  status: ('A' for Active; 'I' for Inactive)
REMARK    1  A    between atoms: C_3  and  S_4
REMARK    2  A    between atoms: S_4  and  C_5
REMARK    3  A    between atoms: C_17  and  N_18
REMARK                            x       y       z     vdW  Elec       q    Type
REMARK                         _______ _______ _______ _____ _____    ______ ____
ROOT
ATOM      1  C   UNL     1       7.884   5.664  18.704  0.00  0.00    +0.000 A 
ATOM      2  C   UNL     1       7.122   4.760  17.961  0.00  0.00    +0.000 A 
ATOM      3  C   UNL     1       6.401   5.200  16.854  0.00  0.00    +0.000 A 
ATOM      4  C   UNL     1       6.491   6.538  16.467  0.00  0.00    +0.000 A 
ATOM      5  C   UNL     1       7.248   7.441  17.221  0.00  0.00    +0.000 A 
ATOM      6  C   UNL     1       7.924   7.024  18.374  0.00  0.00    +0.000 A 
ENDROOT
BRANCH   6   7
ATOM      7  N   UNL     1       8.650   7.963  19.134  0.00  0.00    +0.000 N 
ATOM      8  C   UNL     1       8.801   9.279  18.830  0.00  0.00    +0.000 C 
ATOM      9  N   UNL     1       8.323   9.959  17.823  0.00  0.00    +0.000 NA
ATOM     10  C   UNL     1       8.853  11.330  18.009  0.00  0.00    +0.000 C 
ATOM     11  C   UNL     1       9.372  11.382  19.443  0.00  0.00    +0.000 C 
ATOM     12  N   UNL     1       9.553   9.972  19.737  0.00  0.00    +0.000 N 
ATOM     13  H   UNL     1       9.446   7.567  19.620  0.00  0.00    +0.000 HD
ATOM     14  H   UNL     1       9.375   9.717  20.701  0.00  0.00    +0.000 HD
ENDBRANCH   6   7
BRANCH   3  15
ATOM     15  S   UNL     1       5.434   4.046  15.917  0.00  0.00    +0.000 S 
BRANCH  15  16
ATOM     16  C   UNL     1       4.179   3.559  17.093  0.00  0.00    +0.000 A 
ATOM     17  C   UNL     1       3.998   2.218  17.455  0.00  0.00    +0.000 A 
ATOM     18  C   UNL     1       3.197   1.884  18.552  0.00  0.00    +0.000 A 
ATOM     19  C   UNL     1       2.600   2.891  19.307  0.00  0.00    +0.000 A 
ATOM     20  C   UNL     1       2.712   4.219  18.895  0.00  0.00    +0.000 A 
ATOM     21  C   UNL     1       3.482   4.555  17.784  0.00  0.00    +0.000 A 
ATOM     22  O   UNL     1       2.129   5.245  19.590  0.00  0.00    +0.000 OA
ATOM     23  C   UNL     1       2.184   4.935  20.982  0.00  0.00    +0.000 C 
ATOM     24  C   UNL     1       1.538   3.589  21.286  0.00  0.00    +0.000 C 
ATOM     25  O   UNL     1       1.983   2.506  20.463  0.00  0.00    +0.000 OA
ENDBRANCH  15  16
ENDBRANCH   3  15
TORSDOF 3
ENDMDL
MODEL 3
REMARK VINA RESULT:      -7.7      4.963      6.661
REMARK  Name = 
REMARK  3 active torsions:
REMARK  status: ('A' for Active; 'I' for Inactive)
REMARK    1  A    between atoms: C_3  and  S_4
REMARK    2  A    between atoms: S_4  and  C_5
REMARK    3  A    between atoms: C_17  and  N_18
REMARK                            x       y       z     vdW  Elec       q    Type
REMARK                         _______ _______ _______ _____ _____    ______ ____
ROOT
ATOM      1  C   UNL     1       2.123   8.272  18.489  0.00  0.00    +0.000 A 
ATOM      2  C   UNL     1       2.349   6.944  18.857  0.00  0.00    +0.000 A 
ATOM      3  C   UNL     1       1.989   6.501  20.127  0.00  0.00    +0.000 A 
ATOM      4  C   UNL     1       1.353   7.382  21.004  0.00  0.00    +0.000 A 
ATOM      5  C   UNL     1       1.138   8.713  20.633  0.00  0.00    +0.000 A 
ATOM      6  C   UNL     1       1.555   9.187  19.383  0.00  0.00    +0.000 A 
ENDROOT
BRANCH   6   7
ATOM      7  N   UNL     1       1.356  10.543  19.051  0.00  0.00    +0.000 N 
ATOM      8  C   UNL     1       0.192  11.086  18.609  0.00  0.00    +0.000 C 
ATOM      9  N   UNL     1      -0.967  10.518  18.410  0.00  0.00    +0.000 NA
ATOM     10  C   UNL     1      -1.833  11.603  17.895  0.00  0.00    +0.000 C 
ATOM     11  C   UNL     1      -1.093  12.904  18.194  0.00  0.00    +0.000 C 
ATOM     12  N   UNL     1       0.269  12.428  18.361  0.00  0.00    +0.000 N 
ATOM     13  H   UNL     1       2.181  10.997  18.677  0.00  0.00    +0.000 HD
ATOM     14  H   UNL     1       0.813  12.943  19.042  0.00  0.00    +0.000 HD
ENDBRANCH   6   7
BRANCH   3  15
ATOM     15  S   UNL     1       2.282   4.814  20.588  0.00  0.00    +0.000 S 
BRANCH  15  16
ATOM     16  C   UNL     1       3.329   4.235  19.261  0.00  0.00    +0.000 A 
ATOM     17  C   UNL     1       2.789   3.764  18.056  0.00  0.00    +0.000 A 
ATOM     18  C   UNL     1       3.614   3.557  16.945  0.00  0.00    +0.000 A 
ATOM     19  C   UNL     1       4.973   3.849  17.027  0.00  0.00    +0.000 A 
ATOM     20  C   UNL     1       5.522   4.236  18.249  0.00  0.00    +0.000 A 
ATOM     21  C   UNL     1       4.712   4.412  19.368  0.00  0.00    +0.000 A 
ATOM     22  O   UNL     1       6.856   4.516  18.388  0.00  0.00    +0.000 OA
ATOM     23  C   UNL     1       7.315   5.133  17.186  0.00  0.00    +0.000 C 
ATOM     24  C   UNL     1       7.029   4.269  15.964  0.00  0.00    +0.000 C 
ATOM     25  O   UNL     1       5.682   3.796  15.861  0.00  0.00    +0.000 OA
ENDBRANCH  15  16
ENDBRANCH   3  15
TORSDOF 3
ENDMDL
MODEL 4
REMARK VINA RESULT:      -7.7      5.342      7.421
REMARK  Name = 
REMARK  3 active torsions:
REMARK  status: ('A' for Active; 'I' for Inactive)
REMARK    1  A    between atoms: C_3  and  S_4
REMARK    2  A    between atoms: S_4  and  C_5
REMARK    3  A    between atoms: C_17  and  N_18
REMARK                            x       y       z     vdW  Elec       q    Type
REMARK                         _______ _______ _______ _____ _____    ______ ____
ROOT
ATOM      1  C   UNL     1       1.222   8.861  20.144  0.00  0.00    +0.000 A 
ATOM      2  C   UNL     1       1.911   7.677  20.413  0.00  0.00    +0.000 A 
ATOM      3  C   UNL     1       2.540   6.986  19.382  0.00  0.00    +0.000 A 
ATOM      4  C   UNL     1       2.519   7.516  18.090  0.00  0.00    +0.000 A 
ATOM      5  C   UNL     1       1.819   8.698  17.825  0.00  0.00    +0.000 A 
ATOM      6  C   UNL     1       1.127   9.367  18.842  0.00  0.00    +0.000 A 
ENDROOT
BRANCH   6   7
ATOM      7  N   UNL     1       0.401  10.536  18.537  0.00  0.00    +0.000 N 
ATOM      8  C   UNL     1      -0.807  10.578  17.915  0.00  0.00    +0.000 C 
ATOM      9  N   UNL     1      -1.554   9.597  17.486  0.00  0.00    +0.000 NA
ATOM     10  C   UNL     1      -2.727  10.261  16.869  0.00  0.00    +0.000 C 
ATOM     11  C   UNL     1      -2.686  11.708  17.352  0.00  0.00    +0.000 C 
ATOM     12  N   UNL     1      -1.294  11.843  17.743  0.00  0.00    +0.000 N 
ATOM     13  H   UNL     1       0.985  11.339  18.339  0.00  0.00    +0.000 HD
ATOM     14  H   UNL     1      -1.137  12.457  18.533  0.00  0.00    +0.000 HD
ENDBRANCH   6   7
BRANCH   3  15
ATOM     15  S   UNL     1       3.411   5.481  19.732  0.00  0.00    +0.000 S 
BRANCH  15  16
ATOM     16  C   UNL     1       4.764   5.546  18.566  0.00  0.00    +0.000 A 
ATOM     17  C   UNL     1       6.090   5.349  18.975  0.00  0.00    +0.000 A 
ATOM     18  C   UNL     1       7.099   5.150  18.026  0.00  0.00    +0.000 A 
ATOM     19  C   UNL     1       6.780   5.119  16.671  0.00  0.00    +0.000 A 
ATOM     20  C   UNL     1       5.477   5.400  16.263  0.00  0.00    +0.000 A 
ATOM     21  C   UNL     1       4.473   5.631  17.202  0.00  0.00    +0.000 A 
ATOM     22  O   UNL     1       5.114   5.401  14.942  0.00  0.00    +0.000 OA
ATOM     23  C   UNL     1       5.855   4.382  14.271  0.00  0.00    +0.000 C 
ATOM     24  C   UNL     1       7.357   4.560  14.460  0.00  0.00    +0.000 C 
ATOM     25  O   UNL     1       7.777   4.744  15.816  0.00  0.00    +0.000 OA
ENDBRANCH  15  16
ENDBRANCH   3  15
TORSDOF 3
ENDMDL
MODEL 5
REMARK VINA RESULT:      -7.6      4.958      6.790
REMARK  Name = 
REMARK  3 active torsions:
REMARK  status: ('A' for Active; 'I' for Inactive)
REMARK    1  A    between atoms: C_3  and  S_4
REMARK    2  A    between atoms: S_4  and  C_5
REMARK    3  A    between atoms: C_17  and  N_18
REMARK                            x       y       z     vdW  Elec       q    Type
REMARK                         _______ _______ _______ _____ _____    ______ ____
ROOT
ATOM      1  C   UNL     1       1.159   8.574  20.762  0.00  0.00    +0.000 A 
ATOM      2  C   UNL     1       1.439   7.245  21.085  0.00  0.00    +0.000 A 
ATOM      3  C   UNL     1       2.036   6.409  20.144  0.00  0.00    +0.000 A 
ATOM      4  C   UNL     1       2.398   6.929  18.900  0.00  0.00    +0.000 A 
ATOM      5  C   UNL     1       2.106   8.259  18.579  0.00  0.00    +0.000 A 
ATOM      6  C   UNL     1       1.447   9.090  19.493  0.00  0.00    +0.000 A 
ENDROOT
BRANCH   6   7
ATOM      7  N   UNL     1       1.135  10.416  19.128  0.00  0.00    +0.000 N 
ATOM      8  C   UNL     1      -0.059  10.841  18.638  0.00  0.00    +0.000 C 
ATOM      9  N   UNL     1      -1.152  10.164  18.411  0.00  0.00    +0.000 NA
ATOM     10  C   UNL     1      -2.098  11.156  17.847  0.00  0.00    +0.000 C 
ATOM     11  C   UNL     1      -1.491  12.524  18.145  0.00  0.00    +0.000 C 
ATOM     12  N   UNL     1      -0.098  12.180  18.367  0.00  0.00    +0.000 N 
ATOM     13  H   UNL     1       1.926  10.938  18.774  0.00  0.00    +0.000 HD
ATOM     14  H   UNL     1       0.372  12.754  19.056  0.00  0.00    +0.000 HD
ENDBRANCH   6   7
BRANCH   3  15
ATOM     15  S   UNL     1       2.385   4.722  20.561  0.00  0.00    +0.000 S 
BRANCH  15  16
ATOM     16  C   UNL     1       3.424   4.203  19.202  0.00  0.00    +0.000 A 
ATOM     17  C   UNL     1       2.879   3.648  18.036  0.00  0.00    +0.000 A 
ATOM     18  C   UNL     1       3.671   3.486  16.895  0.00  0.00    +0.000 A 
ATOM     19  C   UNL     1       4.999   3.905  16.906  0.00  0.00    +0.000 A 
ATOM     20  C   UNL     1       5.561   4.377  18.092  0.00  0.00    +0.000 A 
ATOM     21  C   UNL     1       4.787   4.511  19.242  0.00  0.00    +0.000 A 
ATOM     22  O   UNL     1       6.868   4.784  18.162  0.00  0.00    +0.000 OA
ATOM     23  C   UNL     1       7.214   5.406  16.924  0.00  0.00    +0.000 C 
ATOM     24  C   UNL     1       6.957   4.482  15.740  0.00  0.00    +0.000 C 
ATOM     25  O   UNL     1       5.658   3.883  15.710  0.00  0.00    +0.000 OA
ENDBRANCH  15  16
ENDBRANCH   3  15
TORSDOF 3
ENDMDL
MODEL 6
REMARK VINA RESULT:      -7.6      4.645      6.508
REMARK  Name = 
REMARK  3 active torsions:
REMARK  status: ('A' for Active; 'I' for Inactive)
REMARK    1  A    between atoms: C_3  and  S_4
REMARK    2  A    between atoms: S_4  and  C_5
REMARK    3  A    between atoms: C_17  and  N_18
REMARK                            x       y       z     vdW  Elec       q    Type
REMARK                         _______ _______ _______ _____ _____    ______ ____
ROOT
ATOM      1  C   UNL     1       4.222   6.862  17.064  0.00  0.00    +0.000 A 
ATOM      2  C   UNL     1       3.144   6.872  17.952  0.00  0.00    +0.000 A 
ATOM      3  C   UNL     1       3.217   6.161  19.146  0.00  0.00    +0.000 A 
ATOM      4  C   UNL     1       4.395   5.485  19.469  0.00  0.00    +0.000 A 
ATOM      5  C   UNL     1       5.468   5.470  18.572  0.00  0.00    +0.000 A 
ATOM      6  C   UNL     1       5.382   6.126  17.338  0.00  0.00    +0.000 A 
ENDROOT
BRANCH   6   7
ATOM      7  N   UNL     1       6.466   6.064  16.439  0.00  0.00    +0.000 N 
ATOM      8  C   UNL     1       6.525   5.290  15.323  0.00  0.00    +0.000 C 
ATOM      9  N   UNL     1       5.633   4.473  14.831  0.00  0.00    +0.000 NA
ATOM     10  C   UNL     1       6.278   3.893  13.630  0.00  0.00    +0.000 C 
ATOM     11  C   UNL     1       7.483   4.781  13.336  0.00  0.00    +0.000 C 
ATOM     12  N   UNL     1       7.692   5.420  14.623  0.00  0.00    +0.000 N 
ATOM     13  H   UNL     1       7.367   6.211  16.876  0.00  0.00    +0.000 HD
ATOM     14  H   UNL     1       8.037   6.371  14.570  0.00  0.00    +0.000 HD
ENDBRANCH   6   7
BRANCH   3  15
ATOM     15  S   UNL     1       1.843   6.178  20.267  0.00  0.00    +0.000 S 
BRANCH  15  16
ATOM     16  C   UNL     1       1.524   7.927  20.450  0.00  0.00    +0.000 A 
ATOM     17  C   UNL     1       1.406   8.769  19.335  0.00  0.00    +0.000 A 
ATOM     18  C   UNL     1       0.909  10.068  19.481  0.00  0.00    +0.000 A 
ATOM     19  C   UNL     1       0.501  10.518  20.734  0.00  0.00    +0.000 A 
ATOM     20  C   UNL     1       0.699   9.711  21.854  0.00  0.00    +0.000 A 
ATOM     21  C   UNL     1       1.223   8.427  21.720  0.00  0.00    +0.000 A 
ATOM     22  O   UNL     1       0.333  10.113  23.112  0.00  0.00    +0.000 OA
ATOM     23  C   UNL     1      -0.861  10.888  23.008  0.00  0.00    +0.000 C 
ATOM     24  C   UNL     1      -0.688  12.062  22.051  0.00  0.00    +0.000 C 
ATOM     25  O   UNL     1      -0.138  11.724  20.774  0.00  0.00    +0.000 OA
ENDBRANCH  15  16
ENDBRANCH   3  15
TORSDOF 3
ENDMDL
MODEL 7
REMARK VINA RESULT:      -7.5      6.589      8.859
REMARK  Name = 
REMARK  3 active torsions:
REMARK  status: ('A' for Active; 'I' for Inactive)
REMARK    1  A    between atoms: C_3  and  S_4
REMARK    2  A    between atoms: S_4  and  C_5
REMARK    3  A    between atoms: C_17  and  N_18
REMARK                            x       y       z     vdW  Elec       q    Type
REMARK                         _______ _______ _______ _____ _____    ______ ____
ROOT
ATOM      1  C   UNL     1       2.066   7.040  19.946  0.00  0.00    +0.000 A 
ATOM      2  C   UNL     1       1.558   8.269  20.372  0.00  0.00    +0.000 A 
ATOM      3  C   UNL     1       1.555   9.361  19.509  0.00  0.00    +0.000 A 
ATOM      4  C   UNL     1       2.016   9.199  18.201  0.00  0.00    +0.000 A 
ATOM      5  C   UNL     1       2.532   7.969  17.782  0.00  0.00    +0.000 A 
ATOM      6  C   UNL     1       2.601   6.881  18.662  0.00  0.00    +0.000 A 
ENDROOT
BRANCH   6   7
ATOM      7  N   UNL     1       3.159   5.664  18.222  0.00  0.00    +0.000 N 
ATOM      8  C   UNL     1       2.560   4.447  18.293  0.00  0.00    +0.000 C 
ATOM      9  N   UNL     1       1.377   4.129  18.748  0.00  0.00    +0.000 NA
ATOM     10  C   UNL     1       1.300   2.657  18.598  0.00  0.00    +0.000 C 
ATOM     11  C   UNL     1       2.445   2.275  17.664  0.00  0.00    +0.000 C 
ATOM     12  N   UNL     1       3.320   3.427  17.792  0.00  0.00    +0.000 N 
ATOM     13  H   UNL     1       4.168   5.623  18.309  0.00  0.00    +0.000 HD
ATOM     14  H   UNL     1       3.826   3.666  16.949  0.00  0.00    +0.000 HD
ENDBRANCH   6   7
BRANCH   3  15
ATOM     15  S   UNL     1       0.911  10.918  20.059  0.00  0.00    +0.000 S 
BRANCH  15  16
ATOM     16  C   UNL     1      -0.727  10.924  19.345  0.00  0.00    +0.000 A 
ATOM     17  C   UNL     1      -1.726  11.787  19.815  0.00  0.00    +0.000 A 
ATOM     18  C   UNL     1      -2.909  11.961  19.088  0.00  0.00    +0.000 A 
ATOM     19  C   UNL     1      -3.083  11.296  17.877  0.00  0.00    +0.000 A 
ATOM     20  C   UNL     1      -2.126  10.374  17.454  0.00  0.00    +0.000 A 
ATOM     21  C   UNL     1      -0.960  10.173  18.189  0.00  0.00    +0.000 A 
ATOM     22  O   UNL     1      -2.257   9.680  16.280  0.00  0.00    +0.000 OA
ATOM     23  C   UNL     1      -2.884  10.531  15.321  0.00  0.00    +0.000 C 
ATOM     24  C   UNL     1      -4.217  11.067  15.830  0.00  0.00    +0.000 C 
ATOM     25  O   UNL     1      -4.175  11.648  17.137  0.00  0.00    +0.000 OA
ENDBRANCH  15  16
ENDBRANCH   3  15
TORSDOF 3
ENDMDL
MODEL 8
REMARK VINA RESULT:      -7.5      6.632      8.898
REMARK  Name = 
REMARK  3 active torsions:
REMARK  status: ('A' for Active; 'I' for Inactive)
REMARK    1  A    between atoms: C_3  and  S_4
REMARK    2  A    between atoms: S_4  and  C_5
REMARK    3  A    between atoms: C_17  and  N_18
REMARK                            x       y       z     vdW  Elec       q    Type
REMARK                         _______ _______ _______ _____ _____    ______ ____
ROOT
ATOM      1  C   UNL     1       1.726   7.411  20.437  0.00  0.00    +0.000 A 
ATOM      2  C   UNL     1       1.425   8.725  20.072  0.00  0.00    +0.000 A 
ATOM      3  C   UNL     1       1.849   9.223  18.843  0.00  0.00    +0.000 A 
ATOM      4  C   UNL     1       2.530   8.380  17.962  0.00  0.00    +0.000 A 
ATOM      5  C   UNL     1       2.837   7.068  18.337  0.00  0.00    +0.000 A 
ATOM      6  C   UNL     1       2.473   6.577  19.597  0.00  0.00    +0.000 A 
ENDROOT
BRANCH   6   7
ATOM      7  N   UNL     1       2.827   5.262  19.960  0.00  0.00    +0.000 N 
ATOM      8  C   UNL     1       2.206   4.130  19.538  0.00  0.00    +0.000 C 
ATOM      9  N   UNL     1       1.193   3.993  18.724  0.00  0.00    +0.000 NA
ATOM     10  C   UNL     1       0.945   2.533  18.676  0.00  0.00    +0.000 C 
ATOM     11  C   UNL     1       2.187   1.881  19.278  0.00  0.00    +0.000 C 
ATOM     12  N   UNL     1       2.751   2.981  20.039  0.00  0.00    +0.000 N 
ATOM     13  H   UNL     1       3.213   5.186  20.893  0.00  0.00    +0.000 HD
ATOM     14  H   UNL     1       3.763   2.989  20.079  0.00  0.00    +0.000 HD
ENDBRANCH   6   7
BRANCH   3  15
ATOM     15  S   UNL     1       1.465  10.893  18.389  0.00  0.00    +0.000 S 
BRANCH  15  16
ATOM     16  C   UNL     1      -0.309  10.945  18.600  0.00  0.00    +0.000 A 
ATOM     17  C   UNL     1      -0.905  11.757  19.574  0.00  0.00    +0.000 A 
ATOM     18  C   UNL     1      -2.286  11.981  19.559  0.00  0.00    +0.000 A 
ATOM     19  C   UNL     1      -3.068  11.418  18.553  0.00  0.00    +0.000 A 
ATOM     20  C   UNL     1      -2.487  10.543  17.636  0.00  0.00    +0.000 A 
ATOM     21  C   UNL     1      -1.117  10.291  17.666  0.00  0.00    +0.000 A 
ATOM     22  O   UNL     1      -3.215   9.948  16.640  0.00  0.00    +0.000 OA
ATOM     23  C   UNL     1      -4.209  10.871  16.196  0.00  0.00    +0.000 C 
ATOM     24  C   UNL     1      -5.086  11.351  17.346  0.00  0.00    +0.000 C 
ATOM     25  O   UNL     1      -4.372  11.821  18.494  0.00  0.00    +0.000 OA
ENDBRANCH  15  16
ENDBRANCH   3  15
TORSDOF 3
ENDMDL
MODEL 9
REMARK VINA RESULT:      -7.5      4.849      6.242
REMARK  Name = 
REMARK  3 active torsions:
REMARK  status: ('A' for Active; 'I' for Inactive)
REMARK    1  A    between atoms: C_3  and  S_4
REMARK    2  A    between atoms: S_4  and  C_5
REMARK    3  A    between atoms: C_17  and  N_18
REMARK                            x       y       z     vdW  Elec       q    Type
REMARK                         _______ _______ _______ _____ _____    ______ ____
ROOT
ATOM      1  C   UNL     1       2.023   8.533  17.924  0.00  0.00    +0.000 A 
ATOM      2  C   UNL     1       2.362   7.295  18.474  0.00  0.00    +0.000 A 
ATOM      3  C   UNL     1       2.058   7.015  19.803  0.00  0.00    +0.000 A 
ATOM      4  C   UNL     1       1.365   7.962  20.560  0.00  0.00    +0.000 A 
ATOM      5  C   UNL     1       1.036   9.204  20.007  0.00  0.00    +0.000 A 
ATOM      6  C   UNL     1       1.396   9.522  18.692  0.00  0.00    +0.000 A 
ENDROOT
BRANCH   6   7
ATOM      7  N   UNL     1       1.082  10.795  18.173  0.00  0.00    +0.000 N 
ATOM      8  C   UNL     1       1.242  11.976  18.824  0.00  0.00    +0.000 C 
ATOM      9  N   UNL     1       1.714  12.208  20.019  0.00  0.00    +0.000 NA
ATOM     10  C   UNL     1       1.609  13.676  20.187  0.00  0.00    +0.000 C 
ATOM     11  C   UNL     1       1.364  14.237  18.789  0.00  0.00    +0.000 C 
ATOM     12  N   UNL     1       0.862  13.066  18.092  0.00  0.00    +0.000 N 
ATOM     13  H   UNL     1       0.300  10.791  17.529  0.00  0.00    +0.000 HD
ATOM     14  H   UNL     1       1.120  13.016  17.114  0.00  0.00    +0.000 HD
ENDBRANCH   6   7
BRANCH   3  15
ATOM     15  S   UNL     1       2.494   5.442  20.495  0.00  0.00    +0.000 S 
BRANCH  15  16
ATOM     16  C   UNL     1       3.515   4.733  19.210  0.00  0.00    +0.000 A 
ATOM     17  C   UNL     1       2.959   3.975  18.171  0.00  0.00    +0.000 A 
ATOM     18  C   UNL     1       3.727   3.647  17.048  0.00  0.00    +0.000 A 
ATOM     19  C   UNL     1       5.039   4.101  16.949  0.00  0.00    +0.000 A 
ATOM     20  C   UNL     1       5.616   4.781  18.020  0.00  0.00    +0.000 A 
ATOM     21  C   UNL     1       4.867   5.083  19.155  0.00  0.00    +0.000 A 
ATOM     22  O   UNL     1       6.909   5.233  17.982  0.00  0.00    +0.000 OA
ATOM     23  C   UNL     1       7.202   5.647  16.647  0.00  0.00    +0.000 C 
ATOM     24  C   UNL     1       6.947   4.531  15.642  0.00  0.00    +0.000 C 
ATOM     25  O   UNL     1       5.668   3.898  15.753  0.00  0.00    +0.000 OA
ENDBRANCH  15  16
ENDBRANCH   3  15
TORSDOF 3
ENDMDL
