MODEL 1
REMARK VINA RESULT:      -9.0      0.000      0.000
REMARK  Name = 
REMARK  2 active torsions:
REMARK  status: ('A' for Active; 'I' for Inactive)
REMARK    1  A    between atoms: C_8  and  C_9
REMARK    2  A    between atoms: C_13  and  C_14
REMARK                            x       y       z     vdW  Elec       q    Type
REMARK                         _______ _______ _______ _____ _____    ______ ____
ROOT
ATOM      1  C   UNL     1       0.771   9.672  19.893  0.00  0.00    +0.000 A 
ATOM      2  C   UNL     1       0.379   9.186  21.141  0.00  0.00    +0.000 A 
ATOM      3  C   UNL     1       0.802   7.928  21.556  0.00  0.00    +0.000 A 
ATOM      4  C   UNL     1       1.640   7.172  20.735  0.00  0.00    +0.000 A 
ATOM      5  C   UNL     1       2.102   7.661  19.495  0.00  0.00    +0.000 A 
ATOM      6  C   UNL     1       1.625   8.913  19.082  0.00  0.00    +0.000 A 
ENDROOT
BRANCH   5   7
ATOM      7  C   UNL     1       3.017   6.855  18.655  0.00  0.00    +0.000 A 
ATOM      8  C   UNL     1       3.591   7.411  17.478  0.00  0.00    +0.000 A 
ATOM      9  C   UNL     1       4.675   6.814  16.834  0.00  0.00    +0.000 A 
ATOM     10  C   UNL     1       5.132   5.631  17.367  0.00  0.00    +0.000 A 
ATOM     11  C   UNL     1       4.480   4.965  18.398  0.00  0.00    +0.000 A 
ATOM     12  C   UNL     1       3.430   5.568  19.061  0.00  0.00    +0.000 A 
ATOM     13  C   UNL     1       5.255   3.752  18.746  0.00  0.00    +0.000 C 
ATOM     14  N   UNL     1       6.582   4.117  18.313  0.00  0.00    +0.000 N 
ATOM     15  C   UNL     1       6.508   5.117  17.345  0.00  0.00    +0.000 C 
ATOM     16  O   UNL     1       7.440   5.646  16.776  0.00  0.00    +0.000 OA
ATOM     17  H   UNL     1       7.259   4.359  19.030  0.00  0.00    +0.000 HD
ENDBRANCH   5   7
BRANCH   1  25
ATOM     18  O   UNL     1      -0.694  13.592  18.351  0.00  0.00    +0.000 OA
ATOM     19  C   UNL     1      -1.018  12.487  17.965  0.00  0.00    +0.000 C 
ATOM     20  N   UNL     1      -1.905  12.163  16.970  0.00  0.00    +0.000 N 
ATOM     21  C   UNL     1      -2.023  10.803  16.829  0.00  0.00    +0.000 C 
ATOM     22  S   UNL     1      -2.997  10.019  15.754  0.00  0.00    +0.000 S 
ATOM     23  N   UNL     1      -1.189  10.203  17.753  0.00  0.00    +0.000 N 
ATOM     24  C   UNL     1      -0.543  11.165  18.476  0.00  0.00    +0.000 C 
ATOM     25  C   UNL     1       0.346  10.996  19.462  0.00  0.00    +0.000 C 
ATOM     26  H   UNL     1      -2.406  12.848  16.428  0.00  0.00    +0.000 HD
ATOM     27  H   UNL     1      -1.078   9.202  17.870  0.00  0.00    +0.000 HD
ENDBRANCH   1  25
TORSDOF 2
ENDMDL
MODEL 2
REMARK VINA RESULT:      -8.8      3.530      8.233
REMARK  Name = 
REMARK  2 active torsions:
REMARK  status: ('A' for Active; 'I' for Inactive)
REMARK    1  A    between atoms: C_8  and  C_9
REMARK    2  A    between atoms: C_13  and  C_14
REMARK                            x       y       z     vdW  Elec       q    Type
REMARK                         _______ _______ _______ _____ _____    ______ ____
ROOT
ATOM      1  C   UNL     1       5.022   5.274  16.495  0.00  0.00    +0.000 A 
ATOM      2  C   UNL     1       4.457   4.010  16.676  0.00  0.00    +0.000 A 
ATOM      3  C   UNL     1       3.336   3.864  17.486  0.00  0.00    +0.000 A 
ATOM      4  C   UNL     1       2.766   4.986  18.088  0.00  0.00    +0.000 A 
ATOM      5  C   UNL     1       3.276   6.284  17.876  0.00  0.00    +0.000 A 
ATOM      6  C   UNL     1       4.433   6.396  17.090  0.00  0.00    +0.000 A 
ENDROOT
BRANCH   5   7
ATOM      7  C   UNL     1       2.634   7.464  18.499  0.00  0.00    +0.000 A 
ATOM      8  C   UNL     1       2.286   8.594  17.709  0.00  0.00    +0.000 A 
ATOM      9  C   UNL     1       1.420   9.582  18.179  0.00  0.00    +0.000 A 
ATOM     10  C   UNL     1       0.957   9.433  19.465  0.00  0.00    +0.000 A 
ATOM     11  C   UNL     1       1.422   8.447  20.326  0.00  0.00    +0.000 A 
ATOM     12  C   UNL     1       2.250   7.448  19.857  0.00  0.00    +0.000 A 
ATOM     13  C   UNL     1       0.692   8.553  21.611  0.00  0.00    +0.000 C 
ATOM     14  N   UNL     1      -0.535   9.191  21.199  0.00  0.00    +0.000 N 
ATOM     15  C   UNL     1      -0.335   9.880  20.005  0.00  0.00    +0.000 C 
ATOM     16  O   UNL     1      -1.162  10.521  19.390  0.00  0.00    +0.000 OA
ATOM     17  H   UNL     1      -1.369   8.615  21.148  0.00  0.00    +0.000 HD
ENDBRANCH   5   7
BRANCH   1  25
ATOM     18  O   UNL     1       8.457   5.561  13.665  0.00  0.00    +0.000 OA
ATOM     19  C   UNL     1       7.429   4.934  13.505  0.00  0.00    +0.000 C 
ATOM     20  N   UNL     1       7.063   4.164  12.431  0.00  0.00    +0.000 N 
ATOM     21  C   UNL     1       5.816   3.620  12.608  0.00  0.00    +0.000 C 
ATOM     22  S   UNL     1       5.020   2.649  11.539  0.00  0.00    +0.000 S 
ATOM     23  N   UNL     1       5.337   4.036  13.835  0.00  0.00    +0.000 N 
ATOM     24  C   UNL     1       6.266   4.835  14.439  0.00  0.00    +0.000 C 
ATOM     25  C   UNL     1       6.185   5.434  15.633  0.00  0.00    +0.000 C 
ATOM     26  H   UNL     1       7.643   4.033  11.619  0.00  0.00    +0.000 HD
ATOM     27  H   UNL     1       4.435   3.782  14.222  0.00  0.00    +0.000 HD
ENDBRANCH   1  25
TORSDOF 2
ENDMDL
MODEL 3
REMARK VINA RESULT:      -8.4      3.262      7.881
REMARK  Name = 
REMARK  2 active torsions:
REMARK  status: ('A' for Active; 'I' for Inactive)
REMARK    1  A    between atoms: C_8  and  C_9
REMARK    2  A    between atoms: C_13  and  C_14
REMARK                            x       y       z     vdW  Elec       q    Type
REMARK                         _______ _______ _______ _____ _____    ______ ____
ROOT
ATOM      1  C   UNL     1       3.462   4.500  18.180  0.00  0.00    +0.000 A 
ATOM      2  C   UNL     1       2.811   3.430  18.796  0.00  0.00    +0.000 A 
ATOM      3  C   UNL     1       1.895   3.672  19.814  0.00  0.00    +0.000 A 
ATOM      4  C   UNL     1       1.612   4.985  20.193  0.00  0.00    +0.000 A 
ATOM      5  C   UNL     1       2.207   6.090  19.549  0.00  0.00    +0.000 A 
ATOM      6  C   UNL     1       3.159   5.815  18.556  0.00  0.00    +0.000 A 
ENDROOT
BRANCH   5   7
ATOM      7  C   UNL     1       1.867   7.475  19.946  0.00  0.00    +0.000 A 
ATOM      8  C   UNL     1       1.766   8.500  18.966  0.00  0.00    +0.000 A 
ATOM      9  C   UNL     1       1.160   9.726  19.241  0.00  0.00    +0.000 A 
ATOM     10  C   UNL     1       0.706   9.912  20.526  0.00  0.00    +0.000 A 
ATOM     11  C   UNL     1       0.953   9.011  21.554  0.00  0.00    +0.000 A 
ATOM     12  C   UNL     1       1.521   7.782  21.279  0.00  0.00    +0.000 A 
ATOM     13  C   UNL     1       0.298   9.502  22.788  0.00  0.00    +0.000 C 
ATOM     14  N   UNL     1      -0.761  10.323  22.250  0.00  0.00    +0.000 N 
ATOM     15  C   UNL     1      -0.437  10.729  20.957  0.00  0.00    +0.000 C 
ATOM     16  O   UNL     1      -1.110  11.425  20.226  0.00  0.00    +0.000 OA
ATOM     17  H   UNL     1      -1.705   9.952  22.286  0.00  0.00    +0.000 HD
ENDBRANCH   5   7
BRANCH   1  25
ATOM     18  O   UNL     1       6.503   3.997  14.957  0.00  0.00    +0.000 OA
ATOM     19  C   UNL     1       6.484   4.854  15.817  0.00  0.00    +0.000 C 
ATOM     20  N   UNL     1       7.379   5.874  16.017  0.00  0.00    +0.000 N 
ATOM     21  C   UNL     1       7.032   6.638  17.103  0.00  0.00    +0.000 C 
ATOM     22  S   UNL     1       7.859   7.944  17.676  0.00  0.00    +0.000 S 
ATOM     23  N   UNL     1       5.872   6.115  17.641  0.00  0.00    +0.000 N 
ATOM     24  C   UNL     1       5.478   5.031  16.908  0.00  0.00    +0.000 C 
ATOM     25  C   UNL     1       4.408   4.252  17.101  0.00  0.00    +0.000 C 
ATOM     26  H   UNL     1       8.189   6.024  15.438  0.00  0.00    +0.000 HD
ATOM     27  H   UNL     1       5.390   6.485  18.453  0.00  0.00    +0.000 HD
ENDBRANCH   1  25
TORSDOF 2
ENDMDL
MODEL 4
REMARK VINA RESULT:      -8.3      2.757      8.064
REMARK  Name = 
REMARK  2 active torsions:
REMARK  status: ('A' for Active; 'I' for Inactive)
REMARK    1  A    between atoms: C_8  and  C_9
REMARK    2  A    between atoms: C_13  and  C_14
REMARK                            x       y       z     vdW  Elec       q    Type
REMARK                         _______ _______ _______ _____ _____    ______ ____
ROOT
ATOM      1  C   UNL     1       4.406   5.010  19.392  0.00  0.00    +0.000 A 
ATOM      2  C   UNL     1       3.578   3.954  19.778  0.00  0.00    +0.000 A 
ATOM      3  C   UNL     1       2.246   4.200  20.093  0.00  0.00    +0.000 A 
ATOM      4  C   UNL     1       1.739   5.496  19.993  0.00  0.00    +0.000 A 
ATOM      5  C   UNL     1       2.533   6.573  19.548  0.00  0.00    +0.000 A 
ATOM      6  C   UNL     1       3.883   6.305  19.279  0.00  0.00    +0.000 A 
ENDROOT
BRANCH   5   7
ATOM      7  C   UNL     1       1.964   7.934  19.419  0.00  0.00    +0.000 A 
ATOM      8  C   UNL     1       1.907   8.572  18.149  0.00  0.00    +0.000 A 
ATOM      9  C   UNL     1       1.118   9.701  17.927  0.00  0.00    +0.000 A 
ATOM     10  C   UNL     1       0.433  10.196  19.012  0.00  0.00    +0.000 A 
ATOM     11  C   UNL     1       0.612   9.714  20.303  0.00  0.00    +0.000 A 
ATOM     12  C   UNL     1       1.363   8.576  20.522  0.00  0.00    +0.000 A 
ATOM     13  C   UNL     1      -0.298  10.444  21.215  0.00  0.00    +0.000 C 
ATOM     14  N   UNL     1      -1.343  10.865  20.312  0.00  0.00    +0.000 N 
ATOM     15  C   UNL     1      -0.857  10.899  19.007  0.00  0.00    +0.000 C 
ATOM     16  O   UNL     1      -1.476  11.210  18.010  0.00  0.00    +0.000 OA
ATOM     17  H   UNL     1      -2.227  10.369  20.355  0.00  0.00    +0.000 HD
ENDBRANCH   5   7
BRANCH   1  25
ATOM     18  O   UNL     1       8.575   4.192  18.035  0.00  0.00    +0.000 OA
ATOM     19  C   UNL     1       7.587   4.305  17.336  0.00  0.00    +0.000 C 
ATOM     20  N   UNL     1       7.499   4.211  15.971  0.00  0.00    +0.000 N 
ATOM     21  C   UNL     1       6.212   4.410  15.538  0.00  0.00    +0.000 C 
ATOM     22  S   UNL     1       5.701   4.392  13.971  0.00  0.00    +0.000 S 
ATOM     23  N   UNL     1       5.419   4.641  16.646  0.00  0.00    +0.000 N 
ATOM     24  C   UNL     1       6.186   4.587  17.774  0.00  0.00    +0.000 C 
ATOM     25  C   UNL     1       5.796   4.754  19.043  0.00  0.00    +0.000 C 
ATOM     26  H   UNL     1       8.290   4.030  15.375  0.00  0.00    +0.000 HD
ATOM     27  H   UNL     1       4.421   4.819  16.618  0.00  0.00    +0.000 HD
ENDBRANCH   1  25
TORSDOF 2
ENDMDL
MODEL 5
REMARK VINA RESULT:      -8.3      2.932      3.688
REMARK  Name = 
REMARK  2 active torsions:
REMARK  status: ('A' for Active; 'I' for Inactive)
REMARK    1  A    between atoms: C_8  and  C_9
REMARK    2  A    between atoms: C_13  and  C_14
REMARK                            x       y       z     vdW  Elec       q    Type
REMARK                         _______ _______ _______ _____ _____    ______ ____
ROOT
ATOM      1  C   UNL     1       1.404   8.885  20.056  0.00  0.00    +0.000 A 
ATOM      2  C   UNL     1       1.315   9.765  18.976  0.00  0.00    +0.000 A 
ATOM      3  C   UNL     1       1.871   9.413  17.751  0.00  0.00    +0.000 A 
ATOM      4  C   UNL     1       2.488   8.171  17.602  0.00  0.00    +0.000 A 
ATOM      5  C   UNL     1       2.541   7.235  18.656  0.00  0.00    +0.000 A 
ATOM      6  C   UNL     1       2.011   7.633  19.892  0.00  0.00    +0.000 A 
ENDROOT
BRANCH   5   7
ATOM      7  C   UNL     1       3.172   5.910  18.464  0.00  0.00    +0.000 A 
ATOM      8  C   UNL     1       4.493   5.667  18.934  0.00  0.00    +0.000 A 
ATOM      9  C   UNL     1       5.007   4.376  19.052  0.00  0.00    +0.000 A 
ATOM     10  C   UNL     1       4.188   3.348  18.644  0.00  0.00    +0.000 A 
ATOM     11  C   UNL     1       2.971   3.559  18.008  0.00  0.00    +0.000 A 
ATOM     12  C   UNL     1       2.443   4.831  17.921  0.00  0.00    +0.000 A 
ATOM     13  C   UNL     1       2.341   2.245  17.739  0.00  0.00    +0.000 C 
ATOM     14  N   UNL     1       2.944   1.417  18.756  0.00  0.00    +0.000 N 
ATOM     15  C   UNL     1       4.150   1.977  19.172  0.00  0.00    +0.000 C 
ATOM     16  O   UNL     1       4.904   1.533  20.012  0.00  0.00    +0.000 OA
ATOM     17  H   UNL     1       2.370   1.162  19.554  0.00  0.00    +0.000 HD
ENDBRANCH   5   7
BRANCH   1  25
ATOM     18  O   UNL     1      -0.568  10.205  23.832  0.00  0.00    +0.000 OA
ATOM     19  C   UNL     1      -0.749  10.653  22.718  0.00  0.00    +0.000 C 
ATOM     20  N   UNL     1      -1.592  11.666  22.337  0.00  0.00    +0.000 N 
ATOM     21  C   UNL     1      -1.533  11.883  20.984  0.00  0.00    +0.000 C 
ATOM     22  S   UNL     1      -2.403  13.001  20.140  0.00  0.00    +0.000 S 
ATOM     23  N   UNL     1      -0.623  10.993  20.446  0.00  0.00    +0.000 N 
ATOM     24  C   UNL     1      -0.103  10.217  21.442  0.00  0.00    +0.000 C 
ATOM     25  C   UNL     1       0.807   9.241  21.336  0.00  0.00    +0.000 C 
ATOM     26  H   UNL     1      -2.181  12.169  22.980  0.00  0.00    +0.000 HD
ATOM     27  H   UNL     1      -0.381  10.933  19.463  0.00  0.00    +0.000 HD
ENDBRANCH   1  25
TORSDOF 2
ENDMDL
MODEL 6
REMARK VINA RESULT:      -8.2      3.043      7.978
REMARK  Name = 
REMARK  2 active torsions:
REMARK  status: ('A' for Active; 'I' for Inactive)
REMARK    1  A    between atoms: C_8  and  C_9
REMARK    2  A    between atoms: C_13  and  C_14
REMARK                            x       y       z     vdW  Elec       q    Type
REMARK                         _______ _______ _______ _____ _____    ______ ____
ROOT
ATOM      1  C   UNL     1       4.294   4.814  19.545  0.00  0.00    +0.000 A 
ATOM      2  C   UNL     1       3.548   3.648  19.725  0.00  0.00    +0.000 A 
ATOM      3  C   UNL     1       2.192   3.734  20.021  0.00  0.00    +0.000 A 
ATOM      4  C   UNL     1       1.580   4.985  20.106  0.00  0.00    +0.000 A 
ATOM      5  C   UNL     1       2.293   6.179  19.870  0.00  0.00    +0.000 A 
ATOM      6  C   UNL     1       3.668   6.065  19.618  0.00  0.00    +0.000 A 
ENDROOT
BRANCH   5   7
ATOM      7  C   UNL     1       1.615   7.494  19.934  0.00  0.00    +0.000 A 
ATOM      8  C   UNL     1       0.938   7.898  21.118  0.00  0.00    +0.000 A 
ATOM      9  C   UNL     1       0.557   9.222  21.334  0.00  0.00    +0.000 A 
ATOM     10  C   UNL     1       0.825  10.112  20.319  0.00  0.00    +0.000 A 
ATOM     11  C   UNL     1       1.312   9.720  19.079  0.00  0.00    +0.000 A 
ATOM     12  C   UNL     1       1.724   8.418  18.873  0.00  0.00    +0.000 A 
ATOM     13  C   UNL     1       1.516  10.926  18.243  0.00  0.00    +0.000 C 
ATOM     14  N   UNL     1       1.700  11.949  19.245  0.00  0.00    +0.000 N 
ATOM     15  C   UNL     1       1.122  11.545  20.447  0.00  0.00    +0.000 C 
ATOM     16  O   UNL     1       1.100  12.171  21.487  0.00  0.00    +0.000 OA
ATOM     17  H   UNL     1       2.643  12.292  19.397  0.00  0.00    +0.000 HD
ENDBRANCH   5   7
BRANCH   1  25
ATOM     18  O   UNL     1       8.551   4.499  18.253  0.00  0.00    +0.000 OA
ATOM     19  C   UNL     1       7.567   4.478  17.541  0.00  0.00    +0.000 C 
ATOM     20  N   UNL     1       7.510   4.354  16.176  0.00  0.00    +0.000 N 
ATOM     21  C   UNL     1       6.215   4.386  15.724  0.00  0.00    +0.000 C 
ATOM     22  S   UNL     1       5.732   4.280  14.151  0.00  0.00    +0.000 S 
ATOM     23  N   UNL     1       5.384   4.532  16.818  0.00  0.00    +0.000 N 
ATOM     24  C   UNL     1       6.136   4.591  17.957  0.00  0.00    +0.000 C 
ATOM     25  C   UNL     1       5.711   4.727  19.218  0.00  0.00    +0.000 C 
ATOM     26  H   UNL     1       8.326   4.263  15.592  0.00  0.00    +0.000 HD
ATOM     27  H   UNL     1       4.372   4.584  16.775  0.00  0.00    +0.000 HD
ENDBRANCH   1  25
TORSDOF 2
ENDMDL
MODEL 7
REMARK VINA RESULT:      -8.2      3.086      7.781
REMARK  Name = 
REMARK  2 active torsions:
REMARK  status: ('A' for Active; 'I' for Inactive)
REMARK    1  A    between atoms: C_8  and  C_9
REMARK    2  A    between atoms: C_13  and  C_14
REMARK                            x       y       z     vdW  Elec       q    Type
REMARK                         _______ _______ _______ _____ _____    ______ ____
ROOT
ATOM      1  C   UNL     1       3.755   4.688  18.726  0.00  0.00    +0.000 A 
ATOM      2  C   UNL     1       3.464   3.688  19.655  0.00  0.00    +0.000 A 
ATOM      3  C   UNL     1       2.604   3.958  20.714  0.00  0.00    +0.000 A 
ATOM      4  C   UNL     1       2.014   5.218  20.824  0.00  0.00    +0.000 A 
ATOM      5  C   UNL     1       2.241   6.230  19.868  0.00  0.00    +0.000 A 
ATOM      6  C   UNL     1       3.146   5.945  18.835  0.00  0.00    +0.000 A 
ENDROOT
BRANCH   5   7
ATOM      7  C   UNL     1       1.578   7.549  19.987  0.00  0.00    +0.000 A 
ATOM      8  C   UNL     1       1.012   7.961  21.225  0.00  0.00    +0.000 A 
ATOM      9  C   UNL     1       0.659   9.288  21.469  0.00  0.00    +0.000 A 
ATOM     10  C   UNL     1       0.840  10.172  20.431  0.00  0.00    +0.000 A 
ATOM     11  C   UNL     1       1.213   9.773  19.154  0.00  0.00    +0.000 A 
ATOM     12  C   UNL     1       1.597   8.469  18.917  0.00  0.00    +0.000 A 
ATOM     13  C   UNL     1       1.348  10.976  18.299  0.00  0.00    +0.000 C 
ATOM     14  N   UNL     1       1.626  12.000  19.277  0.00  0.00    +0.000 N 
ATOM     15  C   UNL     1       1.155  11.605  20.527  0.00  0.00    +0.000 C 
ATOM     16  O   UNL     1       1.229  12.234  21.562  0.00  0.00    +0.000 OA
ATOM     17  H   UNL     1       2.581  12.339  19.342  0.00  0.00    +0.000 HD
ENDBRANCH   5   7
BRANCH   1  25
ATOM     18  O   UNL     1       6.608   4.083  15.352  0.00  0.00    +0.000 OA
ATOM     19  C   UNL     1       6.616   4.988  16.163  0.00  0.00    +0.000 C 
ATOM     20  N   UNL     1       7.489   6.041  16.250  0.00  0.00    +0.000 N 
ATOM     21  C   UNL     1       7.185   6.856  17.311  0.00  0.00    +0.000 C 
ATOM     22  S   UNL     1       8.005   8.215  17.758  0.00  0.00    +0.000 S 
ATOM     23  N   UNL     1       6.077   6.334  17.949  0.00  0.00    +0.000 N 
ATOM     24  C   UNL     1       5.673   5.200  17.303  0.00  0.00    +0.000 C 
ATOM     25  C   UNL     1       4.641   4.404  17.605  0.00  0.00    +0.000 C 
ATOM     26  H   UNL     1       8.258   6.179  15.614  0.00  0.00    +0.000 HD
ATOM     27  H   UNL     1       5.635   6.736  18.767  0.00  0.00    +0.000 HD
ENDBRANCH   1  25
TORSDOF 2
ENDMDL
MODEL 8
REMARK VINA RESULT:      -8.1      2.705      2.922
REMARK  Name = 
REMARK  2 active torsions:
REMARK  status: ('A' for Active; 'I' for Inactive)
REMARK    1  A    between atoms: C_8  and  C_9
REMARK    2  A    between atoms: C_13  and  C_14
REMARK                            x       y       z     vdW  Elec       q    Type
REMARK                         _______ _______ _______ _____ _____    ______ ____
ROOT
ATOM      1  C   UNL     1       0.771   9.931  19.557  0.00  0.00    +0.000 A 
ATOM      2  C   UNL     1       0.604   9.557  20.892  0.00  0.00    +0.000 A 
ATOM      3  C   UNL     1       1.098   8.335  21.334  0.00  0.00    +0.000 A 
ATOM      4  C   UNL     1       1.784   7.504  20.447  0.00  0.00    +0.000 A 
ATOM      5  C   UNL     1       2.021   7.879  19.108  0.00  0.00    +0.000 A 
ATOM      6  C   UNL     1       1.473   9.097  18.678  0.00  0.00    +0.000 A 
ENDROOT
BRANCH   5   7
ATOM      7  C   UNL     1       2.779   6.995  18.195  0.00  0.00    +0.000 A 
ATOM      8  C   UNL     1       3.893   7.498  17.466  0.00  0.00    +0.000 A 
ATOM      9  C   UNL     1       4.809   6.650  16.843  0.00  0.00    +0.000 A 
ATOM     10  C   UNL     1       4.554   5.301  16.927  0.00  0.00    +0.000 A 
ATOM     11  C   UNL     1       3.382   4.785  17.466  0.00  0.00    +0.000 A 
ATOM     12  C   UNL     1       2.491   5.616  18.115  0.00  0.00    +0.000 A 
ATOM     13  C   UNL     1       3.451   3.306  17.429  0.00  0.00    +0.000 C 
ATOM     14  N   UNL     1       4.876   3.079  17.427  0.00  0.00    +0.000 N 
ATOM     15  C   UNL     1       5.537   4.208  16.949  0.00  0.00    +0.000 C 
ATOM     16  O   UNL     1       6.735   4.347  16.819  0.00  0.00    +0.000 OA
ATOM     17  H   UNL     1       5.300   2.752  18.290  0.00  0.00    +0.000 HD
ENDBRANCH   5   7
BRANCH   1  25
ATOM     18  O   UNL     1      -0.536  14.005  18.296  0.00  0.00    +0.000 OA
ATOM     19  C   UNL     1       0.453  13.721  18.942  0.00  0.00    +0.000 C 
ATOM     20  N   UNL     1       1.410  14.567  19.443  0.00  0.00    +0.000 N 
ATOM     21  C   UNL     1       2.388  13.875  20.111  0.00  0.00    +0.000 C 
ATOM     22  S   UNL     1       3.715  14.528  20.841  0.00  0.00    +0.000 S 
ATOM     23  N   UNL     1       2.075  12.530  20.056  0.00  0.00    +0.000 N 
ATOM     24  C   UNL     1       0.909  12.362  19.365  0.00  0.00    +0.000 C 
ATOM     25  C   UNL     1       0.270  11.218  19.094  0.00  0.00    +0.000 C 
ATOM     26  H   UNL     1       1.388  15.566  19.319  0.00  0.00    +0.000 HD
ATOM     27  H   UNL     1       2.629  11.788  20.470  0.00  0.00    +0.000 HD
ENDBRANCH   1  25
TORSDOF 2
ENDMDL
MODEL 9
REMARK VINA RESULT:      -8.0      3.508      8.203
REMARK  Name = 
REMARK  2 active torsions:
REMARK  status: ('A' for Active; 'I' for Inactive)
REMARK    1  A    between atoms: C_8  and  C_9
REMARK    2  A    between atoms: C_13  and  C_14
REMARK                            x       y       z     vdW  Elec       q    Type
REMARK                         _______ _______ _______ _____ _____    ______ ____
ROOT
ATOM      1  C   UNL     1       5.401   5.053  16.855  0.00  0.00    +0.000 A 
ATOM      2  C   UNL     1       5.237   3.728  17.264  0.00  0.00    +0.000 A 
ATOM      3  C   UNL     1       4.236   3.405  18.174  0.00  0.00    +0.000 A 
ATOM      4  C   UNL     1       3.384   4.403  18.649  0.00  0.00    +0.000 A 
ATOM      5  C   UNL     1       3.485   5.739  18.209  0.00  0.00    +0.000 A 
ATOM      6  C   UNL     1       4.531   6.044  17.326  0.00  0.00    +0.000 A 
ENDROOT
BRANCH   5   7
ATOM      7  C   UNL     1       2.549   6.774  18.702  0.00  0.00    +0.000 A 
ATOM      8  C   UNL     1       2.052   6.720  20.034  0.00  0.00    +0.000 A 
ATOM      9  C   UNL     1       1.426   7.813  20.633  0.00  0.00    +0.000 A 
ATOM     10  C   UNL     1       1.269   8.934  19.852  0.00  0.00    +0.000 A 
ATOM     11  C   UNL     1       1.571   8.960  18.496  0.00  0.00    +0.000 A 
ATOM     12  C   UNL     1       2.222   7.894  17.908  0.00  0.00    +0.000 A 
ATOM     13  C   UNL     1       1.316  10.324  17.976  0.00  0.00    +0.000 C 
ATOM     14  N   UNL     1       1.457  11.123  19.169  0.00  0.00    +0.000 N 
ATOM     15  C   UNL     1       1.245  10.334  20.298  0.00  0.00    +0.000 C 
ATOM     16  O   UNL     1       1.290  10.697  21.455  0.00  0.00    +0.000 OA
ATOM     17  H   UNL     1       2.305  11.672  19.268  0.00  0.00    +0.000 HD
ENDBRANCH   5   7
BRANCH   1  25
ATOM     18  O   UNL     1       8.453   5.882  13.710  0.00  0.00    +0.000 OA
ATOM     19  C   UNL     1       7.502   5.131  13.626  0.00  0.00    +0.000 C 
ATOM     20  N   UNL     1       7.125   4.355  12.560  0.00  0.00    +0.000 N 
ATOM     21  C   UNL     1       5.984   3.646  12.836  0.00  0.00    +0.000 C 
ATOM     22  S   UNL     1       5.209   2.614  11.809  0.00  0.00    +0.000 S 
ATOM     23  N   UNL     1       5.588   3.955  14.123  0.00  0.00    +0.000 N 
ATOM     24  C   UNL     1       6.466   4.849  14.667  0.00  0.00    +0.000 C 
ATOM     25  C   UNL     1       6.437   5.392  15.889  0.00  0.00    +0.000 C 
ATOM     26  H   UNL     1       7.628   4.328  11.688  0.00  0.00    +0.000 HD
ATOM     27  H   UNL     1       4.772   3.572  14.587  0.00  0.00    +0.000 HD
ENDBRANCH   1  25
TORSDOF 2
ENDMDL
