MODEL 1
REMARK VINA RESULT:      -8.3      0.000      0.000
REMARK  Name = 
REMARK  13 active torsions:
REMARK  status: ('A' for Active; 'I' for Inactive)
REMARK    1  A    between atoms: C_1  and  N_2
REMARK    2  A    between atoms: C_3  and  O_5
REMARK    3  A    between atoms: O_5  and  C_6
REMARK    4  A    between atoms: C_10  and  C_11
REMARK    5  A    between atoms: C_11  and  N_12
REMARK    6  A    between atoms: N_12  and  C_13
REMARK    7  A    between atoms: N_12  and  C_32
REMARK    8  A    between atoms: C_13  and  C_14
REMARK    9  A    between atoms: C_14  and  C_15
REMARK   10  A    between atoms: C_15  and  O_16
REMARK   11  A    between atoms: O_16  and  C_17
REMARK   12  A    between atoms: C_32  and  C_33
REMARK   13  A    between atoms: C_32  and  C_34
REMARK                            x       y       z     vdW  Elec       q    Type
REMARK                         _______ _______ _______ _____ _____    ______ ____
ROOT
ATOM      1  C   UNL     1       2.989   4.671  20.369  0.00  0.00    +0.000 C 
ENDROOT
BRANCH   1   2
ATOM      2  N   UNL     1       3.221   3.817  19.185  0.00  0.00    +0.000 NA
BRANCH   2   3
ATOM      3  C   UNL     1       2.490   2.530  19.190  0.00  0.00    +0.000 C 
ATOM      4  C   UNL     1       1.072   2.618  18.601  0.00  0.00    +0.000 C 
ATOM      5  C   UNL     1       3.228   1.425  18.411  0.00  0.00    +0.000 C 
ENDBRANCH   2   3
BRANCH   2   6
ATOM      6  C   UNL     1       3.104   4.566  17.910  0.00  0.00    +0.000 C 
BRANCH   6  11
ATOM      7  C   UNL     1       6.250   6.440  16.827  0.00  0.00    +0.000 A 
ATOM      8  C   UNL     1       6.766   5.597  15.846  0.00  0.00    +0.000 A 
ATOM      9  C   UNL     1       6.152   4.369  15.602  0.00  0.00    +0.000 A 
ATOM     10  C   UNL     1       4.997   4.014  16.303  0.00  0.00    +0.000 A 
ATOM     11  C   UNL     1       4.441   4.885  17.255  0.00  0.00    +0.000 A 
ATOM     12  C   UNL     1       5.106   6.089  17.545  0.00  0.00    +0.000 A 
BRANCH   7  13
ATOM     13  O   UNL     1       6.850   7.710  16.931  0.00  0.00    +0.000 OA
BRANCH  13  16
ATOM     14  C   UNL     1       9.060   9.860  18.810  0.00  0.00    +0.000 C 
ATOM     15  N   UNL     1       8.119   9.294  17.884  0.00  0.00    +0.000 N 
ATOM     16  C   UNL     1       7.808   7.963  17.896  0.00  0.00    +0.000 C 
ATOM     17  O   UNL     1       8.314   7.132  18.649  0.00  0.00    +0.000 OA
ATOM     18  H   UNL     1       7.575   9.883  17.269  0.00  0.00    +0.000 HD
ENDBRANCH  13  16
ENDBRANCH   7  13
ENDBRANCH   6  11
ENDBRANCH   2   6
ENDBRANCH   1   2
BRANCH   1  19
ATOM     19  C   UNL     1       1.721   5.530  20.469  0.00  0.00    +0.000 C 
BRANCH  19  20
ATOM     20  C   UNL     1       1.894   7.045  20.418  0.00  0.00    +0.000 C 
BRANCH  20  21
ATOM     21  O   UNL     1       0.936   7.596  21.324  0.00  0.00    +0.000 OA
BRANCH  21  22
ATOM     22  C   UNL     1       0.640   8.922  21.193  0.00  0.00    +0.000 A 
ATOM     23  C   UNL     1       0.872   9.419  19.907  0.00  0.00    +0.000 A 
ATOM     24  C   UNL     1       0.540  10.729  19.587  0.00  0.00    +0.000 A 
ATOM     25  C   UNL     1      -0.007  11.544  20.575  0.00  0.00    +0.000 A 
ATOM     26  C   UNL     1      -0.611  12.829  20.214  0.00  0.00    +0.000 A 
ATOM     27  O   UNL     1      -0.550  13.278  19.077  0.00  0.00    +0.000 OA
ATOM     28  C   UNL     1      -1.336  13.523  21.280  0.00  0.00    +0.000 A 
ATOM     29  C   UNL     1      -2.220  14.560  20.982  0.00  0.00    +0.000 A 
ATOM     30  C   UNL     1      -2.800  15.278  22.021  0.00  0.00    +0.000 A 
ATOM     31  C   UNL     1      -2.445  14.996  23.343  0.00  0.00    +0.000 A 
ATOM     32  C   UNL     1      -1.603  13.915  23.633  0.00  0.00    +0.000 A 
ATOM     33  C   UNL     1      -1.107  13.127  22.594  0.00  0.00    +0.000 A 
ATOM     34  O   UNL     1      -0.465  11.954  22.928  0.00  0.00    +0.000 OA
ATOM     35  C   UNL     1      -0.108  11.110  21.897  0.00  0.00    +0.000 A 
ATOM     36  C   UNL     1       0.184   9.775  22.204  0.00  0.00    +0.000 A 
ENDBRANCH  21  22
ENDBRANCH  20  21
ENDBRANCH  19  20
ENDBRANCH   1  19
TORSDOF 10
ENDMDL
MODEL 2
REMARK VINA RESULT:      -8.2      1.475      1.813
REMARK  Name = 
REMARK  13 active torsions:
REMARK  status: ('A' for Active; 'I' for Inactive)
REMARK    1  A    between atoms: C_1  and  N_2
REMARK    2  A    between atoms: C_3  and  O_5
REMARK    3  A    between atoms: O_5  and  C_6
REMARK    4  A    between atoms: C_10  and  C_11
REMARK    5  A    between atoms: C_11  and  N_12
REMARK    6  A    between atoms: N_12  and  C_13
REMARK    7  A    between atoms: N_12  and  C_32
REMARK    8  A    between atoms: C_13  and  C_14
REMARK    9  A    between atoms: C_14  and  C_15
REMARK   10  A    between atoms: C_15  and  O_16
REMARK   11  A    between atoms: O_16  and  C_17
REMARK   12  A    between atoms: C_32  and  C_33
REMARK   13  A    between atoms: C_32  and  C_34
REMARK                            x       y       z     vdW  Elec       q    Type
REMARK                         _______ _______ _______ _____ _____    ______ ____
ROOT
ATOM      1  C   UNL     1       2.214   4.924  18.873  0.00  0.00    +0.000 C 
ENDROOT
BRANCH   1   2
ATOM      2  N   UNL     1       3.245   3.884  19.072  0.00  0.00    +0.000 NA
BRANCH   2   3
ATOM      3  C   UNL     1       2.973   2.938  20.178  0.00  0.00    +0.000 C 
ATOM      4  C   UNL     1       4.228   2.227  20.711  0.00  0.00    +0.000 C 
ATOM      5  C   UNL     1       2.299   3.617  21.386  0.00  0.00    +0.000 C 
ENDBRANCH   2   3
BRANCH   2   6
ATOM      6  C   UNL     1       3.640   3.222  17.804  0.00  0.00    +0.000 C 
BRANCH   6  11
ATOM      7  C   UNL     1       6.942   5.098  17.408  0.00  0.00    +0.000 A 
ATOM      8  C   UNL     1       7.193   4.958  16.045  0.00  0.00    +0.000 A 
ATOM      9  C   UNL     1       6.346   4.170  15.268  0.00  0.00    +0.000 A 
ATOM     10  C   UNL     1       5.225   3.569  15.845  0.00  0.00    +0.000 A 
ATOM     11  C   UNL     1       4.937   3.752  17.208  0.00  0.00    +0.000 A 
ATOM     12  C   UNL     1       5.835   4.489  17.999  0.00  0.00    +0.000 A 
BRANCH   7  13
ATOM     13  O   UNL     1       7.769   6.004  18.101  0.00  0.00    +0.000 OA
BRANCH  13  16
ATOM     14  C   UNL     1       8.708   9.448  18.638  0.00  0.00    +0.000 C 
ATOM     15  N   UNL     1       8.538   8.023  18.697  0.00  0.00    +0.000 N 
ATOM     16  C   UNL     1       7.699   7.361  17.845  0.00  0.00    +0.000 C 
ATOM     17  O   UNL     1       6.997   7.902  16.993  0.00  0.00    +0.000 OA
ATOM     18  H   UNL     1       9.119   7.455  19.298  0.00  0.00    +0.000 HD
ENDBRANCH  13  16
ENDBRANCH   7  13
ENDBRANCH   6  11
ENDBRANCH   2   6
ENDBRANCH   1   2
BRANCH   1  19
ATOM     19  C   UNL     1       2.418   6.028  17.826  0.00  0.00    +0.000 C 
BRANCH  19  20
ATOM     20  C   UNL     1       2.825   7.408  18.332  0.00  0.00    +0.000 C 
BRANCH  20  21
ATOM     21  O   UNL     1       2.208   7.574  19.610  0.00  0.00    +0.000 OA
BRANCH  21  22
ATOM     22  C   UNL     1       1.457   8.697  19.802  0.00  0.00    +0.000 A 
ATOM     23  C   UNL     1       1.345   9.493  18.658  0.00  0.00    +0.000 A 
ATOM     24  C   UNL     1       0.543  10.628  18.665  0.00  0.00    +0.000 A 
ATOM     25  C   UNL     1      -0.128  10.969  19.836  0.00  0.00    +0.000 A 
ATOM     26  C   UNL     1      -1.180  11.989  19.808  0.00  0.00    +0.000 A 
ATOM     27  O   UNL     1      -1.416  12.649  18.805  0.00  0.00    +0.000 OA
ATOM     28  C   UNL     1      -1.965  12.140  21.034  0.00  0.00    +0.000 A 
ATOM     29  C   UNL     1      -3.183  12.820  21.020  0.00  0.00    +0.000 A 
ATOM     30  C   UNL     1      -3.846  13.051  22.221  0.00  0.00    +0.000 A 
ATOM     31  C   UNL     1      -3.258  12.657  23.425  0.00  0.00    +0.000 A 
ATOM     32  C   UNL     1      -2.065  11.923  23.423  0.00  0.00    +0.000 A 
ATOM     33  C   UNL     1      -1.456  11.598  22.210  0.00  0.00    +0.000 A 
ATOM     34  O   UNL     1      -0.412  10.699  22.237  0.00  0.00    +0.000 OA
ATOM     35  C   UNL     1       0.088  10.270  21.024  0.00  0.00    +0.000 A 
ATOM     36  C   UNL     1       0.860   9.102  21.002  0.00  0.00    +0.000 A 
ENDBRANCH  21  22
ENDBRANCH  20  21
ENDBRANCH  19  20
ENDBRANCH   1  19
TORSDOF 10
ENDMDL
MODEL 3
REMARK VINA RESULT:      -8.0      4.610     10.485
REMARK  Name = 
REMARK  13 active torsions:
REMARK  status: ('A' for Active; 'I' for Inactive)
REMARK    1  A    between atoms: C_1  and  N_2
REMARK    2  A    between atoms: C_3  and  O_5
REMARK    3  A    between atoms: O_5  and  C_6
REMARK    4  A    between atoms: C_10  and  C_11
REMARK    5  A    between atoms: C_11  and  N_12
REMARK    6  A    between atoms: N_12  and  C_13
REMARK    7  A    between atoms: N_12  and  C_32
REMARK    8  A    between atoms: C_13  and  C_14
REMARK    9  A    between atoms: C_14  and  C_15
REMARK   10  A    between atoms: C_15  and  O_16
REMARK   11  A    between atoms: O_16  and  C_17
REMARK   12  A    between atoms: C_32  and  C_33
REMARK   13  A    between atoms: C_32  and  C_34
REMARK                            x       y       z     vdW  Elec       q    Type
REMARK                         _______ _______ _______ _____ _____    ______ ____
ROOT
ATOM      1  C   UNL     1       9.442  11.034  19.108  0.00  0.00    +0.000 C 
ENDROOT
BRANCH   1   2
ATOM      2  N   UNL     1       9.817  12.445  18.885  0.00  0.00    +0.000 NA
BRANCH   2   3
ATOM      3  C   UNL     1      11.272  12.692  18.758  0.00  0.00    +0.000 C 
ATOM      4  C   UNL     1      12.146  11.541  19.283  0.00  0.00    +0.000 C 
ATOM      5  C   UNL     1      11.704  12.952  17.302  0.00  0.00    +0.000 C 
ENDBRANCH   2   3
BRANCH   2   6
ATOM      6  C   UNL     1       9.007  13.091  17.822  0.00  0.00    +0.000 C 
BRANCH   6  11
ATOM      7  C   UNL     1       6.547  15.706  19.124  0.00  0.00    +0.000 A 
ATOM      8  C   UNL     1       7.162  16.896  18.743  0.00  0.00    +0.000 A 
ATOM      9  C   UNL     1       8.425  16.860  18.153  0.00  0.00    +0.000 A 
ATOM     10  C   UNL     1       9.043  15.633  17.900  0.00  0.00    +0.000 A 
ATOM     11  C   UNL     1       8.402  14.427  18.232  0.00  0.00    +0.000 A 
ATOM     12  C   UNL     1       7.161  14.475  18.890  0.00  0.00    +0.000 A 
BRANCH   7  13
ATOM     13  O   UNL     1       5.226  15.815  19.600  0.00  0.00    +0.000 OA
BRANCH  13  16
ATOM     14  C   UNL     1       1.754  16.278  18.726  0.00  0.00    +0.000 C 
ATOM     15  N   UNL     1       3.022  16.168  19.391  0.00  0.00    +0.000 N 
ATOM     16  C   UNL     1       4.155  15.793  18.725  0.00  0.00    +0.000 C 
ATOM     17  O   UNL     1       4.199  15.484  17.535  0.00  0.00    +0.000 OA
ATOM     18  H   UNL     1       3.136  16.472  20.348  0.00  0.00    +0.000 HD
ENDBRANCH  13  16
ENDBRANCH   7  13
ENDBRANCH   6  11
ENDBRANCH   2   6
ENDBRANCH   1   2
BRANCH   1  19
ATOM     19  C   UNL     1       8.717  10.242  18.011  0.00  0.00    +0.000 C 
BRANCH  19  20
ATOM     20  C   UNL     1       8.473   8.757  18.262  0.00  0.00    +0.000 C 
BRANCH  20  21
ATOM     21  O   UNL     1       7.462   8.346  17.339  0.00  0.00    +0.000 OA
BRANCH  21  22
ATOM     22  C   UNL     1       6.767   7.210  17.635  0.00  0.00    +0.000 A 
ATOM     23  C   UNL     1       7.525   6.258  18.323  0.00  0.00    +0.000 A 
ATOM     24  C   UNL     1       6.939   5.082  18.773  0.00  0.00    +0.000 A 
ATOM     25  C   UNL     1       5.591   4.858  18.507  0.00  0.00    +0.000 A 
ATOM     26  C   UNL     1       4.880   3.772  19.187  0.00  0.00    +0.000 A 
ATOM     27  O   UNL     1       5.459   2.965  19.901  0.00  0.00    +0.000 OA
ATOM     28  C   UNL     1       3.428   3.737  19.002  0.00  0.00    +0.000 A 
ATOM     29  C   UNL     1       2.621   2.977  19.848  0.00  0.00    +0.000 A 
ATOM     30  C   UNL     1       1.262   2.867  19.574  0.00  0.00    +0.000 A 
ATOM     31  C   UNL     1       0.736   3.465  18.425  0.00  0.00    +0.000 A 
ATOM     32  C   UNL     1       1.543   4.273  17.616  0.00  0.00    +0.000 A 
ATOM     33  C   UNL     1       2.882   4.471  17.953  0.00  0.00    +0.000 A 
ATOM     34  O   UNL     1       3.583   5.436  17.263  0.00  0.00    +0.000 OA
ATOM     35  C   UNL     1       4.859   5.728  17.698  0.00  0.00    +0.000 A 
ATOM     36  C   UNL     1       5.440   6.933  17.286  0.00  0.00    +0.000 A 
ENDBRANCH  21  22
ENDBRANCH  20  21
ENDBRANCH  19  20
ENDBRANCH   1  19
TORSDOF 10
ENDMDL
MODEL 4
REMARK VINA RESULT:      -8.0      2.079      2.933
REMARK  Name = 
REMARK  13 active torsions:
REMARK  status: ('A' for Active; 'I' for Inactive)
REMARK    1  A    between atoms: C_1  and  N_2
REMARK    2  A    between atoms: C_3  and  O_5
REMARK    3  A    between atoms: O_5  and  C_6
REMARK    4  A    between atoms: C_10  and  C_11
REMARK    5  A    between atoms: C_11  and  N_12
REMARK    6  A    between atoms: N_12  and  C_13
REMARK    7  A    between atoms: N_12  and  C_32
REMARK    8  A    between atoms: C_13  and  C_14
REMARK    9  A    between atoms: C_14  and  C_15
REMARK   10  A    between atoms: C_15  and  O_16
REMARK   11  A    between atoms: O_16  and  C_17
REMARK   12  A    between atoms: C_32  and  C_33
REMARK   13  A    between atoms: C_32  and  C_34
REMARK                            x       y       z     vdW  Elec       q    Type
REMARK                         _______ _______ _______ _____ _____    ______ ____
ROOT
ATOM      1  C   UNL     1       1.594   3.804  19.140  0.00  0.00    +0.000 C 
ENDROOT
BRANCH   1   2
ATOM      2  N   UNL     1       2.990   3.878  18.661  0.00  0.00    +0.000 NA
BRANCH   2   3
ATOM      3  C   UNL     1       3.746   2.608  18.741  0.00  0.00    +0.000 C 
ATOM      4  C   UNL     1       4.409   2.364  20.107  0.00  0.00    +0.000 C 
ATOM      5  C   UNL     1       2.869   1.376  18.444  0.00  0.00    +0.000 C 
ENDBRANCH   2   3
BRANCH   2   6
ATOM      6  C   UNL     1       3.107   4.561  17.348  0.00  0.00    +0.000 C 
BRANCH   6  11
ATOM      7  C   UNL     1       6.588   5.066  15.863  0.00  0.00    +0.000 A 
ATOM      8  C   UNL     1       7.140   6.006  16.730  0.00  0.00    +0.000 A 
ATOM      9  C   UNL     1       6.351   6.556  17.739  0.00  0.00    +0.000 A 
ATOM     10  C   UNL     1       5.033   6.125  17.909  0.00  0.00    +0.000 A 
ATOM     11  C   UNL     1       4.489   5.136  17.072  0.00  0.00    +0.000 A 
ATOM     12  C   UNL     1       5.269   4.639  16.013  0.00  0.00    +0.000 A 
BRANCH   7  13
ATOM     13  O   UNL     1       7.478   4.468  14.949  0.00  0.00    +0.000 OA
BRANCH  13  16
ATOM     14  C   UNL     1       8.232   6.149  11.844  0.00  0.00    +0.000 C 
ATOM     15  N   UNL     1       8.135   5.725  13.212  0.00  0.00    +0.000 N 
ATOM     16  C   UNL     1       7.341   4.678  13.589  0.00  0.00    +0.000 C 
ATOM     17  O   UNL     1       6.621   4.036  12.826  0.00  0.00    +0.000 OA
ATOM     18  H   UNL     1       8.738   6.118  13.923  0.00  0.00    +0.000 HD
ENDBRANCH  13  16
ENDBRANCH   7  13
ENDBRANCH   6  11
ENDBRANCH   2   6
ENDBRANCH   1   2
BRANCH   1  19
ATOM     19  C   UNL     1       1.178   4.526  20.429  0.00  0.00    +0.000 C 
BRANCH  19  20
ATOM     20  C   UNL     1       2.122   5.595  20.971  0.00  0.00    +0.000 C 
BRANCH  20  21
ATOM     21  O   UNL     1       2.340   6.525  19.908  0.00  0.00    +0.000 OA
BRANCH  21  22
ATOM     22  C   UNL     1       1.746   7.749  20.015  0.00  0.00    +0.000 A 
ATOM     23  C   UNL     1       1.884   8.535  18.867  0.00  0.00    +0.000 A 
ATOM     24  C   UNL     1       1.262   9.775  18.783  0.00  0.00    +0.000 A 
ATOM     25  C   UNL     1       0.519  10.228  19.870  0.00  0.00    +0.000 A 
ATOM     26  C   UNL     1      -0.361  11.391  19.722  0.00  0.00    +0.000 A 
ATOM     27  O   UNL     1      -0.381  12.063  18.699  0.00  0.00    +0.000 OA
ATOM     28  C   UNL     1      -1.251  11.673  20.849  0.00  0.00    +0.000 A 
ATOM     29  C   UNL     1      -2.346  12.524  20.695  0.00  0.00    +0.000 A 
ATOM     30  C   UNL     1      -3.102  12.867  21.812  0.00  0.00    +0.000 A 
ATOM     31  C   UNL     1      -2.720  12.409  23.075  0.00  0.00    +0.000 A 
ATOM     32  C   UNL     1      -1.656  11.509  23.209  0.00  0.00    +0.000 A 
ATOM     33  C   UNL     1      -0.966  11.080  22.075  0.00  0.00    +0.000 A 
ATOM     34  O   UNL     1      -0.076  10.038  22.220  0.00  0.00    +0.000 OA
ATOM     35  C   UNL     1       0.492   9.523  21.073  0.00  0.00    +0.000 A 
ATOM     36  C   UNL     1       1.080   8.254  21.138  0.00  0.00    +0.000 A 
ENDBRANCH  21  22
ENDBRANCH  20  21
ENDBRANCH  19  20
ENDBRANCH   1  19
TORSDOF 10
ENDMDL
MODEL 5
REMARK VINA RESULT:      -8.0      2.855      3.886
REMARK  Name = 
REMARK  13 active torsions:
REMARK  status: ('A' for Active; 'I' for Inactive)
REMARK    1  A    between atoms: C_1  and  N_2
REMARK    2  A    between atoms: C_3  and  O_5
REMARK    3  A    between atoms: O_5  and  C_6
REMARK    4  A    between atoms: C_10  and  C_11
REMARK    5  A    between atoms: C_11  and  N_12
REMARK    6  A    between atoms: N_12  and  C_13
REMARK    7  A    between atoms: N_12  and  C_32
REMARK    8  A    between atoms: C_13  and  C_14
REMARK    9  A    between atoms: C_14  and  C_15
REMARK   10  A    between atoms: C_15  and  O_16
REMARK   11  A    between atoms: O_16  and  C_17
REMARK   12  A    between atoms: C_32  and  C_33
REMARK   13  A    between atoms: C_32  and  C_34
REMARK                            x       y       z     vdW  Elec       q    Type
REMARK                         _______ _______ _______ _____ _____    ______ ____
ROOT
ATOM      1  C   UNL     1       1.928   6.968  18.320  0.00  0.00    +0.000 C 
ENDROOT
BRANCH   1   2
ATOM      2  N   UNL     1       2.632   5.738  18.737  0.00  0.00    +0.000 NA
BRANCH   2   3
ATOM      3  C   UNL     1       1.837   4.818  19.582  0.00  0.00    +0.000 C 
ATOM      4  C   UNL     1       2.596   3.549  20.005  0.00  0.00    +0.000 C 
ATOM      5  C   UNL     1       1.333   5.488  20.875  0.00  0.00    +0.000 C 
ENDBRANCH   2   3
BRANCH   2   6
ATOM      6  C   UNL     1       3.322   5.065  17.608  0.00  0.00    +0.000 C 
BRANCH   6  11
ATOM      7  C   UNL     1       6.996   4.989  16.572  0.00  0.00    +0.000 A 
ATOM      8  C   UNL     1       7.646   5.068  17.802  0.00  0.00    +0.000 A 
ATOM      9  C   UNL     1       6.897   5.249  18.964  0.00  0.00    +0.000 A 
ATOM     10  C   UNL     1       5.502   5.297  18.896  0.00  0.00    +0.000 A 
ATOM     11  C   UNL     1       4.840   5.162  17.665  0.00  0.00    +0.000 A 
ATOM     12  C   UNL     1       5.605   5.051  16.491  0.00  0.00    +0.000 A 
BRANCH   7  13
ATOM     13  O   UNL     1       7.807   4.685  15.461  0.00  0.00    +0.000 OA
BRANCH  13  16
ATOM     14  C   UNL     1       5.718   3.463  12.782  0.00  0.00    +0.000 C 
ATOM     15  N   UNL     1       6.439   3.664  14.008  0.00  0.00    +0.000 N 
ATOM     16  C   UNL     1       7.291   4.720  14.178  0.00  0.00    +0.000 C 
ATOM     17  O   UNL     1       7.551   5.557  13.316  0.00  0.00    +0.000 OA
ATOM     18  H   UNL     1       6.253   3.093  14.821  0.00  0.00    +0.000 HD
ENDBRANCH  13  16
ENDBRANCH   7  13
ENDBRANCH   6  11
ENDBRANCH   2   6
ENDBRANCH   1   2
BRANCH   1  19
ATOM     19  C   UNL     1       2.718   8.174  17.795  0.00  0.00    +0.000 C 
BRANCH  19  20
ATOM     20  C   UNL     1       2.092   9.555  17.974  0.00  0.00    +0.000 C 
BRANCH  20  21
ATOM     21  O   UNL     1       1.134   9.436  19.027  0.00  0.00    +0.000 OA
BRANCH  21  22
ATOM     22  C   UNL     1      -0.047  10.103  18.878  0.00  0.00    +0.000 A 
ATOM     23  C   UNL     1      -0.691   9.829  17.668  0.00  0.00    +0.000 A 
ATOM     24  C   UNL     1      -1.946  10.362  17.401  0.00  0.00    +0.000 A 
ATOM     25  C   UNL     1      -2.539  11.191  18.350  0.00  0.00    +0.000 A 
ATOM     26  C   UNL     1      -3.955  11.550  18.226  0.00  0.00    +0.000 A 
ATOM     27  O   UNL     1      -4.618  11.244  17.245  0.00  0.00    +0.000 OA
ATOM     28  C   UNL     1      -4.542  12.255  19.367  0.00  0.00    +0.000 A 
ATOM     29  C   UNL     1      -5.927  12.347  19.510  0.00  0.00    +0.000 A 
ATOM     30  C   UNL     1      -6.455  13.123  20.536  0.00  0.00    +0.000 A 
ATOM     31  C   UNL     1      -5.597  13.848  21.368  0.00  0.00    +0.000 A 
ATOM     32  C   UNL     1      -4.210  13.702  21.253  0.00  0.00    +0.000 A 
ATOM     33  C   UNL     1      -3.683  12.838  20.293  0.00  0.00    +0.000 A 
ATOM     34  O   UNL     1      -2.335  12.556  20.352  0.00  0.00    +0.000 OA
ATOM     35  C   UNL     1      -1.849  11.591  19.494  0.00  0.00    +0.000 A 
ATOM     36  C   UNL     1      -0.606  11.015  19.781  0.00  0.00    +0.000 A 
ENDBRANCH  21  22
ENDBRANCH  20  21
ENDBRANCH  19  20
ENDBRANCH   1  19
TORSDOF 10
ENDMDL
MODEL 6
REMARK VINA RESULT:      -7.9      2.277      2.975
REMARK  Name = 
REMARK  13 active torsions:
REMARK  status: ('A' for Active; 'I' for Inactive)
REMARK    1  A    between atoms: C_1  and  N_2
REMARK    2  A    between atoms: C_3  and  O_5
REMARK    3  A    between atoms: O_5  and  C_6
REMARK    4  A    between atoms: C_10  and  C_11
REMARK    5  A    between atoms: C_11  and  N_12
REMARK    6  A    between atoms: N_12  and  C_13
REMARK    7  A    between atoms: N_12  and  C_32
REMARK    8  A    between atoms: C_13  and  C_14
REMARK    9  A    between atoms: C_14  and  C_15
REMARK   10  A    between atoms: C_15  and  O_16
REMARK   11  A    between atoms: O_16  and  C_17
REMARK   12  A    between atoms: C_32  and  C_33
REMARK   13  A    between atoms: C_32  and  C_34
REMARK                            x       y       z     vdW  Elec       q    Type
REMARK                         _______ _______ _______ _____ _____    ______ ____
ROOT
ATOM      1  C   UNL     1       2.606   4.101  20.368  0.00  0.00    +0.000 C 
ENDROOT
BRANCH   1   2
ATOM      2  N   UNL     1       3.619   3.359  19.590  0.00  0.00    +0.000 NA
BRANCH   2   3
ATOM      3  C   UNL     1       3.131   2.785  18.315  0.00  0.00    +0.000 C 
ATOM      4  C   UNL     1       3.652   1.366  18.033  0.00  0.00    +0.000 C 
ATOM      5  C   UNL     1       1.593   2.718  18.246  0.00  0.00    +0.000 C 
ENDBRANCH   2   3
BRANCH   2   6
ATOM      6  C   UNL     1       4.896   4.104  19.459  0.00  0.00    +0.000 C 
BRANCH   6  11
ATOM      7  C   UNL     1       6.301   5.130  16.060  0.00  0.00    +0.000 A 
ATOM      8  C   UNL     1       5.560   6.275  15.773  0.00  0.00    +0.000 A 
ATOM      9  C   UNL     1       4.531   6.660  16.632  0.00  0.00    +0.000 A 
ATOM     10  C   UNL     1       4.284   5.932  17.798  0.00  0.00    +0.000 A 
ATOM     11  C   UNL     1       5.066   4.809  18.120  0.00  0.00    +0.000 A 
ATOM     12  C   UNL     1       6.053   4.386  17.213  0.00  0.00    +0.000 A 
BRANCH   7  13
ATOM     13  O   UNL     1       7.397   4.874  15.213  0.00  0.00    +0.000 OA
BRANCH  13  16
ATOM     14  C   UNL     1       5.990   3.326  12.271  0.00  0.00    +0.000 C 
ATOM     15  N   UNL     1       6.389   3.683  13.604  0.00  0.00    +0.000 N 
ATOM     16  C   UNL     1       7.221   4.740  13.848  0.00  0.00    +0.000 C 
ATOM     17  O   UNL     1       7.727   5.449  12.980  0.00  0.00    +0.000 OA
ATOM     18  H   UNL     1       5.978   3.231  14.409  0.00  0.00    +0.000 HD
ENDBRANCH  13  16
ENDBRANCH   7  13
ENDBRANCH   6  11
ENDBRANCH   2   6
ENDBRANCH   1   2
BRANCH   1  19
ATOM     19  C   UNL     1       2.786   5.599  20.648  0.00  0.00    +0.000 C 
BRANCH  19  20
ATOM     20  C   UNL     1       1.569   6.500  20.460  0.00  0.00    +0.000 C 
BRANCH  20  21
ATOM     21  O   UNL     1       2.031   7.676  19.793  0.00  0.00    +0.000 OA
BRANCH  21  22
ATOM     22  C   UNL     1       1.288   8.811  19.938  0.00  0.00    +0.000 A 
ATOM     23  C   UNL     1       1.308   9.637  18.809  0.00  0.00    +0.000 A 
ATOM     24  C   UNL     1       0.532  10.788  18.764  0.00  0.00    +0.000 A 
ATOM     25  C   UNL     1      -0.247  11.117  19.870  0.00  0.00    +0.000 A 
ATOM     26  C   UNL     1      -1.269  12.161  19.763  0.00  0.00    +0.000 A 
ATOM     27  O   UNL     1      -1.389  12.850  18.758  0.00  0.00    +0.000 OA
ATOM     28  C   UNL     1      -2.171  12.300  20.907  0.00  0.00    +0.000 A 
ATOM     29  C   UNL     1      -3.368  13.008  20.788  0.00  0.00    +0.000 A 
ATOM     30  C   UNL     1      -4.145  13.225  21.921  0.00  0.00    +0.000 A 
ATOM     31  C   UNL     1      -3.689  12.789  23.168  0.00  0.00    +0.000 A 
ATOM     32  C   UNL     1      -2.517  12.030  23.267  0.00  0.00    +0.000 A 
ATOM     33  C   UNL     1      -1.795  11.719  22.114  0.00  0.00    +0.000 A 
ATOM     34  O   UNL     1      -0.778  10.797  22.222  0.00  0.00    +0.000 OA
ATOM     35  C   UNL     1      -0.166  10.386  21.056  0.00  0.00    +0.000 A 
ATOM     36  C   UNL     1       0.580   9.201  21.081  0.00  0.00    +0.000 A 
ENDBRANCH  21  22
ENDBRANCH  20  21
ENDBRANCH  19  20
ENDBRANCH   1  19
TORSDOF 10
ENDMDL
MODEL 7
REMARK VINA RESULT:      -7.9      2.268      3.084
REMARK  Name = 
REMARK  13 active torsions:
REMARK  status: ('A' for Active; 'I' for Inactive)
REMARK    1  A    between atoms: C_1  and  N_2
REMARK    2  A    between atoms: C_3  and  O_5
REMARK    3  A    between atoms: O_5  and  C_6
REMARK    4  A    between atoms: C_10  and  C_11
REMARK    5  A    between atoms: C_11  and  N_12
REMARK    6  A    between atoms: N_12  and  C_13
REMARK    7  A    between atoms: N_12  and  C_32
REMARK    8  A    between atoms: C_13  and  C_14
REMARK    9  A    between atoms: C_14  and  C_15
REMARK   10  A    between atoms: C_15  and  O_16
REMARK   11  A    between atoms: O_16  and  C_17
REMARK   12  A    between atoms: C_32  and  C_33
REMARK   13  A    between atoms: C_32  and  C_34
REMARK                            x       y       z     vdW  Elec       q    Type
REMARK                         _______ _______ _______ _____ _____    ______ ____
ROOT
ATOM      1  C   UNL     1       2.907   5.709  19.907  0.00  0.00    +0.000 C 
ENDROOT
BRANCH   1   2
ATOM      2  N   UNL     1       2.702   4.510  19.068  0.00  0.00    +0.000 NA
BRANCH   2   3
ATOM      3  C   UNL     1       1.507   3.706  19.409  0.00  0.00    +0.000 C 
ATOM      4  C   UNL     1       1.446   2.348  18.690  0.00  0.00    +0.000 C 
ATOM      5  C   UNL     1       1.396   3.417  20.918  0.00  0.00    +0.000 C 
ENDBRANCH   2   3
BRANCH   2   6
ATOM      6  C   UNL     1       2.835   4.799  17.619  0.00  0.00    +0.000 C 
BRANCH   6  11
ATOM      7  C   UNL     1       6.313   6.096  16.720  0.00  0.00    +0.000 A 
ATOM      8  C   UNL     1       6.836   5.035  15.984  0.00  0.00    +0.000 A 
ATOM      9  C   UNL     1       6.103   3.856  15.863  0.00  0.00    +0.000 A 
ATOM     10  C   UNL     1       4.831   3.761  16.432  0.00  0.00    +0.000 A 
ATOM     11  C   UNL     1       4.276   4.848  17.128  0.00  0.00    +0.000 A 
ATOM     12  C   UNL     1       5.050   6.007  17.306  0.00  0.00    +0.000 A 
BRANCH   7  13
ATOM     13  O   UNL     1       7.055   7.293  16.697  0.00  0.00    +0.000 OA
BRANCH  13  16
ATOM     14  C   UNL     1       8.824   9.707  18.716  0.00  0.00    +0.000 C 
ATOM     15  N   UNL     1       8.086   9.014  17.697  0.00  0.00    +0.000 N 
ATOM     16  C   UNL     1       7.809   7.678  17.790  0.00  0.00    +0.000 C 
ATOM     17  O   UNL     1       8.183   6.947  18.705  0.00  0.00    +0.000 OA
ATOM     18  H   UNL     1       7.654   9.517  16.934  0.00  0.00    +0.000 HD
ENDBRANCH  13  16
ENDBRANCH   7  13
ENDBRANCH   6  11
ENDBRANCH   2   6
ENDBRANCH   1   2
BRANCH   1  19
ATOM     19  C   UNL     1       2.067   6.972  19.673  0.00  0.00    +0.000 C 
BRANCH  19  20
ATOM     20  C   UNL     1       2.564   7.960  18.621  0.00  0.00    +0.000 C 
BRANCH  20  21
ATOM     21  O   UNL     1       1.403   8.526  18.011  0.00  0.00    +0.000 OA
BRANCH  21  22
ATOM     22  C   UNL     1       1.192   9.863  18.187  0.00  0.00    +0.000 A 
ATOM     23  C   UNL     1      -0.138  10.182  18.480  0.00  0.00    +0.000 A 
ATOM     24  C   UNL     1      -0.501  11.491  18.772  0.00  0.00    +0.000 A 
ATOM     25  C   UNL     1       0.478  12.481  18.744  0.00  0.00    +0.000 A 
ATOM     26  C   UNL     1       0.195  13.807  19.300  0.00  0.00    +0.000 A 
ATOM     27  O   UNL     1      -0.922  14.123  19.687  0.00  0.00    +0.000 OA
ATOM     28  C   UNL     1       1.337  14.717  19.411  0.00  0.00    +0.000 A 
ATOM     29  C   UNL     1       1.265  15.853  20.217  0.00  0.00    +0.000 A 
ATOM     30  C   UNL     1       2.320  16.760  20.209  0.00  0.00    +0.000 A 
ATOM     31  C   UNL     1       3.404  16.555  19.351  0.00  0.00    +0.000 A 
ATOM     32  C   UNL     1       3.492  15.382  18.591  0.00  0.00    +0.000 A 
ATOM     33  C   UNL     1       2.485  14.422  18.683  0.00  0.00    +0.000 A 
ATOM     34  O   UNL     1       2.710  13.197  18.093  0.00  0.00    +0.000 OA
ATOM     35  C   UNL     1       1.776  12.205  18.312  0.00  0.00    +0.000 A 
ATOM     36  C   UNL     1       2.148  10.878  18.064  0.00  0.00    +0.000 A 
ENDBRANCH  21  22
ENDBRANCH  20  21
ENDBRANCH  19  20
ENDBRANCH   1  19
TORSDOF 10
ENDMDL
MODEL 8
REMARK VINA RESULT:      -7.9      3.485     11.028
REMARK  Name = 
REMARK  13 active torsions:
REMARK  status: ('A' for Active; 'I' for Inactive)
REMARK    1  A    between atoms: C_1  and  N_2
REMARK    2  A    between atoms: C_3  and  O_5
REMARK    3  A    between atoms: O_5  and  C_6
REMARK    4  A    between atoms: C_10  and  C_11
REMARK    5  A    between atoms: C_11  and  N_12
REMARK    6  A    between atoms: N_12  and  C_13
REMARK    7  A    between atoms: N_12  and  C_32
REMARK    8  A    between atoms: C_13  and  C_14
REMARK    9  A    between atoms: C_14  and  C_15
REMARK   10  A    between atoms: C_15  and  O_16
REMARK   11  A    between atoms: O_16  and  C_17
REMARK   12  A    between atoms: C_32  and  C_33
REMARK   13  A    between atoms: C_32  and  C_34
REMARK                            x       y       z     vdW  Elec       q    Type
REMARK                         _______ _______ _______ _____ _____    ______ ____
ROOT
ATOM      1  C   UNL     1      -0.623   9.716  20.715  0.00  0.00    +0.000 C 
ENDROOT
BRANCH   1   2
ATOM      2  N   UNL     1       0.175  10.747  20.019  0.00  0.00    +0.000 NA
BRANCH   2   3
ATOM      3  C   UNL     1       0.168  10.651  18.542  0.00  0.00    +0.000 C 
ATOM      4  C   UNL     1       1.220   9.682  17.976  0.00  0.00    +0.000 C 
ATOM      5  C   UNL     1      -1.196  10.204  17.983  0.00  0.00    +0.000 C 
ENDBRANCH   2   3
BRANCH   2   6
ATOM      6  C   UNL     1      -0.091  12.115  20.530  0.00  0.00    +0.000 C 
BRANCH   6  11
ATOM      7  C   UNL     1      -3.754  12.820  21.347  0.00  0.00    +0.000 A 
ATOM      8  C   UNL     1      -3.758  12.752  22.738  0.00  0.00    +0.000 A 
ATOM      9  C   UNL     1      -2.597  12.376  23.412  0.00  0.00    +0.000 A 
ATOM     10  C   UNL     1      -1.424  12.123  22.696  0.00  0.00    +0.000 A 
ATOM     11  C   UNL     1      -1.400  12.245  21.297  0.00  0.00    +0.000 A 
ATOM     12  C   UNL     1      -2.593  12.554  20.620  0.00  0.00    +0.000 A 
BRANCH   7  13
ATOM     13  O   UNL     1      -4.925  13.323  20.747  0.00  0.00    +0.000 OA
BRANCH  13  16
ATOM     14  C   UNL     1      -7.286  10.633  20.270  0.00  0.00    +0.000 C 
ATOM     15  N   UNL     1      -6.350  11.592  20.787  0.00  0.00    +0.000 N 
ATOM     16  C   UNL     1      -5.732  12.504  19.977  0.00  0.00    +0.000 C 
ATOM     17  O   UNL     1      -5.876  12.571  18.758  0.00  0.00    +0.000 OA
ATOM     18  H   UNL     1      -6.206  11.695  21.782  0.00  0.00    +0.000 HD
ENDBRANCH  13  16
ENDBRANCH   7  13
ENDBRANCH   6  11
ENDBRANCH   2   6
ENDBRANCH   1   2
BRANCH   1  19
ATOM     19  C   UNL     1       0.066   8.672  21.604  0.00  0.00    +0.000 C 
BRANCH  19  20
ATOM     20  C   UNL     1       1.355   8.046  21.082  0.00  0.00    +0.000 C 
BRANCH  20  21
ATOM     21  O   UNL     1       1.132   6.636  21.028  0.00  0.00    +0.000 OA
BRANCH  21  22
ATOM     22  C   UNL     1       1.987   5.895  20.265  0.00  0.00    +0.000 A 
ATOM     23  C   UNL     1       1.693   4.528  20.268  0.00  0.00    +0.000 A 
ATOM     24  C   UNL     1       2.417   3.649  19.472  0.00  0.00    +0.000 A 
ATOM     25  C   UNL     1       3.455   4.150  18.691  0.00  0.00    +0.000 A 
ATOM     26  C   UNL     1       4.059   3.313  17.651  0.00  0.00    +0.000 A 
ATOM     27  O   UNL     1       3.765   2.133  17.516  0.00  0.00    +0.000 OA
ATOM     28  C   UNL     1       4.998   3.983  16.750  0.00  0.00    +0.000 A 
ATOM     29  C   UNL     1       5.369   3.393  15.541  0.00  0.00    +0.000 A 
ATOM     30  C   UNL     1       6.353   3.995  14.764  0.00  0.00    +0.000 A 
ATOM     31  C   UNL     1       7.000   5.143  15.231  0.00  0.00    +0.000 A 
ATOM     32  C   UNL     1       6.579   5.759  16.416  0.00  0.00    +0.000 A 
ATOM     33  C   UNL     1       5.518   5.214  17.140  0.00  0.00    +0.000 A 
ATOM     34  O   UNL     1       4.995   5.960  18.173  0.00  0.00    +0.000 OA
ATOM     35  C   UNL     1       3.856   5.483  18.788  0.00  0.00    +0.000 A 
ATOM     36  C   UNL     1       3.094   6.373  19.554  0.00  0.00    +0.000 A 
ENDBRANCH  21  22
ENDBRANCH  20  21
ENDBRANCH  19  20
ENDBRANCH   1  19
TORSDOF 10
ENDMDL
MODEL 9
REMARK VINA RESULT:      -7.8      2.759      3.341
REMARK  Name = 
REMARK  13 active torsions:
REMARK  status: ('A' for Active; 'I' for Inactive)
REMARK    1  A    between atoms: C_1  and  N_2
REMARK    2  A    between atoms: C_3  and  O_5
REMARK    3  A    between atoms: O_5  and  C_6
REMARK    4  A    between atoms: C_10  and  C_11
REMARK    5  A    between atoms: C_11  and  N_12
REMARK    6  A    between atoms: N_12  and  C_13
REMARK    7  A    between atoms: N_12  and  C_32
REMARK    8  A    between atoms: C_13  and  C_14
REMARK    9  A    between atoms: C_14  and  C_15
REMARK   10  A    between atoms: C_15  and  O_16
REMARK   11  A    between atoms: O_16  and  C_17
REMARK   12  A    between atoms: C_32  and  C_33
REMARK   13  A    between atoms: C_32  and  C_34
REMARK                            x       y       z     vdW  Elec       q    Type
REMARK                         _______ _______ _______ _____ _____    ______ ____
ROOT
ATOM      1  C   UNL     1       2.029   7.489  20.484  0.00  0.00    +0.000 C 
ENDROOT
BRANCH   1   2
ATOM      2  N   UNL     1       2.358   6.141  19.976  0.00  0.00    +0.000 NA
BRANCH   2   3
ATOM      3  C   UNL     1       1.677   5.027  20.674  0.00  0.00    +0.000 C 
ATOM      4  C   UNL     1       0.839   4.131  19.747  0.00  0.00    +0.000 C 
ATOM      5  C   UNL     1       2.661   4.102  21.416  0.00  0.00    +0.000 C 
ENDBRANCH   2   3
BRANCH   2   6
ATOM      6  C   UNL     1       2.281   6.054  18.497  0.00  0.00    +0.000 C 
BRANCH   6  11
ATOM      7  C   UNL     1       5.784   5.814  16.996  0.00  0.00    +0.000 A 
ATOM      8  C   UNL     1       5.759   4.554  16.403  0.00  0.00    +0.000 A 
ATOM      9  C   UNL     1       4.644   3.736  16.573  0.00  0.00    +0.000 A 
ATOM     10  C   UNL     1       3.539   4.201  17.291  0.00  0.00    +0.000 A 
ATOM     11  C   UNL     1       3.537   5.492  17.844  0.00  0.00    +0.000 A 
ATOM     12  C   UNL     1       4.693   6.283  17.728  0.00  0.00    +0.000 A 
BRANCH   7  13
ATOM     13  O   UNL     1       6.890   6.627  16.679  0.00  0.00    +0.000 OA
BRANCH  13  16
ATOM     14  C   UNL     1       8.482   9.467  18.240  0.00  0.00    +0.000 C 
ATOM     15  N   UNL     1       7.791   8.563  17.364  0.00  0.00    +0.000 N 
ATOM     16  C   UNL     1       7.624   7.242  17.677  0.00  0.00    +0.000 C 
ATOM     17  O   UNL     1       8.067   6.700  18.688  0.00  0.00    +0.000 OA
ATOM     18  H   UNL     1       7.310   8.900  16.541  0.00  0.00    +0.000 HD
ENDBRANCH  13  16
ENDBRANCH   7  13
ENDBRANCH   6  11
ENDBRANCH   2   6
ENDBRANCH   1   2
BRANCH   1  19
ATOM     19  C   UNL     1       0.926   8.322  19.816  0.00  0.00    +0.000 C 
BRANCH  19  20
ATOM     20  C   UNL     1       1.363   9.416  18.846  0.00  0.00    +0.000 C 
BRANCH  20  21
ATOM     21  O   UNL     1       0.890  10.652  19.384  0.00  0.00    +0.000 OA
BRANCH  21  22
ATOM     22  C   UNL     1      -0.404  10.995  19.120  0.00  0.00    +0.000 A 
ATOM     23  C   UNL     1      -0.821  10.645  17.832  0.00  0.00    +0.000 A 
ATOM     24  C   UNL     1      -2.136  10.848  17.436  0.00  0.00    +0.000 A 
ATOM     25  C   UNL     1      -3.026  11.428  18.337  0.00  0.00    +0.000 A 
ATOM     26  C   UNL     1      -4.465  11.412  18.058  0.00  0.00    +0.000 A 
ATOM     27  O   UNL     1      -4.915  11.010  16.994  0.00  0.00    +0.000 OA
ATOM     28  C   UNL     1      -5.337  11.860  19.145  0.00  0.00    +0.000 A 
ATOM     29  C   UNL     1      -6.703  11.577  19.125  0.00  0.00    +0.000 A 
ATOM     30  C   UNL     1      -7.524  12.118  20.109  0.00  0.00    +0.000 A 
ATOM     31  C   UNL     1      -6.984  12.984  21.063  0.00  0.00    +0.000 A 
ATOM     32  C   UNL     1      -5.604  13.214  21.110  0.00  0.00    +0.000 A 
ATOM     33  C   UNL     1      -4.767  12.584  20.188  0.00  0.00    +0.000 A 
ATOM     34  O   UNL     1      -3.407  12.661  20.398  0.00  0.00    +0.000 OA
ATOM     35  C   UNL     1      -2.593  11.916  19.570  0.00  0.00    +0.000 A 
ATOM     36  C   UNL     1      -1.279  11.667  19.982  0.00  0.00    +0.000 A 
ENDBRANCH  21  22
ENDBRANCH  20  21
ENDBRANCH  19  20
ENDBRANCH   1  19
TORSDOF 10
ENDMDL
