MODEL 1
REMARK VINA RESULT:      -8.5      0.000      0.000
REMARK  Name = 
REMARK  4 active torsions:
REMARK  status: ('A' for Active; 'I' for Inactive)
REMARK    1  A    between atoms: C_1  and  C_2
REMARK    2  A    between atoms: C_2  and  C_4
REMARK    3  A    between atoms: C_7  and  N_8
REMARK    4  A    between atoms: N_8  and  C_9
REMARK                            x       y       z     vdW  Elec       q    Type
REMARK                         _______ _______ _______ _____ _____    ______ ____
ROOT
ATOM      1  C   UNL     1       3.049   5.910  18.832  0.00  0.00    +0.000 A 
ATOM      2  C   UNL     1       2.330   4.687  19.018  0.00  0.00    +0.000 A 
ATOM      3  C   UNL     1       1.466   4.448  20.119  0.00  0.00    +0.000 A 
ATOM      4  C   UNL     1       0.769   3.249  20.249  0.00  0.00    +0.000 A 
ATOM      5  C   UNL     1       0.879   2.275  19.257  0.00  0.00    +0.000 A 
ATOM      6  C   UNL     1       1.751   2.489  18.191  0.00  0.00    +0.000 A 
ATOM      7  C   UNL     1       2.511   3.641  18.082  0.00  0.00    +0.000 A 
ATOM      8  N   UNL     1       3.419   3.649  17.105  0.00  0.00    +0.000 NA
ATOM      9  C   UNL     1       4.148   4.765  17.027  0.00  0.00    +0.000 A 
ATOM     10  O   UNL     1       5.236   4.880  16.216  0.00  0.00    +0.000 OA
ATOM     11  C   UNL     1       5.707   6.144  16.360  0.00  0.00    +0.000 A 
ATOM     12  C   UNL     1       4.876   6.868  17.178  0.00  0.00    +0.000 A 
ATOM     13  C   UNL     1       3.977   5.927  17.764  0.00  0.00    +0.000 A 
ENDROOT
BRANCH   1  14
ATOM     14  N   UNL     1       2.882   6.994  19.747  0.00  0.00    +0.000 N 
ATOM     15  H   UNL     1       3.086   6.720  20.704  0.00  0.00    +0.000 HD
BRANCH  14  19
ATOM     16  C   UNL     1      -0.032  10.008  19.217  0.00  0.00    +0.000 A 
ATOM     17  C   UNL     1       0.173   9.441  20.483  0.00  0.00    +0.000 A 
ATOM     18  C   UNL     1       1.177   8.481  20.681  0.00  0.00    +0.000 A 
ATOM     19  C   UNL     1       1.983   8.072  19.616  0.00  0.00    +0.000 A 
ATOM     20  C   UNL     1       1.828   8.724  18.381  0.00  0.00    +0.000 A 
ATOM     21  C   UNL     1       0.807   9.648  18.165  0.00  0.00    +0.000 A 
BRANCH  16  23
ATOM     22  C   UNL     1      -1.965  10.862  17.746  0.00  0.00    +0.000 C 
ATOM     23  C   UNL     1      -1.153  10.967  19.013  0.00  0.00    +0.000 C 
ATOM     24  O   UNL     1      -1.401  11.808  19.872  0.00  0.00    +0.000 OA
ENDBRANCH  16  23
ENDBRANCH  14  19
ENDBRANCH   1  14
TORSDOF 3
ENDMDL
MODEL 2
REMARK VINA RESULT:      -8.5      1.210      3.377
REMARK  Name = 
REMARK  4 active torsions:
REMARK  status: ('A' for Active; 'I' for Inactive)
REMARK    1  A    between atoms: C_1  and  C_2
REMARK    2  A    between atoms: C_2  and  C_4
REMARK    3  A    between atoms: C_7  and  N_8
REMARK    4  A    between atoms: N_8  and  C_9
REMARK                            x       y       z     vdW  Elec       q    Type
REMARK                         _______ _______ _______ _____ _____    ______ ____
ROOT
ATOM      1  C   UNL     1       3.054   5.477  18.929  0.00  0.00    +0.000 A 
ATOM      2  C   UNL     1       3.970   5.433  17.830  0.00  0.00    +0.000 A 
ATOM      3  C   UNL     1       4.821   6.513  17.478  0.00  0.00    +0.000 A 
ATOM      4  C   UNL     1       5.712   6.418  16.412  0.00  0.00    +0.000 A 
ATOM      5  C   UNL     1       5.812   5.224  15.699  0.00  0.00    +0.000 A 
ATOM      6  C   UNL     1       4.956   4.171  16.017  0.00  0.00    +0.000 A 
ATOM      7  C   UNL     1       4.010   4.270  17.023  0.00  0.00    +0.000 A 
ATOM      8  N   UNL     1       3.151   3.254  17.117  0.00  0.00    +0.000 NA
ATOM      9  C   UNL     1       2.241   3.378  18.086  0.00  0.00    +0.000 A 
ATOM     10  O   UNL     1       1.181   2.533  18.214  0.00  0.00    +0.000 OA
ATOM     11  C   UNL     1       0.489   2.927  19.313  0.00  0.00    +0.000 A 
ATOM     12  C   UNL     1       1.149   3.951  19.945  0.00  0.00    +0.000 A 
ATOM     13  C   UNL     1       2.177   4.373  19.050  0.00  0.00    +0.000 A 
ENDROOT
BRANCH   1  14
ATOM     14  N   UNL     1       2.994   6.627  19.774  0.00  0.00    +0.000 N 
ATOM     15  H   UNL     1       3.207   6.401  20.742  0.00  0.00    +0.000 HD
BRANCH  14  19
ATOM     16  C   UNL     1       0.301   9.813  19.106  0.00  0.00    +0.000 A 
ATOM     17  C   UNL     1       0.461   9.285  20.395  0.00  0.00    +0.000 A 
ATOM     18  C   UNL     1       1.395   8.265  20.638  0.00  0.00    +0.000 A 
ATOM     19  C   UNL     1       2.174   7.759  19.594  0.00  0.00    +0.000 A 
ATOM     20  C   UNL     1       2.068   8.370  18.334  0.00  0.00    +0.000 A 
ATOM     21  C   UNL     1       1.116   9.354  18.075  0.00  0.00    +0.000 A 
BRANCH  16  23
ATOM     22  C   UNL     1      -1.815  10.540  17.832  0.00  0.00    +0.000 C 
ATOM     23  C   UNL     1      -0.751  10.839  18.858  0.00  0.00    +0.000 C 
ATOM     24  O   UNL     1      -0.738  11.891  19.490  0.00  0.00    +0.000 OA
ENDBRANCH  16  23
ENDBRANCH  14  19
ENDBRANCH   1  14
TORSDOF 3
ENDMDL
MODEL 3
REMARK VINA RESULT:      -8.4      1.298      3.551
REMARK  Name = 
REMARK  4 active torsions:
REMARK  status: ('A' for Active; 'I' for Inactive)
REMARK    1  A    between atoms: C_1  and  C_2
REMARK    2  A    between atoms: C_2  and  C_4
REMARK    3  A    between atoms: C_7  and  N_8
REMARK    4  A    between atoms: N_8  and  C_9
REMARK                            x       y       z     vdW  Elec       q    Type
REMARK                         _______ _______ _______ _____ _____    ______ ____
ROOT
ATOM      1  C   UNL     1       3.157   5.436  18.923  0.00  0.00    +0.000 A 
ATOM      2  C   UNL     1       4.028   5.347  17.791  0.00  0.00    +0.000 A 
ATOM      3  C   UNL     1       4.820   6.431  17.328  0.00  0.00    +0.000 A 
ATOM      4  C   UNL     1       5.669   6.293  16.233  0.00  0.00    +0.000 A 
ATOM      5  C   UNL     1       5.787   5.056  15.601  0.00  0.00    +0.000 A 
ATOM      6  C   UNL     1       4.987   3.998  16.029  0.00  0.00    +0.000 A 
ATOM      7  C   UNL     1       4.081   4.133  17.066  0.00  0.00    +0.000 A 
ATOM      8  N   UNL     1       3.268   3.095  17.268  0.00  0.00    +0.000 NA
ATOM      9  C   UNL     1       2.395   3.254  18.265  0.00  0.00    +0.000 A 
ATOM     10  O   UNL     1       1.374   2.382  18.498  0.00  0.00    +0.000 OA
ATOM     11  C   UNL     1       0.714   2.827  19.596  0.00  0.00    +0.000 A 
ATOM     12  C   UNL     1       1.358   3.917  20.126  0.00  0.00    +0.000 A 
ATOM     13  C   UNL     1       2.331   4.312  19.160  0.00  0.00    +0.000 A 
ENDROOT
BRANCH   1  14
ATOM     14  N   UNL     1       3.086   6.640  19.689  0.00  0.00    +0.000 N 
ATOM     15  H   UNL     1       3.424   6.509  20.638  0.00  0.00    +0.000 HD
BRANCH  14  19
ATOM     16  C   UNL     1       0.520   9.978  19.332  0.00  0.00    +0.000 A 
ATOM     17  C   UNL     1       1.183   9.475  18.204  0.00  0.00    +0.000 A 
ATOM     18  C   UNL     1       1.992   8.333  18.301  0.00  0.00    +0.000 A 
ATOM     19  C   UNL     1       2.152   7.683  19.528  0.00  0.00    +0.000 A 
ATOM     20  C   UNL     1       1.402   8.144  20.622  0.00  0.00    +0.000 A 
ATOM     21  C   UNL     1       0.628   9.301  20.544  0.00  0.00    +0.000 A 
BRANCH  16  23
ATOM     22  C   UNL     1      -1.639  11.170  18.592  0.00  0.00    +0.000 C 
ATOM     23  C   UNL     1      -0.270  11.236  19.221  0.00  0.00    +0.000 C 
ATOM     24  O   UNL     1       0.196  12.289  19.647  0.00  0.00    +0.000 OA
ENDBRANCH  16  23
ENDBRANCH  14  19
ENDBRANCH   1  14
TORSDOF 3
ENDMDL
MODEL 4
REMARK VINA RESULT:      -8.3      0.391      1.077
REMARK  Name = 
REMARK  4 active torsions:
REMARK  status: ('A' for Active; 'I' for Inactive)
REMARK    1  A    between atoms: C_1  and  C_2
REMARK    2  A    between atoms: C_2  and  C_4
REMARK    3  A    between atoms: C_7  and  N_8
REMARK    4  A    between atoms: N_8  and  C_9
REMARK                            x       y       z     vdW  Elec       q    Type
REMARK                         _______ _______ _______ _____ _____    ______ ____
ROOT
ATOM      1  C   UNL     1       3.110   5.847  18.695  0.00  0.00    +0.000 A 
ATOM      2  C   UNL     1       2.361   4.652  18.935  0.00  0.00    +0.000 A 
ATOM      3  C   UNL     1       1.484   4.488  20.039  0.00  0.00    +0.000 A 
ATOM      4  C   UNL     1       0.759   3.312  20.223  0.00  0.00    +0.000 A 
ATOM      5  C   UNL     1       0.854   2.288  19.281  0.00  0.00    +0.000 A 
ATOM      6  C   UNL     1       1.738   2.428  18.214  0.00  0.00    +0.000 A 
ATOM      7  C   UNL     1       2.525   3.556  18.054  0.00  0.00    +0.000 A 
ATOM      8  N   UNL     1       3.441   3.495  17.085  0.00  0.00    +0.000 NA
ATOM      9  C   UNL     1       4.195   4.588  16.959  0.00  0.00    +0.000 A 
ATOM     10  O   UNL     1       5.292   4.638  16.152  0.00  0.00    +0.000 OA
ATOM     11  C   UNL     1       5.791   5.896  16.238  0.00  0.00    +0.000 A 
ATOM     12  C   UNL     1       4.971   6.679  17.012  0.00  0.00    +0.000 A 
ATOM     13  C   UNL     1       4.046   5.790  17.635  0.00  0.00    +0.000 A 
ENDROOT
BRANCH   1  14
ATOM     14  N   UNL     1       2.961   6.978  19.554  0.00  0.00    +0.000 N 
ATOM     15  H   UNL     1       3.277   6.784  20.500  0.00  0.00    +0.000 HD
BRANCH  14  19
ATOM     16  C   UNL     1       0.257  10.220  19.371  0.00  0.00    +0.000 A 
ATOM     17  C   UNL     1       0.921   9.791  18.214  0.00  0.00    +0.000 A 
ATOM     18  C   UNL     1       1.778   8.680  18.252  0.00  0.00    +0.000 A 
ATOM     19  C   UNL     1       1.983   7.988  19.449  0.00  0.00    +0.000 A 
ATOM     20  C   UNL     1       1.232   8.373  20.572  0.00  0.00    +0.000 A 
ATOM     21  C   UNL     1       0.411   9.499  20.553  0.00  0.00    +0.000 A 
BRANCH  16  23
ATOM     22  C   UNL     1      -1.542  11.617  18.171  0.00  0.00    +0.000 C 
ATOM     23  C   UNL     1      -0.585  11.448  19.324  0.00  0.00    +0.000 C 
ATOM     24  O   UNL     1      -0.493  12.287  20.216  0.00  0.00    +0.000 OA
ENDBRANCH  16  23
ENDBRANCH  14  19
ENDBRANCH   1  14
TORSDOF 3
ENDMDL
MODEL 5
REMARK VINA RESULT:      -8.3      1.653      1.905
REMARK  Name = 
REMARK  4 active torsions:
REMARK  status: ('A' for Active; 'I' for Inactive)
REMARK    1  A    between atoms: C_1  and  C_2
REMARK    2  A    between atoms: C_2  and  C_4
REMARK    3  A    between atoms: C_7  and  N_8
REMARK    4  A    between atoms: N_8  and  C_9
REMARK                            x       y       z     vdW  Elec       q    Type
REMARK                         _______ _______ _______ _____ _____    ______ ____
ROOT
ATOM      1  C   UNL     1       3.644   5.580  17.994  0.00  0.00    +0.000 A 
ATOM      2  C   UNL     1       3.015   4.353  18.377  0.00  0.00    +0.000 A 
ATOM      3  C   UNL     1       1.607   4.181  18.435  0.00  0.00    +0.000 A 
ATOM      4  C   UNL     1       1.039   2.960  18.795  0.00  0.00    +0.000 A 
ATOM      5  C   UNL     1       1.862   1.866  19.058  0.00  0.00    +0.000 A 
ATOM      6  C   UNL     1       3.245   2.037  19.037  0.00  0.00    +0.000 A 
ATOM      7  C   UNL     1       3.831   3.260  18.756  0.00  0.00    +0.000 A 
ATOM      8  N   UNL     1       5.152   3.325  18.926  0.00  0.00    +0.000 NA
ATOM      9  C   UNL     1       5.692   4.516  18.662  0.00  0.00    +0.000 A 
ATOM     10  O   UNL     1       6.989   4.819  18.951  0.00  0.00    +0.000 OA
ATOM     11  C   UNL     1       7.207   6.087  18.522  0.00  0.00    +0.000 A 
ATOM     12  C   UNL     1       6.095   6.564  17.873  0.00  0.00    +0.000 A 
ATOM     13  C   UNL     1       5.051   5.626  18.132  0.00  0.00    +0.000 A 
ENDROOT
BRANCH   1  14
ATOM     14  N   UNL     1       2.855   6.701  17.592  0.00  0.00    +0.000 N 
ATOM     15  H   UNL     1       3.077   7.005  16.648  0.00  0.00    +0.000 HD
BRANCH  14  19
ATOM     16  C   UNL     1       0.976   9.601  20.024  0.00  0.00    +0.000 A 
ATOM     17  C   UNL     1       1.515   8.441  20.599  0.00  0.00    +0.000 A 
ATOM     18  C   UNL     1       2.191   7.499  19.808  0.00  0.00    +0.000 A 
ATOM     19  C   UNL     1       2.331   7.704  18.433  0.00  0.00    +0.000 A 
ATOM     20  C   UNL     1       1.873   8.918  17.894  0.00  0.00    +0.000 A 
ATOM     21  C   UNL     1       1.165   9.839  18.665  0.00  0.00    +0.000 A 
BRANCH  16  23
ATOM     22  C   UNL     1      -0.902  11.351  20.220  0.00  0.00    +0.000 C 
ATOM     23  C   UNL     1       0.196  10.546  20.870  0.00  0.00    +0.000 C 
ATOM     24  O   UNL     1       0.449  10.647  22.067  0.00  0.00    +0.000 OA
ENDBRANCH  16  23
ENDBRANCH  14  19
ENDBRANCH   1  14
TORSDOF 3
ENDMDL
MODEL 6
REMARK VINA RESULT:      -8.2      1.866      3.842
REMARK  Name = 
REMARK  4 active torsions:
REMARK  status: ('A' for Active; 'I' for Inactive)
REMARK    1  A    between atoms: C_1  and  C_2
REMARK    2  A    between atoms: C_2  and  C_4
REMARK    3  A    between atoms: C_7  and  N_8
REMARK    4  A    between atoms: N_8  and  C_9
REMARK                            x       y       z     vdW  Elec       q    Type
REMARK                         _______ _______ _______ _____ _____    ______ ____
ROOT
ATOM      1  C   UNL     1       3.499   5.678  18.422  0.00  0.00    +0.000 A 
ATOM      2  C   UNL     1       4.899   5.885  18.211  0.00  0.00    +0.000 A 
ATOM      3  C   UNL     1       5.427   6.989  17.492  0.00  0.00    +0.000 A 
ATOM      4  C   UNL     1       6.800   7.161  17.329  0.00  0.00    +0.000 A 
ATOM      5  C   UNL     1       7.684   6.260  17.922  0.00  0.00    +0.000 A 
ATOM      6  C   UNL     1       7.172   5.155  18.600  0.00  0.00    +0.000 A 
ATOM      7  C   UNL     1       5.812   4.924  18.709  0.00  0.00    +0.000 A 
ATOM      8  N   UNL     1       5.461   3.752  19.242  0.00  0.00    +0.000 NA
ATOM      9  C   UNL     1       4.145   3.547  19.325  0.00  0.00    +0.000 A 
ATOM     10  O   UNL     1       3.607   2.344  19.671  0.00  0.00    +0.000 OA
ATOM     11  C   UNL     1       2.260   2.502  19.690  0.00  0.00    +0.000 A 
ATOM     12  C   UNL     1       1.934   3.816  19.458  0.00  0.00    +0.000 A 
ATOM     13  C   UNL     1       3.137   4.453  19.031  0.00  0.00    +0.000 A 
ENDROOT
BRANCH   1  14
ATOM     14  N   UNL     1       2.548   6.632  17.947  0.00  0.00    +0.000 N 
ATOM     15  H   UNL     1       2.586   6.739  16.937  0.00  0.00    +0.000 HD
BRANCH  14  19
ATOM     16  C   UNL     1       0.792   9.903  19.966  0.00  0.00    +0.000 A 
ATOM     17  C   UNL     1       1.266   8.799  20.690  0.00  0.00    +0.000 A 
ATOM     18  C   UNL     1       1.902   7.734  20.034  0.00  0.00    +0.000 A 
ATOM     19  C   UNL     1       2.067   7.758  18.647  0.00  0.00    +0.000 A 
ATOM     20  C   UNL     1       1.675   8.915  17.954  0.00  0.00    +0.000 A 
ATOM     21  C   UNL     1       1.006   9.958  18.591  0.00  0.00    +0.000 A 
BRANCH  16  23
ATOM     22  C   UNL     1      -1.176  11.562  20.015  0.00  0.00    +0.000 C 
ATOM     23  C   UNL     1       0.051  10.983  20.674  0.00  0.00    +0.000 C 
ATOM     24  O   UNL     1       0.441  11.374  21.771  0.00  0.00    +0.000 OA
ENDBRANCH  16  23
ENDBRANCH  14  19
ENDBRANCH   1  14
TORSDOF 3
ENDMDL
MODEL 7
REMARK VINA RESULT:      -8.1      1.751      2.234
REMARK  Name = 
REMARK  4 active torsions:
REMARK  status: ('A' for Active; 'I' for Inactive)
REMARK    1  A    between atoms: C_1  and  C_2
REMARK    2  A    between atoms: C_2  and  C_4
REMARK    3  A    between atoms: C_7  and  N_8
REMARK    4  A    between atoms: N_8  and  C_9
REMARK                            x       y       z     vdW  Elec       q    Type
REMARK                         _______ _______ _______ _____ _____    ______ ____
ROOT
ATOM      1  C   UNL     1       3.887   5.682  17.926  0.00  0.00    +0.000 A 
ATOM      2  C   UNL     1       3.197   4.468  18.239  0.00  0.00    +0.000 A 
ATOM      3  C   UNL     1       1.784   4.341  18.203  0.00  0.00    +0.000 A 
ATOM      4  C   UNL     1       1.155   3.133  18.497  0.00  0.00    +0.000 A 
ATOM      5  C   UNL     1       1.925   2.007  18.787  0.00  0.00    +0.000 A 
ATOM      6  C   UNL     1       3.310   2.133  18.859  0.00  0.00    +0.000 A 
ATOM      7  C   UNL     1       3.951   3.341  18.645  0.00  0.00    +0.000 A 
ATOM      8  N   UNL     1       5.261   3.359  18.900  0.00  0.00    +0.000 NA
ATOM      9  C   UNL     1       5.854   4.538  18.699  0.00  0.00    +0.000 A 
ATOM     10  O   UNL     1       7.138   4.791  19.078  0.00  0.00    +0.000 OA
ATOM     11  C   UNL     1       7.423   6.060  18.693  0.00  0.00    +0.000 A 
ATOM     12  C   UNL     1       6.371   6.587  17.985  0.00  0.00    +0.000 A 
ATOM     13  C   UNL     1       5.284   5.679  18.155  0.00  0.00    +0.000 A 
ENDROOT
BRANCH   1  14
ATOM     14  N   UNL     1       3.162   6.837  17.499  0.00  0.00    +0.000 N 
ATOM     15  H   UNL     1       3.611   7.301  16.715  0.00  0.00    +0.000 HD
BRANCH  14  19
ATOM     16  C   UNL     1       1.048   9.487  20.021  0.00  0.00    +0.000 A 
ATOM     17  C   UNL     1       1.096   9.718  18.639  0.00  0.00    +0.000 A 
ATOM     18  C   UNL     1       1.747   8.813  17.786  0.00  0.00    +0.000 A 
ATOM     19  C   UNL     1       2.362   7.670  18.307  0.00  0.00    +0.000 A 
ATOM     20  C   UNL     1       2.216   7.408  19.679  0.00  0.00    +0.000 A 
ATOM     21  C   UNL     1       1.608   8.321  20.538  0.00  0.00    +0.000 A 
BRANCH  16  23
ATOM     22  C   UNL     1      -0.562  11.475  20.314  0.00  0.00    +0.000 C 
ATOM     23  C   UNL     1       0.421  10.501  20.914  0.00  0.00    +0.000 C 
ATOM     24  O   UNL     1       0.703  10.520  22.109  0.00  0.00    +0.000 OA
ENDBRANCH  16  23
ENDBRANCH  14  19
ENDBRANCH   1  14
TORSDOF 3
ENDMDL
MODEL 8
REMARK VINA RESULT:      -8.0      1.236      1.591
REMARK  Name = 
REMARK  4 active torsions:
REMARK  status: ('A' for Active; 'I' for Inactive)
REMARK    1  A    between atoms: C_1  and  C_2
REMARK    2  A    between atoms: C_2  and  C_4
REMARK    3  A    between atoms: C_7  and  N_8
REMARK    4  A    between atoms: N_8  and  C_9
REMARK                            x       y       z     vdW  Elec       q    Type
REMARK                         _______ _______ _______ _____ _____    ______ ____
ROOT
ATOM      1  C   UNL     1       3.536   5.422  19.360  0.00  0.00    +0.000 A 
ATOM      2  C   UNL     1       2.677   4.288  19.208  0.00  0.00    +0.000 A 
ATOM      3  C   UNL     1       1.409   4.178  19.835  0.00  0.00    +0.000 A 
ATOM      4  C   UNL     1       0.597   3.063  19.642  0.00  0.00    +0.000 A 
ATOM      5  C   UNL     1       1.009   2.049  18.778  0.00  0.00    +0.000 A 
ATOM      6  C   UNL     1       2.268   2.134  18.186  0.00  0.00    +0.000 A 
ATOM      7  C   UNL     1       3.123   3.197  18.423  0.00  0.00    +0.000 A 
ATOM      8  N   UNL     1       4.354   3.076  17.924  0.00  0.00    +0.000 NA
ATOM      9  C   UNL     1       5.163   4.107  18.178  0.00  0.00    +0.000 A 
ATOM     10  O   UNL     1       6.498   4.080  17.906  0.00  0.00    +0.000 OA
ATOM     11  C   UNL     1       6.999   5.292  18.253  0.00  0.00    +0.000 A 
ATOM     12  C   UNL     1       5.984   6.127  18.651  0.00  0.00    +0.000 A 
ATOM     13  C   UNL     1       4.825   5.306  18.787  0.00  0.00    +0.000 A 
ENDROOT
BRANCH   1  14
ATOM     14  N   UNL     1       3.116   6.548  20.132  0.00  0.00    +0.000 N 
ATOM     15  H   UNL     1       3.094   6.343  21.127  0.00  0.00    +0.000 HD
BRANCH  14  19
ATOM     16  C   UNL     1       0.707   9.835  19.016  0.00  0.00    +0.000 A 
ATOM     17  C   UNL     1       1.507   9.191  18.061  0.00  0.00    +0.000 A 
ATOM     18  C   UNL     1       2.267   8.064  18.409  0.00  0.00    +0.000 A 
ATOM     19  C   UNL     1       2.239   7.570  19.716  0.00  0.00    +0.000 A 
ATOM     20  C   UNL     1       1.356   8.168  20.630  0.00  0.00    +0.000 A 
ATOM     21  C   UNL     1       0.630   9.313  20.304  0.00  0.00    +0.000 A 
BRANCH  16  23
ATOM     22  C   UNL     1      -1.496  10.967  18.312  0.00  0.00    +0.000 C 
ATOM     23  C   UNL     1      -0.029  11.076  18.643  0.00  0.00    +0.000 C 
ATOM     24  O   UNL     1       0.562  12.152  18.621  0.00  0.00    +0.000 OA
ENDBRANCH  16  23
ENDBRANCH  14  19
ENDBRANCH   1  14
TORSDOF 3
ENDMDL
MODEL 9
REMARK VINA RESULT:      -8.0      4.505      6.739
REMARK  Name = 
REMARK  4 active torsions:
REMARK  status: ('A' for Active; 'I' for Inactive)
REMARK    1  A    between atoms: C_1  and  C_2
REMARK    2  A    between atoms: C_2  and  C_4
REMARK    3  A    between atoms: C_7  and  N_8
REMARK    4  A    between atoms: N_8  and  C_9
REMARK                            x       y       z     vdW  Elec       q    Type
REMARK                         _______ _______ _______ _____ _____    ______ ____
ROOT
ATOM      1  C   UNL     1       5.110   4.587  15.676  0.00  0.00    +0.000 A 
ATOM      2  C   UNL     1       5.736   4.358  14.410  0.00  0.00    +0.000 A 
ATOM      3  C   UNL     1       5.182   3.523  13.404  0.00  0.00    +0.000 A 
ATOM      4  C   UNL     1       5.817   3.345  12.177  0.00  0.00    +0.000 A 
ATOM      5  C   UNL     1       6.999   4.033  11.904  0.00  0.00    +0.000 A 
ATOM      6  C   UNL     1       7.567   4.825  12.900  0.00  0.00    +0.000 A 
ATOM      7  C   UNL     1       6.992   4.958  14.152  0.00  0.00    +0.000 A 
ATOM      8  N   UNL     1       7.718   5.613  15.060  0.00  0.00    +0.000 NA
ATOM      9  C   UNL     1       7.149   5.716  16.262  0.00  0.00    +0.000 A 
ATOM     10  O   UNL     1       7.813   6.189  17.354  0.00  0.00    +0.000 OA
ATOM     11  C   UNL     1       6.932   6.189  18.386  0.00  0.00    +0.000 A 
ATOM     12  C   UNL     1       5.687   5.816  17.945  0.00  0.00    +0.000 A 
ATOM     13  C   UNL     1       5.867   5.325  16.618  0.00  0.00    +0.000 A 
ENDROOT
BRANCH   1  14
ATOM     14  N   UNL     1       3.836   4.011  15.968  0.00  0.00    +0.000 N 
ATOM     15  H   UNL     1       3.112   4.347  15.340  0.00  0.00    +0.000 HD
BRANCH  14  19
ATOM     16  C   UNL     1       2.750   2.854  19.884  0.00  0.00    +0.000 A 
ATOM     17  C   UNL     1       2.190   4.003  19.308  0.00  0.00    +0.000 A 
ATOM     18  C   UNL     1       2.501   4.364  17.988  0.00  0.00    +0.000 A 
ATOM     19  C   UNL     1       3.378   3.583  17.231  0.00  0.00    +0.000 A 
ATOM     20  C   UNL     1       3.849   2.385  17.792  0.00  0.00    +0.000 A 
ATOM     21  C   UNL     1       3.578   2.040  19.115  0.00  0.00    +0.000 A 
BRANCH  16  23
ATOM     22  C   UNL     1       1.068   2.749  21.831  0.00  0.00    +0.000 C 
ATOM     23  C   UNL     1       2.468   2.535  21.311  0.00  0.00    +0.000 C 
ATOM     24  O   UNL     1       3.364   2.100  22.029  0.00  0.00    +0.000 OA
ENDBRANCH  16  23
ENDBRANCH  14  19
ENDBRANCH   1  14
TORSDOF 3
ENDMDL
