MODEL 1
REMARK VINA RESULT:      -7.6      0.000      0.000
REMARK  Name = 
REMARK  10 active torsions:
REMARK  status: ('A' for Active; 'I' for Inactive)
REMARK    1  A    between atoms: C_1  and  N_2
REMARK    2  A    between atoms: N_2  and  C_3
REMARK    3  A    between atoms: N_2  and  N_4
REMARK    4  A    between atoms: C_5  and  C_7
REMARK    5  A    between atoms: C_11  and  N_12
REMARK    6  A    between atoms: C_13  and  C_15
REMARK    7  A    between atoms: C_18  and  S_19
REMARK    8  A    between atoms: S_19  and  N_22
REMARK    9  A    between atoms: N_22  and  C_23
REMARK   10  A    between atoms: N_22  and  C_24
REMARK                            x       y       z     vdW  Elec       q    Type
REMARK                         _______ _______ _______ _____ _____    ______ ____
ROOT
ATOM      1  N   UNL     1       1.023   9.732  19.478  0.00  0.00    +0.000 N 
ATOM      2  C   UNL     1       1.750   9.057  18.512  0.00  0.00    +0.000 C 
ATOM      3  O   UNL     1       2.085   9.540  17.433  0.00  0.00    +0.000 OA
ATOM      4  H   UNL     1       1.107   9.472  20.447  0.00  0.00    +0.000 HD
ENDROOT
BRANCH   2   5
ATOM      5  C   UNL     1       2.234   7.682  18.843  0.00  0.00    +0.000 A 
ATOM      6  C   UNL     1       1.791   7.146  20.065  0.00  0.00    +0.000 A 
ATOM      7  C   UNL     1       2.129   5.850  20.445  0.00  0.00    +0.000 A 
ATOM      8  C   UNL     1       2.895   5.062  19.590  0.00  0.00    +0.000 A 
ATOM      9  C   UNL     1       3.379   5.586  18.383  0.00  0.00    +0.000 A 
ATOM     10  C   UNL     1       3.040   6.894  18.005  0.00  0.00    +0.000 A 
BRANCH   8  11
ATOM     11  S   UNL     1       3.286   3.387  20.066  0.00  0.00    +0.000 S 
ATOM     12  O   UNL     1       4.682   3.168  19.749  0.00  0.00    +0.000 OA
ATOM     13  O   UNL     1       2.782   3.186  21.408  0.00  0.00    +0.000 OA
BRANCH  11  14
ATOM     14  N   UNL     1       2.346   2.456  18.993  0.00  0.00    +0.000 NA
ATOM     15  C   UNL     1       0.918   2.804  18.878  0.00  0.00    +0.000 C 
ATOM     16  C   UNL     1       2.966   2.110  17.704  0.00  0.00    +0.000 C 
ENDBRANCH  11  14
ENDBRANCH   8  11
ENDBRANCH   2   5
BRANCH   1  21
ATOM     17  C   UNL     1      -0.443  11.550  18.477  0.00  0.00    +0.000 A 
ATOM     18  C   UNL     1      -0.284  12.982  18.380  0.00  0.00    +0.000 A 
ATOM     19  C   UNL     1       0.801  13.453  19.087  0.00  0.00    +0.000 A 
ATOM     20  S   UNL     1       1.592  12.201  19.938  0.00  0.00    +0.000 S 
ATOM     21  C   UNL     1       0.601  11.021  19.218  0.00  0.00    +0.000 A 
BRANCH  17  23
ATOM     22  N   UNL     1      -2.170  11.311  16.823  0.00  0.00    +0.000 N 
ATOM     23  C   UNL     1      -1.579  10.767  17.963  0.00  0.00    +0.000 C 
ATOM     24  O   UNL     1      -1.990   9.763  18.543  0.00  0.00    +0.000 OA
ATOM     25  H   UNL     1      -1.678  12.031  16.308  0.00  0.00    +0.000 HD
BRANCH  22  27
ATOM     26  C   UNL     1      -4.530  11.506  16.576  0.00  0.00    +0.000 C 
ATOM     27  N   UNL     1      -3.332  10.730  16.260  0.00  0.00    +0.000 NA
ATOM     28  C   UNL     1      -3.179  10.567  14.813  0.00  0.00    +0.000 C 
ENDBRANCH  22  27
ENDBRANCH  17  23
ENDBRANCH   1  21
TORSDOF 6
ENDMDL
MODEL 2
REMARK VINA RESULT:      -7.4      1.426      1.859
REMARK  Name = 
REMARK  10 active torsions:
REMARK  status: ('A' for Active; 'I' for Inactive)
REMARK    1  A    between atoms: C_1  and  N_2
REMARK    2  A    between atoms: N_2  and  C_3
REMARK    3  A    between atoms: N_2  and  N_4
REMARK    4  A    between atoms: C_5  and  C_7
REMARK    5  A    between atoms: C_11  and  N_12
REMARK    6  A    between atoms: C_13  and  C_15
REMARK    7  A    between atoms: C_18  and  S_19
REMARK    8  A    between atoms: S_19  and  N_22
REMARK    9  A    between atoms: N_22  and  C_23
REMARK   10  A    between atoms: N_22  and  C_24
REMARK                            x       y       z     vdW  Elec       q    Type
REMARK                         _______ _______ _______ _____ _____    ______ ____
ROOT
ATOM      1  N   UNL     1       1.458  10.257  18.553  0.00  0.00    +0.000 N 
ATOM      2  C   UNL     1       1.366   9.258  19.506  0.00  0.00    +0.000 C 
ATOM      3  O   UNL     1       0.685   9.333  20.527  0.00  0.00    +0.000 OA
ATOM      4  H   UNL     1       1.682  10.027  17.599  0.00  0.00    +0.000 HD
ENDROOT
BRANCH   2   5
ATOM      5  C   UNL     1       2.071   7.968  19.230  0.00  0.00    +0.000 A 
ATOM      6  C   UNL     1       2.846   7.925  18.058  0.00  0.00    +0.000 A 
ATOM      7  C   UNL     1       3.595   6.797  17.734  0.00  0.00    +0.000 A 
ATOM      8  C   UNL     1       3.598   5.704  18.597  0.00  0.00    +0.000 A 
ATOM      9  C   UNL     1       2.804   5.710  19.753  0.00  0.00    +0.000 A 
ATOM     10  C   UNL     1       2.047   6.847  20.074  0.00  0.00    +0.000 A 
BRANCH   8  11
ATOM     11  S   UNL     1       4.595   4.280  18.195  0.00  0.00    +0.000 S 
ATOM     12  O   UNL     1       4.583   4.143  16.754  0.00  0.00    +0.000 OA
ATOM     13  O   UNL     1       5.838   4.398  18.927  0.00  0.00    +0.000 OA
BRANCH  11  14
ATOM     14  N   UNL     1       3.701   2.989  18.858  0.00  0.00    +0.000 NA
ATOM     15  C   UNL     1       3.046   2.071  17.910  0.00  0.00    +0.000 C 
ATOM     16  C   UNL     1       4.295   2.304  20.018  0.00  0.00    +0.000 C 
ENDBRANCH  11  14
ENDBRANCH   8  11
ENDBRANCH   2   5
BRANCH   1  21
ATOM     17  C   UNL     1      -0.489  11.886  18.424  0.00  0.00    +0.000 A 
ATOM     18  C   UNL     1      -0.594  13.297  18.710  0.00  0.00    +0.000 A 
ATOM     19  C   UNL     1       0.543  13.816  19.291  0.00  0.00    +0.000 A 
ATOM     20  S   UNL     1       1.715  12.607  19.574  0.00  0.00    +0.000 S 
ATOM     21  C   UNL     1       0.780  11.443  18.760  0.00  0.00    +0.000 A 
BRANCH  17  23
ATOM     22  N   UNL     1      -2.339  11.576  16.922  0.00  0.00    +0.000 N 
ATOM     23  C   UNL     1      -1.575  11.015  17.946  0.00  0.00    +0.000 C 
ATOM     24  O   UNL     1      -1.806   9.923  18.463  0.00  0.00    +0.000 OA
ATOM     25  H   UNL     1      -1.989  12.391  16.435  0.00  0.00    +0.000 HD
BRANCH  22  27
ATOM     26  C   UNL     1      -4.699  11.685  16.623  0.00  0.00    +0.000 C 
ATOM     27  N   UNL     1      -3.479  10.906  16.417  0.00  0.00    +0.000 NA
ATOM     28  C   UNL     1      -3.300  10.577  15.001  0.00  0.00    +0.000 C 
ENDBRANCH  22  27
ENDBRANCH  17  23
ENDBRANCH   1  21
TORSDOF 6
ENDMDL
MODEL 3
REMARK VINA RESULT:      -7.4      1.585      2.381
REMARK  Name = 
REMARK  10 active torsions:
REMARK  status: ('A' for Active; 'I' for Inactive)
REMARK    1  A    between atoms: C_1  and  N_2
REMARK    2  A    between atoms: N_2  and  C_3
REMARK    3  A    between atoms: N_2  and  N_4
REMARK    4  A    between atoms: C_5  and  C_7
REMARK    5  A    between atoms: C_11  and  N_12
REMARK    6  A    between atoms: C_13  and  C_15
REMARK    7  A    between atoms: C_18  and  S_19
REMARK    8  A    between atoms: S_19  and  N_22
REMARK    9  A    between atoms: N_22  and  C_23
REMARK   10  A    between atoms: N_22  and  C_24
REMARK                            x       y       z     vdW  Elec       q    Type
REMARK                         _______ _______ _______ _____ _____    ______ ____
ROOT
ATOM      1  N   UNL     1       0.925   9.754  19.388  0.00  0.00    +0.000 N 
ATOM      2  C   UNL     1       1.816   9.380  18.396  0.00  0.00    +0.000 C 
ATOM      3  O   UNL     1       2.208  10.123  17.499  0.00  0.00    +0.000 OA
ATOM      4  H   UNL     1       0.935   9.286  20.279  0.00  0.00    +0.000 HD
ENDROOT
BRANCH   2   5
ATOM      5  C   UNL     1       2.407   8.009  18.475  0.00  0.00    +0.000 A 
ATOM      6  C   UNL     1       3.173   7.599  17.370  0.00  0.00    +0.000 A 
ATOM      7  C   UNL     1       3.823   6.367  17.363  0.00  0.00    +0.000 A 
ATOM      8  C   UNL     1       3.735   5.540  18.479  0.00  0.00    +0.000 A 
ATOM      9  C   UNL     1       2.948   5.911  19.579  0.00  0.00    +0.000 A 
ATOM     10  C   UNL     1       2.291   7.151  19.580  0.00  0.00    +0.000 A 
BRANCH   8  11
ATOM     11  S   UNL     1       4.606   3.982  18.479  0.00  0.00    +0.000 S 
ATOM     12  O   UNL     1       4.343   3.346  19.753  0.00  0.00    +0.000 OA
ATOM     13  O   UNL     1       4.306   3.315  17.230  0.00  0.00    +0.000 OA
BRANCH  11  14
ATOM     14  N   UNL     1       6.242   4.461  18.453  0.00  0.00    +0.000 NA
ATOM     15  C   UNL     1       6.881   4.591  17.132  0.00  0.00    +0.000 C 
ATOM     16  C   UNL     1       6.633   5.522  19.396  0.00  0.00    +0.000 C 
ENDBRANCH  11  14
ENDBRANCH   8  11
ENDBRANCH   2   5
BRANCH   1  21
ATOM     17  C   UNL     1      -0.658  11.612  18.681  0.00  0.00    +0.000 A 
ATOM     18  C   UNL     1      -0.629  13.042  18.882  0.00  0.00    +0.000 A 
ATOM     19  C   UNL     1       0.376  13.445  19.736  0.00  0.00    +0.000 A 
ATOM     20  S   UNL     1       1.242  12.115  20.366  0.00  0.00    +0.000 S 
ATOM     21  C   UNL     1       0.397  11.030  19.365  0.00  0.00    +0.000 A 
BRANCH  17  23
ATOM     22  N   UNL     1      -2.637  11.669  17.319  0.00  0.00    +0.000 N 
ATOM     23  C   UNL     1      -1.693  10.860  17.951  0.00  0.00    +0.000 C 
ATOM     24  O   UNL     1      -1.734   9.632  17.968  0.00  0.00    +0.000 OA
ATOM     25  H   UNL     1      -2.444  12.656  17.204  0.00  0.00    +0.000 HD
BRANCH  22  27
ATOM     26  C   UNL     1      -4.966  11.884  16.872  0.00  0.00    +0.000 C 
ATOM     27  N   UNL     1      -3.751  11.101  16.655  0.00  0.00    +0.000 NA
ATOM     28  C   UNL     1      -3.475  10.945  15.225  0.00  0.00    +0.000 C 
ENDBRANCH  22  27
ENDBRANCH  17  23
ENDBRANCH   1  21
TORSDOF 6
ENDMDL
MODEL 4
REMARK VINA RESULT:      -7.4      1.061      1.512
REMARK  Name = 
REMARK  10 active torsions:
REMARK  status: ('A' for Active; 'I' for Inactive)
REMARK    1  A    between atoms: C_1  and  N_2
REMARK    2  A    between atoms: N_2  and  C_3
REMARK    3  A    between atoms: N_2  and  N_4
REMARK    4  A    between atoms: C_5  and  C_7
REMARK    5  A    between atoms: C_11  and  N_12
REMARK    6  A    between atoms: C_13  and  C_15
REMARK    7  A    between atoms: C_18  and  S_19
REMARK    8  A    between atoms: S_19  and  N_22
REMARK    9  A    between atoms: N_22  and  C_23
REMARK   10  A    between atoms: N_22  and  C_24
REMARK                            x       y       z     vdW  Elec       q    Type
REMARK                         _______ _______ _______ _____ _____    ______ ____
ROOT
ATOM      1  N   UNL     1       0.900   9.997  19.454  0.00  0.00    +0.000 N 
ATOM      2  C   UNL     1       1.691   9.473  18.445  0.00  0.00    +0.000 C 
ATOM      3  O   UNL     1       2.011  10.084  17.428  0.00  0.00    +0.000 OA
ATOM      4  H   UNL     1       0.984   9.647  20.394  0.00  0.00    +0.000 HD
ENDROOT
BRANCH   2   5
ATOM      5  C   UNL     1       2.265   8.108  18.651  0.00  0.00    +0.000 A 
ATOM      6  C   UNL     1       3.209   7.684  17.700  0.00  0.00    +0.000 A 
ATOM      7  C   UNL     1       3.856   6.456  17.828  0.00  0.00    +0.000 A 
ATOM      8  C   UNL     1       3.582   5.649  18.928  0.00  0.00    +0.000 A 
ATOM      9  C   UNL     1       2.618   6.034  19.870  0.00  0.00    +0.000 A 
ATOM     10  C   UNL     1       1.966   7.269  19.736  0.00  0.00    +0.000 A 
BRANCH   8  11
ATOM     11  S   UNL     1       4.447   4.098  19.107  0.00  0.00    +0.000 S 
ATOM     12  O   UNL     1       5.862   4.402  19.165  0.00  0.00    +0.000 OA
ATOM     13  O   UNL     1       3.796   3.355  20.164  0.00  0.00    +0.000 OA
BRANCH  11  14
ATOM     14  N   UNL     1       4.133   3.314  17.627  0.00  0.00    +0.000 NA
ATOM     15  C   UNL     1       2.720   3.119  17.258  0.00  0.00    +0.000 C 
ATOM     16  C   UNL     1       4.985   3.692  16.487  0.00  0.00    +0.000 C 
ENDBRANCH  11  14
ENDBRANCH   8  11
ENDBRANCH   2   5
BRANCH   1  21
ATOM     17  C   UNL     1      -0.679  11.799  18.609  0.00  0.00    +0.000 A 
ATOM     18  C   UNL     1      -0.619  13.241  18.650  0.00  0.00    +0.000 A 
ATOM     19  C   UNL     1       0.427  13.714  19.414  0.00  0.00    +0.000 A 
ATOM     20  S   UNL     1       1.296  12.443  20.153  0.00  0.00    +0.000 S 
ATOM     21  C   UNL     1       0.393  11.273  19.311  0.00  0.00    +0.000 A 
BRANCH  17  23
ATOM     22  N   UNL     1      -2.684  11.742  17.284  0.00  0.00    +0.000 N 
ATOM     23  C   UNL     1      -1.756  10.993  18.008  0.00  0.00    +0.000 C 
ATOM     24  O   UNL     1      -1.841   9.781  18.196  0.00  0.00    +0.000 OA
ATOM     25  H   UNL     1      -2.458  12.695  17.030  0.00  0.00    +0.000 HD
BRANCH  22  27
ATOM     26  C   UNL     1      -5.025  11.954  16.903  0.00  0.00    +0.000 C 
ATOM     27  N   UNL     1      -3.831  11.130  16.724  0.00  0.00    +0.000 NA
ATOM     28  C   UNL     1      -3.613  10.823  15.308  0.00  0.00    +0.000 C 
ENDBRANCH  22  27
ENDBRANCH  17  23
ENDBRANCH   1  21
TORSDOF 6
ENDMDL
MODEL 5
REMARK VINA RESULT:      -7.3      1.447      1.665
REMARK  Name = 
REMARK  10 active torsions:
REMARK  status: ('A' for Active; 'I' for Inactive)
REMARK    1  A    between atoms: C_1  and  N_2
REMARK    2  A    between atoms: N_2  and  C_3
REMARK    3  A    between atoms: N_2  and  N_4
REMARK    4  A    between atoms: C_5  and  C_7
REMARK    5  A    between atoms: C_11  and  N_12
REMARK    6  A    between atoms: C_13  and  C_15
REMARK    7  A    between atoms: C_18  and  S_19
REMARK    8  A    between atoms: S_19  and  N_22
REMARK    9  A    between atoms: N_22  and  C_23
REMARK   10  A    between atoms: N_22  and  C_24
REMARK                            x       y       z     vdW  Elec       q    Type
REMARK                         _______ _______ _______ _____ _____    ______ ____
ROOT
ATOM      1  N   UNL     1       1.448  10.409  18.725  0.00  0.00    +0.000 N 
ATOM      2  C   UNL     1       1.339   9.254  19.480  0.00  0.00    +0.000 C 
ATOM      3  O   UNL     1       0.541   9.101  20.403  0.00  0.00    +0.000 OA
ATOM      4  H   UNL     1       1.799  10.366  17.782  0.00  0.00    +0.000 HD
ENDROOT
BRANCH   2   5
ATOM      5  C   UNL     1       2.183   8.085  19.085  0.00  0.00    +0.000 A 
ATOM      6  C   UNL     1       2.190   6.997  19.976  0.00  0.00    +0.000 A 
ATOM      7  C   UNL     1       2.892   5.831  19.680  0.00  0.00    +0.000 A 
ATOM      8  C   UNL     1       3.574   5.730  18.471  0.00  0.00    +0.000 A 
ATOM      9  C   UNL     1       3.611   6.814  17.583  0.00  0.00    +0.000 A 
ATOM     10  C   UNL     1       2.907   7.989  17.886  0.00  0.00    +0.000 A 
BRANCH   8  11
ATOM     11  S   UNL     1       4.434   4.215  18.080  0.00  0.00    +0.000 S 
ATOM     12  O   UNL     1       4.359   4.040  16.645  0.00  0.00    +0.000 OA
ATOM     13  O   UNL     1       5.707   4.247  18.767  0.00  0.00    +0.000 OA
BRANCH  11  14
ATOM     14  N   UNL     1       3.458   3.024  18.811  0.00  0.00    +0.000 NA
ATOM     15  C   UNL     1       2.629   2.196  17.918  0.00  0.00    +0.000 C 
ATOM     16  C   UNL     1       4.065   2.262  19.915  0.00  0.00    +0.000 C 
ENDBRANCH  11  14
ENDBRANCH   8  11
ENDBRANCH   2   5
BRANCH   1  21
ATOM     17  C   UNL     1      -0.601  11.908  18.605  0.00  0.00    +0.000 A 
ATOM     18  C   UNL     1      -0.867  13.232  19.117  0.00  0.00    +0.000 A 
ATOM     19  C   UNL     1       0.134  13.703  19.940  0.00  0.00    +0.000 A 
ATOM     20  S   UNL     1       1.361  12.537  20.172  0.00  0.00    +0.000 S 
ATOM     21  C   UNL     1       0.647  11.490  19.038  0.00  0.00    +0.000 A 
BRANCH  17  23
ATOM     22  N   UNL     1      -2.665  11.760  17.383  0.00  0.00    +0.000 N 
ATOM     23  C   UNL     1      -1.534  11.075  17.828  0.00  0.00    +0.000 C 
ATOM     24  O   UNL     1      -1.341   9.873  17.656  0.00  0.00    +0.000 OA
ATOM     25  H   UNL     1      -2.672  12.772  17.412  0.00  0.00    +0.000 HD
BRANCH  22  27
ATOM     26  C   UNL     1      -4.993  11.747  16.882  0.00  0.00    +0.000 C 
ATOM     27  N   UNL     1      -3.704  11.081  16.703  0.00  0.00    +0.000 NA
ATOM     28  C   UNL     1      -3.382  10.935  15.282  0.00  0.00    +0.000 C 
ENDBRANCH  22  27
ENDBRANCH  17  23
ENDBRANCH   1  21
TORSDOF 6
ENDMDL
MODEL 6
REMARK VINA RESULT:      -7.3      0.457      1.236
REMARK  Name = 
REMARK  10 active torsions:
REMARK  status: ('A' for Active; 'I' for Inactive)
REMARK    1  A    between atoms: C_1  and  N_2
REMARK    2  A    between atoms: N_2  and  C_3
REMARK    3  A    between atoms: N_2  and  N_4
REMARK    4  A    between atoms: C_5  and  C_7
REMARK    5  A    between atoms: C_11  and  N_12
REMARK    6  A    between atoms: C_13  and  C_15
REMARK    7  A    between atoms: C_18  and  S_19
REMARK    8  A    between atoms: S_19  and  N_22
REMARK    9  A    between atoms: N_22  and  C_23
REMARK   10  A    between atoms: N_22  and  C_24
REMARK                            x       y       z     vdW  Elec       q    Type
REMARK                         _______ _______ _______ _____ _____    ______ ____
ROOT
ATOM      1  N   UNL     1       0.899   9.784  19.448  0.00  0.00    +0.000 N 
ATOM      2  C   UNL     1       1.658   9.095  18.517  0.00  0.00    +0.000 C 
ATOM      3  O   UNL     1       2.062   9.575  17.460  0.00  0.00    +0.000 OA
ATOM      4  H   UNL     1       0.925   9.517  20.418  0.00  0.00    +0.000 HD
ENDROOT
BRANCH   2   5
ATOM      5  C   UNL     1       2.092   7.707  18.865  0.00  0.00    +0.000 A 
ATOM      6  C   UNL     1       2.826   7.023  17.881  0.00  0.00    +0.000 A 
ATOM      7  C   UNL     1       3.335   5.748  18.121  0.00  0.00    +0.000 A 
ATOM      8  C   UNL     1       3.136   5.154  19.365  0.00  0.00    +0.000 A 
ATOM      9  C   UNL     1       2.376   5.802  20.349  0.00  0.00    +0.000 A 
ATOM     10  C   UNL     1       1.862   7.084  20.102  0.00  0.00    +0.000 A 
BRANCH   8  11
ATOM     11  S   UNL     1       3.829   3.539  19.678  0.00  0.00    +0.000 S 
ATOM     12  O   UNL     1       5.246   3.621  19.395  0.00  0.00    +0.000 OA
ATOM     13  O   UNL     1       3.346   3.102  20.971  0.00  0.00    +0.000 OA
BRANCH  11  14
ATOM     14  N   UNL     1       3.102   2.573  18.478  0.00  0.00    +0.000 NA
ATOM     15  C   UNL     1       3.743   1.281  18.178  0.00  0.00    +0.000 C 
ATOM     16  C   UNL     1       1.631   2.505  18.487  0.00  0.00    +0.000 C 
ENDBRANCH  11  14
ENDBRANCH   8  11
ENDBRANCH   2   5
BRANCH   1  21
ATOM     17  C   UNL     1      -0.517  11.640  18.445  0.00  0.00    +0.000 A 
ATOM     18  C   UNL     1      -0.305  13.062  18.317  0.00  0.00    +0.000 A 
ATOM     19  C   UNL     1       0.814  13.503  18.992  0.00  0.00    +0.000 A 
ATOM     20  S   UNL     1       1.574  12.236  19.848  0.00  0.00    +0.000 S 
ATOM     21  C   UNL     1       0.522  11.084  19.172  0.00  0.00    +0.000 A 
BRANCH  17  23
ATOM     22  N   UNL     1      -2.241  11.392  16.788  0.00  0.00    +0.000 N 
ATOM     23  C   UNL     1      -1.695  10.893  17.971  0.00  0.00    +0.000 C 
ATOM     24  O   UNL     1      -2.171   9.959  18.612  0.00  0.00    +0.000 OA
ATOM     25  H   UNL     1      -1.702  12.044  16.232  0.00  0.00    +0.000 HD
BRANCH  22  27
ATOM     26  C   UNL     1      -4.592  11.683  16.548  0.00  0.00    +0.000 C 
ATOM     27  N   UNL     1      -3.431  10.845  16.251  0.00  0.00    +0.000 NA
ATOM     28  C   UNL     1      -3.296  10.629  14.809  0.00  0.00    +0.000 C 
ENDBRANCH  22  27
ENDBRANCH  17  23
ENDBRANCH   1  21
TORSDOF 6
ENDMDL
MODEL 7
REMARK VINA RESULT:      -7.2      3.190      8.647
REMARK  Name = 
REMARK  10 active torsions:
REMARK  status: ('A' for Active; 'I' for Inactive)
REMARK    1  A    between atoms: C_1  and  N_2
REMARK    2  A    between atoms: N_2  and  C_3
REMARK    3  A    between atoms: N_2  and  N_4
REMARK    4  A    between atoms: C_5  and  C_7
REMARK    5  A    between atoms: C_11  and  N_12
REMARK    6  A    between atoms: C_13  and  C_15
REMARK    7  A    between atoms: C_18  and  S_19
REMARK    8  A    between atoms: S_19  and  N_22
REMARK    9  A    between atoms: N_22  and  C_23
REMARK   10  A    between atoms: N_22  and  C_24
REMARK                            x       y       z     vdW  Elec       q    Type
REMARK                         _______ _______ _______ _____ _____    ______ ____
ROOT
ATOM      1  N   UNL     1       4.552   6.902  17.366  0.00  0.00    +0.000 N 
ATOM      2  C   UNL     1       3.278   6.583  17.805  0.00  0.00    +0.000 C 
ATOM      3  O   UNL     1       2.812   5.446  17.815  0.00  0.00    +0.000 OA
ATOM      4  H   UNL     1       5.020   7.719  17.723  0.00  0.00    +0.000 HD
ENDROOT
BRANCH   2   5
ATOM      5  C   UNL     1       2.450   7.683  18.388  0.00  0.00    +0.000 A 
ATOM      6  C   UNL     1       2.097   7.541  19.741  0.00  0.00    +0.000 A 
ATOM      7  C   UNL     1       1.381   8.535  20.405  0.00  0.00    +0.000 A 
ATOM      8  C   UNL     1       1.032   9.699  19.725  0.00  0.00    +0.000 A 
ATOM      9  C   UNL     1       1.342   9.847  18.365  0.00  0.00    +0.000 A 
ATOM     10  C   UNL     1       2.059   8.842  17.699  0.00  0.00    +0.000 A 
BRANCH   8  11
ATOM     11  S   UNL     1       0.153  10.986  20.595  0.00  0.00    +0.000 S 
ATOM     12  O   UNL     1      -1.240  10.884  20.214  0.00  0.00    +0.000 OA
ATOM     13  O   UNL     1       0.557  10.927  21.983  0.00  0.00    +0.000 OA
BRANCH  11  14
ATOM     14  N   UNL     1       0.788  12.411  19.910  0.00  0.00    +0.000 NA
ATOM     15  C   UNL     1      -0.179  13.409  19.422  0.00  0.00    +0.000 C 
ATOM     16  C   UNL     1       1.948  13.009  20.591  0.00  0.00    +0.000 C 
ENDBRANCH  11  14
ENDBRANCH   8  11
ENDBRANCH   2   5
BRANCH   1  21
ATOM     17  C   UNL     1       6.049   4.850  17.449  0.00  0.00    +0.000 A 
ATOM     18  C   UNL     1       6.901   4.229  16.463  0.00  0.00    +0.000 A 
ATOM     19  C   UNL     1       6.763   4.781  15.207  0.00  0.00    +0.000 A 
ATOM     20  S   UNL     1       5.556   5.988  15.178  0.00  0.00    +0.000 S 
ATOM     21  C   UNL     1       5.356   5.897  16.864  0.00  0.00    +0.000 A 
BRANCH  17  23
ATOM     22  N   UNL     1       5.026   3.280  18.954  0.00  0.00    +0.000 N 
ATOM     23  C   UNL     1       5.855   4.396  18.837  0.00  0.00    +0.000 C 
ATOM     24  O   UNL     1       6.339   5.002  19.791  0.00  0.00    +0.000 OA
ATOM     25  H   UNL     1       4.809   2.737  18.128  0.00  0.00    +0.000 HD
BRANCH  22  27
ATOM     26  C   UNL     1       3.272   3.084  20.552  0.00  0.00    +0.000 C 
ATOM     27  N   UNL     1       4.663   2.777  20.227  0.00  0.00    +0.000 NA
ATOM     28  C   UNL     1       4.915   1.336  20.303  0.00  0.00    +0.000 C 
ENDBRANCH  22  27
ENDBRANCH  17  23
ENDBRANCH   1  21
TORSDOF 6
ENDMDL
MODEL 8
REMARK VINA RESULT:      -7.2      0.539      1.083
REMARK  Name = 
REMARK  10 active torsions:
REMARK  status: ('A' for Active; 'I' for Inactive)
REMARK    1  A    between atoms: C_1  and  N_2
REMARK    2  A    between atoms: N_2  and  C_3
REMARK    3  A    between atoms: N_2  and  N_4
REMARK    4  A    between atoms: C_5  and  C_7
REMARK    5  A    between atoms: C_11  and  N_12
REMARK    6  A    between atoms: C_13  and  C_15
REMARK    7  A    between atoms: C_18  and  S_19
REMARK    8  A    between atoms: S_19  and  N_22
REMARK    9  A    between atoms: N_22  and  C_23
REMARK   10  A    between atoms: N_22  and  C_24
REMARK                            x       y       z     vdW  Elec       q    Type
REMARK                         _______ _______ _______ _____ _____    ______ ____
ROOT
ATOM      1  N   UNL     1       0.924  10.087  19.430  0.00  0.00    +0.000 N 
ATOM      2  C   UNL     1       1.730   9.518  18.458  0.00  0.00    +0.000 C 
ATOM      3  O   UNL     1       2.101  10.097  17.439  0.00  0.00    +0.000 OA
ATOM      4  H   UNL     1       0.968   9.755  20.380  0.00  0.00    +0.000 HD
ENDROOT
BRANCH   2   5
ATOM      5  C   UNL     1       2.257   8.142  18.711  0.00  0.00    +0.000 A 
ATOM      6  C   UNL     1       1.859   7.538  19.916  0.00  0.00    +0.000 A 
ATOM      7  C   UNL     1       2.238   6.234  20.226  0.00  0.00    +0.000 A 
ATOM      8  C   UNL     1       3.001   5.508  19.316  0.00  0.00    +0.000 A 
ATOM      9  C   UNL     1       3.441   6.101  18.124  0.00  0.00    +0.000 A 
ATOM     10  C   UNL     1       3.060   7.416  17.817  0.00  0.00    +0.000 A 
BRANCH   8  11
ATOM     11  S   UNL     1       3.446   3.823  19.702  0.00  0.00    +0.000 S 
ATOM     12  O   UNL     1       4.879   3.710  19.533  0.00  0.00    +0.000 OA
ATOM     13  O   UNL     1       2.809   3.481  20.956  0.00  0.00    +0.000 OA
BRANCH  11  14
ATOM     14  N   UNL     1       2.693   2.936  18.457  0.00  0.00    +0.000 NA
ATOM     15  C   UNL     1       3.346   1.684  18.037  0.00  0.00    +0.000 C 
ATOM     16  C   UNL     1       1.225   2.835  18.515  0.00  0.00    +0.000 C 
ENDBRANCH  11  14
ENDBRANCH   8  11
ENDBRANCH   2   5
BRANCH   1  21
ATOM     17  C   UNL     1      -0.541  11.922  18.458  0.00  0.00    +0.000 A 
ATOM     18  C   UNL     1      -0.450  13.362  18.500  0.00  0.00    +0.000 A 
ATOM     19  C   UNL     1       0.543  13.814  19.344  0.00  0.00    +0.000 A 
ATOM     20  S   UNL     1       1.320  12.526  20.152  0.00  0.00    +0.000 S 
ATOM     21  C   UNL     1       0.460  11.374  19.244  0.00  0.00    +0.000 A 
BRANCH  17  23
ATOM     22  N   UNL     1      -2.187  11.809  16.710  0.00  0.00    +0.000 N 
ATOM     23  C   UNL     1      -1.585  11.138  17.775  0.00  0.00    +0.000 C 
ATOM     24  O   UNL     1      -1.920  10.023  18.168  0.00  0.00    +0.000 OA
ATOM     25  H   UNL     1      -1.747  12.642  16.340  0.00  0.00    +0.000 HD
BRANCH  22  27
ATOM     26  C   UNL     1      -2.900   9.961  15.388  0.00  0.00    +0.000 C 
ATOM     27  N   UNL     1      -3.273  11.231  16.010  0.00  0.00    +0.000 NA
ATOM     28  C   UNL     1      -4.427  11.063  16.896  0.00  0.00    +0.000 C 
ENDBRANCH  22  27
ENDBRANCH  17  23
ENDBRANCH   1  21
TORSDOF 6
ENDMDL
MODEL 9
REMARK VINA RESULT:      -7.1      2.656      8.318
REMARK  Name = 
REMARK  10 active torsions:
REMARK  status: ('A' for Active; 'I' for Inactive)
REMARK    1  A    between atoms: C_1  and  N_2
REMARK    2  A    between atoms: N_2  and  C_3
REMARK    3  A    between atoms: N_2  and  N_4
REMARK    4  A    between atoms: C_5  and  C_7
REMARK    5  A    between atoms: C_11  and  N_12
REMARK    6  A    between atoms: C_13  and  C_15
REMARK    7  A    between atoms: C_18  and  S_19
REMARK    8  A    between atoms: S_19  and  N_22
REMARK    9  A    between atoms: N_22  and  C_23
REMARK   10  A    between atoms: N_22  and  C_24
REMARK                            x       y       z     vdW  Elec       q    Type
REMARK                         _______ _______ _______ _____ _____    ______ ____
ROOT
ATOM      1  N   UNL     1       4.226   6.830  17.776  0.00  0.00    +0.000 N 
ATOM      2  C   UNL     1       2.862   6.758  18.002  0.00  0.00    +0.000 C 
ATOM      3  O   UNL     1       2.152   5.813  17.663  0.00  0.00    +0.000 OA
ATOM      4  H   UNL     1       4.810   7.386  18.380  0.00  0.00    +0.000 HD
ENDROOT
BRANCH   2   5
ATOM      5  C   UNL     1       2.230   7.859  18.790  0.00  0.00    +0.000 A 
ATOM      6  C   UNL     1       1.939   9.039  18.083  0.00  0.00    +0.000 A 
ATOM      7  C   UNL     1       1.292  10.107  18.702  0.00  0.00    +0.000 A 
ATOM      8  C   UNL     1       0.904   9.994  20.035  0.00  0.00    +0.000 A 
ATOM      9  C   UNL     1       1.216   8.842  20.770  0.00  0.00    +0.000 A 
ATOM     10  C   UNL     1       1.871   7.770  20.145  0.00  0.00    +0.000 A 
BRANCH   8  11
ATOM     11  S   UNL     1       0.038  11.349  20.807  0.00  0.00    +0.000 S 
ATOM     12  O   UNL     1      -0.990  10.774  21.650  0.00  0.00    +0.000 OA
ATOM     13  O   UNL     1       1.033  12.252  21.346  0.00  0.00    +0.000 OA
BRANCH  11  14
ATOM     14  N   UNL     1      -0.724  12.115  19.489  0.00  0.00    +0.000 NA
ATOM     15  C   UNL     1      -2.189  11.989  19.396  0.00  0.00    +0.000 C 
ATOM     16  C   UNL     1      -0.231  13.455  19.130  0.00  0.00    +0.000 C 
ENDBRANCH  11  14
ENDBRANCH   8  11
ENDBRANCH   2   5
BRANCH   1  21
ATOM     17  C   UNL     1       5.234   4.522  17.440  0.00  0.00    +0.000 A 
ATOM     18  C   UNL     1       6.032   3.955  16.379  0.00  0.00    +0.000 A 
ATOM     19  C   UNL     1       6.146   4.789  15.287  0.00  0.00    +0.000 A 
ATOM     20  S   UNL     1       5.235   6.220  15.487  0.00  0.00    +0.000 S 
ATOM     21  C   UNL     1       4.845   5.804  17.089  0.00  0.00    +0.000 A 
BRANCH  17  23
ATOM     22  N   UNL     1       3.444   3.515  18.690  0.00  0.00    +0.000 N 
ATOM     23  C   UNL     1       4.803   3.828  18.666  0.00  0.00    +0.000 C 
ATOM     24  O   UNL     1       5.579   3.614  19.596  0.00  0.00    +0.000 OA
ATOM     25  H   UNL     1       2.911   3.564  17.831  0.00  0.00    +0.000 HD
BRANCH  22  27
ATOM     26  C   UNL     1       2.370   3.948  20.770  0.00  0.00    +0.000 C 
ATOM     27  N   UNL     1       2.854   2.932  19.837  0.00  0.00    +0.000 NA
ATOM     28  C   UNL     1       1.778   2.015  19.455  0.00  0.00    +0.000 C 
ENDBRANCH  22  27
ENDBRANCH  17  23
ENDBRANCH   1  21
TORSDOF 6
ENDMDL
