MODEL 1
REMARK VINA RESULT:      -8.4      0.000      0.000
REMARK  Name = 
REMARK  5 active torsions:
REMARK  status: ('A' for Active; 'I' for Inactive)
REMARK    1  A    between atoms: C_1  and  C_2
REMARK    2  A    between atoms: C_3  and  C_4
REMARK    3  A    between atoms: N_22  and  C_23
REMARK    4  A    between atoms: C_23  and  C_24
REMARK    5  A    between atoms: C_24  and  O_26
REMARK                            x       y       z     vdW  Elec       q    Type
REMARK                         _______ _______ _______ _____ _____    ______ ____
ROOT
ATOM      1  C   UNL     1       5.604   5.058  19.549  0.00  0.00    +0.000 C 
ATOM      2  C   UNL     1       5.786   4.688  18.108  0.00  0.00    +0.000 A 
ATOM      3  C   UNL     1       5.085   3.776  17.288  0.00  0.00    +0.000 A 
ATOM      4  C   UNL     1       5.663   3.955  15.961  0.00  0.00    +0.000 A 
ATOM      5  C   UNL     1       5.419   3.408  14.679  0.00  0.00    +0.000 A 
ATOM      6  C   UNL     1       6.163   3.839  13.574  0.00  0.00    +0.000 A 
ATOM      7  F   UNL     1       5.912   3.310  12.369  0.00  0.00    +0.000 F 
ATOM      8  C   UNL     1       7.148   4.802  13.687  0.00  0.00    +0.000 A 
ATOM      9  C   UNL     1       7.430   5.355  14.931  0.00  0.00    +0.000 A 
ATOM     10  C   UNL     1       6.685   4.916  16.047  0.00  0.00    +0.000 A 
ATOM     11  N   UNL     1       6.787   5.288  17.368  0.00  0.00    +0.000 N 
ENDROOT
BRANCH   3  12
ATOM     12  C   UNL     1       3.918   2.861  17.777  0.00  0.00    +0.000 C 
ATOM     13  N   UNL     1       2.743   3.138  16.879  0.00  0.00    +0.000 NA
ATOM     14  S   UNL     1       1.399   3.504  17.843  0.00  0.00    +0.000 S 
ATOM     15  O   UNL     1       0.699   4.610  17.213  0.00  0.00    +0.000 OA
ATOM     16  O   UNL     1       0.747   2.286  18.235  0.00  0.00    +0.000 OA
ATOM     17  C   UNL     1       2.404   4.113  19.176  0.00  0.00    +0.000 A 
ATOM     18  C   UNL     1       1.800   4.653  20.301  0.00  0.00    +0.000 A 
ATOM     19  C   UNL     1       2.010   3.989  21.495  0.00  0.00    +0.000 A 
ATOM     20  C   UNL     1       2.754   2.797  21.478  0.00  0.00    +0.000 A 
ATOM     21  C   UNL     1       3.492   2.411  20.334  0.00  0.00    +0.000 A 
ATOM     22  C   UNL     1       3.456   3.200  19.189  0.00  0.00    +0.000 A 
ATOM     23  H   UNL     1       2.888   3.947  16.275  0.00  0.00    +0.000 HD
ENDBRANCH   3  12
BRANCH  11  24
ATOM     24  C   UNL     1       7.831   6.178  17.891  0.00  0.00    +0.000 C 
BRANCH  24  25
ATOM     25  C   UNL     1       7.594   7.652  17.685  0.00  0.00    +0.000 C 
ATOM     26  O   UNL     1       6.663   8.077  17.017  0.00  0.00    +0.000 OA
BRANCH  25  27
ATOM     27  O   UNL     1       8.417   8.498  18.347  0.00  0.00    +0.000 OA
ATOM     28  H   UNL     1       8.053   8.901  19.160  0.00  0.00    +0.000 HD
ENDBRANCH  25  27
ENDBRANCH  24  25
ENDBRANCH  11  24
TORSDOF 4
ENDMDL
MODEL 2
REMARK VINA RESULT:      -8.4      9.250     11.871
REMARK  Name = 
REMARK  5 active torsions:
REMARK  status: ('A' for Active; 'I' for Inactive)
REMARK    1  A    between atoms: C_1  and  C_2
REMARK    2  A    between atoms: C_3  and  C_4
REMARK    3  A    between atoms: N_22  and  C_23
REMARK    4  A    between atoms: C_23  and  C_24
REMARK    5  A    between atoms: C_24  and  O_26
REMARK                            x       y       z     vdW  Elec       q    Type
REMARK                         _______ _______ _______ _____ _____    ______ ____
ROOT
ATOM      1  C   UNL     1      -4.554  12.978  22.226  0.00  0.00    +0.000 C 
ATOM      2  C   UNL     1      -4.153  12.597  20.833  0.00  0.00    +0.000 A 
ATOM      3  C   UNL     1      -2.881  12.356  20.267  0.00  0.00    +0.000 A 
ATOM      4  C   UNL     1      -3.163  11.914  18.905  0.00  0.00    +0.000 A 
ATOM      5  C   UNL     1      -2.380  11.477  17.811  0.00  0.00    +0.000 A 
ATOM      6  C   UNL     1      -2.995  11.083  16.616  0.00  0.00    +0.000 A 
ATOM      7  F   UNL     1      -2.234  10.668  15.594  0.00  0.00    +0.000 F 
ATOM      8  C   UNL     1      -4.368  11.102  16.459  0.00  0.00    +0.000 A 
ATOM      9  C   UNL     1      -5.174  11.540  17.505  0.00  0.00    +0.000 A 
ATOM     10  C   UNL     1      -4.555  11.944  18.708  0.00  0.00    +0.000 A 
ATOM     11  N   UNL     1      -5.122  12.430  19.862  0.00  0.00    +0.000 N 
ENDROOT
BRANCH   3  12
ATOM     12  C   UNL     1      -1.528  12.501  21.032  0.00  0.00    +0.000 C 
ATOM     13  N   UNL     1      -0.516  12.998  20.036  0.00  0.00    +0.000 NA
ATOM     14  S   UNL     1       0.831  11.973  20.076  0.00  0.00    +0.000 S 
ATOM     15  O   UNL     1       1.259  11.763  18.703  0.00  0.00    +0.000 OA
ATOM     16  O   UNL     1       1.724  12.396  21.117  0.00  0.00    +0.000 OA
ATOM     17  C   UNL     1      -0.128  10.581  20.624  0.00  0.00    +0.000 A 
ATOM     18  C   UNL     1       0.481   9.345  20.776  0.00  0.00    +0.000 A 
ATOM     19  C   UNL     1       0.511   8.823  22.056  0.00  0.00    +0.000 A 
ATOM     20  C   UNL     1      -0.008   9.596  23.107  0.00  0.00    +0.000 A 
ATOM     21  C   UNL     1      -0.777  10.757  22.853  0.00  0.00    +0.000 A 
ATOM     22  C   UNL     1      -0.995  11.168  21.542  0.00  0.00    +0.000 A 
ATOM     23  H   UNL     1      -0.861  12.978  19.077  0.00  0.00    +0.000 HD
ENDBRANCH   3  12
BRANCH  11  24
ATOM     24  C   UNL     1      -6.551  12.736  20.009  0.00  0.00    +0.000 C 
BRANCH  24  25
ATOM     25  C   UNL     1      -7.401  11.627  20.571  0.00  0.00    +0.000 C 
ATOM     26  O   UNL     1      -7.862  11.666  21.703  0.00  0.00    +0.000 OA
BRANCH  25  27
ATOM     27  O   UNL     1      -7.706  10.609  19.732  0.00  0.00    +0.000 OA
ATOM     28  H   UNL     1      -8.532  10.124  19.931  0.00  0.00    +0.000 HD
ENDBRANCH  25  27
ENDBRANCH  24  25
ENDBRANCH  11  24
TORSDOF 4
ENDMDL
MODEL 3
REMARK VINA RESULT:      -8.0      5.270      7.506
REMARK  Name = 
REMARK  5 active torsions:
REMARK  status: ('A' for Active; 'I' for Inactive)
REMARK    1  A    between atoms: C_1  and  C_2
REMARK    2  A    between atoms: C_3  and  C_4
REMARK    3  A    between atoms: N_22  and  C_23
REMARK    4  A    between atoms: C_23  and  C_24
REMARK    5  A    between atoms: C_24  and  O_26
REMARK                            x       y       z     vdW  Elec       q    Type
REMARK                         _______ _______ _______ _____ _____    ______ ____
ROOT
ATOM      1  C   UNL     1       2.562   8.007  17.504  0.00  0.00    +0.000 C 
ATOM      2  C   UNL     1       1.907   8.319  18.815  0.00  0.00    +0.000 A 
ATOM      3  C   UNL     1       1.935   7.638  20.052  0.00  0.00    +0.000 A 
ATOM      4  C   UNL     1       1.196   8.503  20.965  0.00  0.00    +0.000 A 
ATOM      5  C   UNL     1       0.874   8.464  22.342  0.00  0.00    +0.000 A 
ATOM      6  C   UNL     1       0.150   9.511  22.927  0.00  0.00    +0.000 A 
ATOM      7  F   UNL     1      -0.141   9.455  24.234  0.00  0.00    +0.000 F 
ATOM      8  C   UNL     1      -0.271  10.607  22.197  0.00  0.00    +0.000 A 
ATOM      9  C   UNL     1       0.012  10.677  20.837  0.00  0.00    +0.000 A 
ATOM     10  C   UNL     1       0.736   9.619  20.245  0.00  0.00    +0.000 A 
ATOM     11  N   UNL     1       1.116   9.446  18.935  0.00  0.00    +0.000 N 
ENDROOT
BRANCH   3  12
ATOM     12  C   UNL     1       2.677   6.288  20.304  0.00  0.00    +0.000 C 
ATOM     13  N   UNL     1       3.876   6.274  19.395  0.00  0.00    +0.000 NA
ATOM     14  S   UNL     1       3.861   4.836  18.500  0.00  0.00    +0.000 S 
ATOM     15  O   UNL     1       4.247   5.166  17.139  0.00  0.00    +0.000 OA
ATOM     16  O   UNL     1       4.489   3.793  19.261  0.00  0.00    +0.000 OA
ATOM     17  C   UNL     1       2.093   4.683  18.601  0.00  0.00    +0.000 A 
ATOM     18  C   UNL     1       1.455   3.645  17.940  0.00  0.00    +0.000 A 
ATOM     19  C   UNL     1       0.788   2.726  18.729  0.00  0.00    +0.000 A 
ATOM     20  C   UNL     1       0.857   2.866  20.124  0.00  0.00    +0.000 A 
ATOM     21  C   UNL     1       1.364   4.046  20.719  0.00  0.00    +0.000 A 
ATOM     22  C   UNL     1       1.841   5.075  19.914  0.00  0.00    +0.000 A 
ATOM     23  H   UNL     1       3.866   7.033  18.714  0.00  0.00    +0.000 HD
ENDBRANCH   3  12
BRANCH  11  24
ATOM     24  C   UNL     1       0.710  10.334  17.838  0.00  0.00    +0.000 C 
BRANCH  24  25
ATOM     25  C   UNL     1      -0.776  10.485  17.637  0.00  0.00    +0.000 C 
ATOM     26  O   UNL     1      -1.521   9.522  17.522  0.00  0.00    +0.000 OA
BRANCH  25  27
ATOM     27  O   UNL     1      -1.270  11.745  17.673  0.00  0.00    +0.000 OA
ATOM     28  H   UNL     1      -1.880  11.944  18.412  0.00  0.00    +0.000 HD
ENDBRANCH  25  27
ENDBRANCH  24  25
ENDBRANCH  11  24
TORSDOF 4
ENDMDL
MODEL 4
REMARK VINA RESULT:      -8.0      9.502     11.858
REMARK  Name = 
REMARK  5 active torsions:
REMARK  status: ('A' for Active; 'I' for Inactive)
REMARK    1  A    between atoms: C_1  and  C_2
REMARK    2  A    between atoms: C_3  and  C_4
REMARK    3  A    between atoms: N_22  and  C_23
REMARK    4  A    between atoms: C_23  and  C_24
REMARK    5  A    between atoms: C_24  and  O_26
REMARK                            x       y       z     vdW  Elec       q    Type
REMARK                         _______ _______ _______ _____ _____    ______ ____
ROOT
ATOM      1  C   UNL     1      -4.539  13.356  21.992  0.00  0.00    +0.000 C 
ATOM      2  C   UNL     1      -4.105  12.826  20.659  0.00  0.00    +0.000 A 
ATOM      3  C   UNL     1      -2.831  12.447  20.180  0.00  0.00    +0.000 A 
ATOM      4  C   UNL     1      -3.084  11.907  18.849  0.00  0.00    +0.000 A 
ATOM      5  C   UNL     1      -2.287  11.320  17.837  0.00  0.00    +0.000 A 
ATOM      6  C   UNL     1      -2.876  10.867  16.650  0.00  0.00    +0.000 A 
ATOM      7  F   UNL     1      -2.103  10.311  15.708  0.00  0.00    +0.000 F 
ATOM      8  C   UNL     1      -4.235  10.970  16.422  0.00  0.00    +0.000 A 
ATOM      9  C   UNL     1      -5.052  11.554  17.384  0.00  0.00    +0.000 A 
ATOM     10  C   UNL     1      -4.459  12.017  18.578  0.00  0.00    +0.000 A 
ATOM     11  N   UNL     1      -5.039  12.643  19.657  0.00  0.00    +0.000 N 
ENDROOT
BRANCH   3  12
ATOM     12  C   UNL     1      -1.506  12.562  20.999  0.00  0.00    +0.000 C 
ATOM     13  N   UNL     1      -0.444  13.031  20.043  0.00  0.00    +0.000 NA
ATOM     14  S   UNL     1       0.876  11.974  20.140  0.00  0.00    +0.000 S 
ATOM     15  O   UNL     1       1.353  11.748  18.787  0.00  0.00    +0.000 OA
ATOM     16  O   UNL     1       1.736  12.380  21.216  0.00  0.00    +0.000 OA
ATOM     17  C   UNL     1      -0.138  10.607  20.654  0.00  0.00    +0.000 A 
ATOM     18  C   UNL     1       0.435   9.357  20.834  0.00  0.00    +0.000 A 
ATOM     19  C   UNL     1       0.401   8.841  22.116  0.00  0.00    +0.000 A 
ATOM     20  C   UNL     1      -0.142   9.630  23.143  0.00  0.00    +0.000 A 
ATOM     21  C   UNL     1      -0.871  10.808  22.854  0.00  0.00    +0.000 A 
ATOM     22  C   UNL     1      -1.027  11.219  21.534  0.00  0.00    +0.000 A 
ATOM     23  H   UNL     1      -0.750  13.015  19.071  0.00  0.00    +0.000 HD
ENDBRANCH   3  12
BRANCH  11  24
ATOM     24  C   UNL     1      -6.446  13.062  19.704  0.00  0.00    +0.000 C 
BRANCH  24  25
ATOM     25  C   UNL     1      -6.713  14.494  19.319  0.00  0.00    +0.000 C 
ATOM     26  O   UNL     1      -7.153  15.313  20.114  0.00  0.00    +0.000 OA
BRANCH  25  27
ATOM     27  O   UNL     1      -6.364  14.862  18.065  0.00  0.00    +0.000 OA
ATOM     28  H   UNL     1      -5.797  15.656  17.994  0.00  0.00    +0.000 HD
ENDBRANCH  25  27
ENDBRANCH  24  25
ENDBRANCH  11  24
TORSDOF 4
ENDMDL
MODEL 5
REMARK VINA RESULT:      -7.9      5.255      7.183
REMARK  Name = 
REMARK  5 active torsions:
REMARK  status: ('A' for Active; 'I' for Inactive)
REMARK    1  A    between atoms: C_1  and  C_2
REMARK    2  A    between atoms: C_3  and  C_4
REMARK    3  A    between atoms: N_22  and  C_23
REMARK    4  A    between atoms: C_23  and  C_24
REMARK    5  A    between atoms: C_24  and  O_26
REMARK                            x       y       z     vdW  Elec       q    Type
REMARK                         _______ _______ _______ _____ _____    ______ ____
ROOT
ATOM      1  C   UNL     1       2.843   7.887  17.590  0.00  0.00    +0.000 C 
ATOM      2  C   UNL     1       2.115   8.215  18.859  0.00  0.00    +0.000 A 
ATOM      3  C   UNL     1       2.038   7.524  20.089  0.00  0.00    +0.000 A 
ATOM      4  C   UNL     1       1.274   8.410  20.960  0.00  0.00    +0.000 A 
ATOM      5  C   UNL     1       0.861   8.374  22.313  0.00  0.00    +0.000 A 
ATOM      6  C   UNL     1       0.141   9.443  22.860  0.00  0.00    +0.000 A 
ATOM      7  F   UNL     1      -0.236   9.390  24.144  0.00  0.00    +0.000 F 
ATOM      8  C   UNL     1      -0.190  10.560  22.115  0.00  0.00    +0.000 A 
ATOM      9  C   UNL     1       0.184  10.629  20.777  0.00  0.00    +0.000 A 
ATOM     10  C   UNL     1       0.904   9.548  20.223  0.00  0.00    +0.000 A 
ATOM     11  N   UNL     1       1.361   9.370  18.938  0.00  0.00    +0.000 N 
ENDROOT
BRANCH   3  12
ATOM     12  C   UNL     1       2.710   6.144  20.375  0.00  0.00    +0.000 C 
ATOM     13  N   UNL     1       3.955   6.084  19.532  0.00  0.00    +0.000 NA
ATOM     14  S   UNL     1       3.930   4.649  18.632  0.00  0.00    +0.000 S 
ATOM     15  O   UNL     1       4.402   4.966  17.295  0.00  0.00    +0.000 OA
ATOM     16  O   UNL     1       4.474   3.580  19.422  0.00  0.00    +0.000 OA
ATOM     17  C   UNL     1       2.155   4.567  18.638  0.00  0.00    +0.000 A 
ATOM     18  C   UNL     1       1.512   3.557  17.939  0.00  0.00    +0.000 A 
ATOM     19  C   UNL     1       0.767   2.664  18.688  0.00  0.00    +0.000 A 
ATOM     20  C   UNL     1       0.766   2.799  20.086  0.00  0.00    +0.000 A 
ATOM     21  C   UNL     1       1.288   3.957  20.711  0.00  0.00    +0.000 A 
ATOM     22  C   UNL     1       1.848   4.967  19.936  0.00  0.00    +0.000 A 
ATOM     23  H   UNL     1       4.012   6.844  18.854  0.00  0.00    +0.000 HD
ENDBRANCH   3  12
BRANCH  11  24
ATOM     24  C   UNL     1       1.061  10.281  17.826  0.00  0.00    +0.000 C 
BRANCH  24  25
ATOM     25  C   UNL     1       1.609  11.678  17.961  0.00  0.00    +0.000 C 
ATOM     26  O   UNL     1       2.808  11.915  17.927  0.00  0.00    +0.000 OA
BRANCH  25  27
ATOM     27  O   UNL     1       0.704  12.681  18.039  0.00  0.00    +0.000 OA
ATOM     28  H   UNL     1       0.624  13.118  18.911  0.00  0.00    +0.000 HD
ENDBRANCH  25  27
ENDBRANCH  24  25
ENDBRANCH  11  24
TORSDOF 4
ENDMDL
MODEL 6
REMARK VINA RESULT:      -7.7      3.555      6.891
REMARK  Name = 
REMARK  5 active torsions:
REMARK  status: ('A' for Active; 'I' for Inactive)
REMARK    1  A    between atoms: C_1  and  C_2
REMARK    2  A    between atoms: C_3  and  C_4
REMARK    3  A    between atoms: N_22  and  C_23
REMARK    4  A    between atoms: C_23  and  C_24
REMARK    5  A    between atoms: C_24  and  O_26
REMARK                            x       y       z     vdW  Elec       q    Type
REMARK                         _______ _______ _______ _____ _____    ______ ____
ROOT
ATOM      1  C   UNL     1       4.020   2.893  17.483  0.00  0.00    +0.000 C 
ATOM      2  C   UNL     1       3.541   4.135  18.171  0.00  0.00    +0.000 A 
ATOM      3  C   UNL     1       3.841   5.497  17.944  0.00  0.00    +0.000 A 
ATOM      4  C   UNL     1       2.972   6.223  18.863  0.00  0.00    +0.000 A 
ATOM      5  C   UNL     1       2.721   7.588  19.137  0.00  0.00    +0.000 A 
ATOM      6  C   UNL     1       1.765   7.952  20.095  0.00  0.00    +0.000 A 
ATOM      7  F   UNL     1       1.541   9.250  20.336  0.00  0.00    +0.000 F 
ATOM      8  C   UNL     1       1.038   7.009  20.796  0.00  0.00    +0.000 A 
ATOM      9  C   UNL     1       1.265   5.656  20.568  0.00  0.00    +0.000 A 
ATOM     10  C   UNL     1       2.233   5.288  19.608  0.00  0.00    +0.000 A 
ATOM     11  N   UNL     1       2.649   4.036  19.222  0.00  0.00    +0.000 N 
ENDROOT
BRANCH   3  12
ATOM     12  C   UNL     1       4.855   6.015  16.875  0.00  0.00    +0.000 C 
ATOM     13  N   UNL     1       5.604   4.813  16.368  0.00  0.00    +0.000 NA
ATOM     14  S   UNL     1       7.265   5.117  16.495  0.00  0.00    +0.000 S 
ATOM     15  O   UNL     1       7.896   3.898  16.972  0.00  0.00    +0.000 OA
ATOM     16  O   UNL     1       7.712   5.825  15.328  0.00  0.00    +0.000 OA
ATOM     17  C   UNL     1       7.049   6.249  17.848  0.00  0.00    +0.000 A 
ATOM     18  C   UNL     1       8.160   6.808  18.460  0.00  0.00    +0.000 A 
ATOM     19  C   UNL     1       8.292   8.181  18.366  0.00  0.00    +0.000 A 
ATOM     20  C   UNL     1       7.345   8.896  17.616  0.00  0.00    +0.000 A 
ATOM     21  C   UNL     1       6.144   8.288  17.180  0.00  0.00    +0.000 A 
ATOM     22  C   UNL     1       5.906   6.947  17.464  0.00  0.00    +0.000 A 
ATOM     23  H   UNL     1       5.426   3.973  16.918  0.00  0.00    +0.000 HD
ENDBRANCH   3  12
BRANCH  11  24
ATOM     24  C   UNL     1       2.210   2.790  19.864  0.00  0.00    +0.000 C 
BRANCH  24  25
ATOM     25  C   UNL     1       2.831   2.494  21.205  0.00  0.00    +0.000 C 
ATOM     26  O   UNL     1       3.999   2.154  21.323  0.00  0.00    +0.000 OA
BRANCH  25  27
ATOM     27  O   UNL     1       2.054   2.702  22.294  0.00  0.00    +0.000 OA
ATOM     28  H   UNL     1       1.549   1.928  22.613  0.00  0.00    +0.000 HD
ENDBRANCH  25  27
ENDBRANCH  24  25
ENDBRANCH  11  24
TORSDOF 4
ENDMDL
MODEL 7
REMARK VINA RESULT:      -7.6     10.016     12.124
REMARK  Name = 
REMARK  5 active torsions:
REMARK  status: ('A' for Active; 'I' for Inactive)
REMARK    1  A    between atoms: C_1  and  C_2
REMARK    2  A    between atoms: C_3  and  C_4
REMARK    3  A    between atoms: N_22  and  C_23
REMARK    4  A    between atoms: C_23  and  C_24
REMARK    5  A    between atoms: C_24  and  O_26
REMARK                            x       y       z     vdW  Elec       q    Type
REMARK                         _______ _______ _______ _____ _____    ______ ____
ROOT
ATOM      1  C   UNL     1      -5.464  11.463  18.118  0.00  0.00    +0.000 C 
ATOM      2  C   UNL     1      -4.031  11.546  18.550  0.00  0.00    +0.000 A 
ATOM      3  C   UNL     1      -3.401  12.354  19.524  0.00  0.00    +0.000 A 
ATOM      4  C   UNL     1      -2.020  11.885  19.552  0.00  0.00    +0.000 A 
ATOM      5  C   UNL     1      -0.866  12.209  20.304  0.00  0.00    +0.000 A 
ATOM      6  C   UNL     1       0.334  11.519  20.090  0.00  0.00    +0.000 A 
ATOM      7  F   UNL     1       1.412  11.840  20.817  0.00  0.00    +0.000 F 
ATOM      8  C   UNL     1       0.438  10.508  19.153  0.00  0.00    +0.000 A 
ATOM      9  C   UNL     1      -0.668  10.168  18.382  0.00  0.00    +0.000 A 
ATOM     10  C   UNL     1      -1.876  10.868  18.592  0.00  0.00    +0.000 A 
ATOM     11  N   UNL     1      -3.086  10.735  17.952  0.00  0.00    +0.000 N 
ENDROOT
BRANCH   3  12
ATOM     12  C   UNL     1      -4.125  13.443  20.376  0.00  0.00    +0.000 C 
ATOM     13  N   UNL     1      -3.158  14.583  20.538  0.00  0.00    +0.000 NA
ATOM     14  S   UNL     1      -3.023  14.948  22.187  0.00  0.00    +0.000 S 
ATOM     15  O   UNL     1      -1.620  15.205  22.463  0.00  0.00    +0.000 OA
ATOM     16  O   UNL     1      -4.073  15.852  22.564  0.00  0.00    +0.000 OA
ATOM     17  C   UNL     1      -3.438  13.293  22.683  0.00  0.00    +0.000 A 
ATOM     18  C   UNL     1      -3.418  12.953  24.027  0.00  0.00    +0.000 A 
ATOM     19  C   UNL     1      -4.625  12.579  24.588  0.00  0.00    +0.000 A 
ATOM     20  C   UNL     1      -5.780  12.630  23.790  0.00  0.00    +0.000 A 
ATOM     21  C   UNL     1      -5.695  12.804  22.388  0.00  0.00    +0.000 A 
ATOM     22  C   UNL     1      -4.452  12.966  21.785  0.00  0.00    +0.000 A 
ATOM     23  H   UNL     1      -2.216  14.353  20.220  0.00  0.00    +0.000 HD
ENDBRANCH   3  12
BRANCH  11  24
ATOM     24  C   UNL     1      -3.309   9.865  16.790  0.00  0.00    +0.000 C 
BRANCH  24  25
ATOM     25  C   UNL     1      -3.131  10.517  15.443  0.00  0.00    +0.000 C 
ATOM     26  O   UNL     1      -3.648  10.073  14.429  0.00  0.00    +0.000 OA
BRANCH  25  27
ATOM     27  O   UNL     1      -2.433  11.677  15.416  0.00  0.00    +0.000 OA
ATOM     28  H   UNL     1      -2.736  12.343  14.767  0.00  0.00    +0.000 HD
ENDBRANCH  25  27
ENDBRANCH  24  25
ENDBRANCH  11  24
TORSDOF 4
ENDMDL
MODEL 8
REMARK VINA RESULT:      -7.4      4.787      6.804
REMARK  Name = 
REMARK  5 active torsions:
REMARK  status: ('A' for Active; 'I' for Inactive)
REMARK    1  A    between atoms: C_1  and  C_2
REMARK    2  A    between atoms: C_3  and  C_4
REMARK    3  A    between atoms: N_22  and  C_23
REMARK    4  A    between atoms: C_23  and  C_24
REMARK    5  A    between atoms: C_24  and  O_26
REMARK                            x       y       z     vdW  Elec       q    Type
REMARK                         _______ _______ _______ _____ _____    ______ ____
ROOT
ATOM      1  C   UNL     1       1.630   5.579  20.573  0.00  0.00    +0.000 C 
ATOM      2  C   UNL     1       1.801   6.938  19.964  0.00  0.00    +0.000 A 
ATOM      3  C   UNL     1       2.456   7.348  18.781  0.00  0.00    +0.000 A 
ATOM      4  C   UNL     1       2.172   8.775  18.680  0.00  0.00    +0.000 A 
ATOM      5  C   UNL     1       2.474   9.794  17.745  0.00  0.00    +0.000 A 
ATOM      6  C   UNL     1       2.003  11.098  17.945  0.00  0.00    +0.000 A 
ATOM      7  F   UNL     1       2.297  12.045  17.044  0.00  0.00    +0.000 F 
ATOM      8  C   UNL     1       1.237  11.438  19.044  0.00  0.00    +0.000 A 
ATOM      9  C   UNL     1       0.930  10.470  19.995  0.00  0.00    +0.000 A 
ATOM     10  C   UNL     1       1.410   9.157  19.797  0.00  0.00    +0.000 A 
ATOM     11  N   UNL     1       1.263   8.045  20.592  0.00  0.00    +0.000 N 
ENDROOT
BRANCH   3  12
ATOM     12  C   UNL     1       3.238   6.394  17.824  0.00  0.00    +0.000 C 
ATOM     13  N   UNL     1       2.860   4.989  18.206  0.00  0.00    +0.000 NA
ATOM     14  S   UNL     1       4.277   4.100  18.468  0.00  0.00    +0.000 S 
ATOM     15  O   UNL     1       4.061   3.271  19.641  0.00  0.00    +0.000 OA
ATOM     16  O   UNL     1       4.751   3.577  17.217  0.00  0.00    +0.000 OA
ATOM     17  C   UNL     1       5.211   5.543  18.917  0.00  0.00    +0.000 A 
ATOM     18  C   UNL     1       6.528   5.409  19.330  0.00  0.00    +0.000 A 
ATOM     19  C   UNL     1       7.489   6.003  18.534  0.00  0.00    +0.000 A 
ATOM     20  C   UNL     1       7.080   6.636  17.348  0.00  0.00    +0.000 A 
ATOM     21  C   UNL     1       5.714   6.896  17.090  0.00  0.00    +0.000 A 
ATOM     22  C   UNL     1       4.747   6.487  18.003  0.00  0.00    +0.000 A 
ATOM     23  H   UNL     1       2.331   4.944  19.077  0.00  0.00    +0.000 HD
ENDBRANCH   3  12
BRANCH  11  24
ATOM     24  C   UNL     1       0.639   8.062  21.922  0.00  0.00    +0.000 C 
BRANCH  24  25
ATOM     25  C   UNL     1       1.081   9.176  22.835  0.00  0.00    +0.000 C 
ATOM     26  O   UNL     1       0.284   9.889  23.428  0.00  0.00    +0.000 OA
BRANCH  25  27
ATOM     27  O   UNL     1       2.413   9.303  23.039  0.00  0.00    +0.000 OA
ATOM     28  H   UNL     1       2.885   9.900  22.425  0.00  0.00    +0.000 HD
ENDBRANCH  25  27
ENDBRANCH  24  25
ENDBRANCH  11  24
TORSDOF 4
ENDMDL
MODEL 9
REMARK VINA RESULT:      -7.4      9.155     11.136
REMARK  Name = 
REMARK  5 active torsions:
REMARK  status: ('A' for Active; 'I' for Inactive)
REMARK    1  A    between atoms: C_1  and  C_2
REMARK    2  A    between atoms: C_3  and  C_4
REMARK    3  A    between atoms: N_22  and  C_23
REMARK    4  A    between atoms: C_23  and  C_24
REMARK    5  A    between atoms: C_24  and  O_26
REMARK                            x       y       z     vdW  Elec       q    Type
REMARK                         _______ _______ _______ _____ _____    ______ ____
ROOT
ATOM      1  C   UNL     1      -1.595  12.039  17.820  0.00  0.00    +0.000 C 
ATOM      2  C   UNL     1      -1.114  11.485  19.127  0.00  0.00    +0.000 A 
ATOM      3  C   UNL     1      -1.338  11.914  20.455  0.00  0.00    +0.000 A 
ATOM      4  C   UNL     1      -0.699  10.896  21.282  0.00  0.00    +0.000 A 
ATOM      5  C   UNL     1      -0.570  10.671  22.673  0.00  0.00    +0.000 A 
ATOM      6  C   UNL     1       0.106   9.538  23.145  0.00  0.00    +0.000 A 
ATOM      7  F   UNL     1       0.213   9.343  24.465  0.00  0.00    +0.000 F 
ATOM      8  C   UNL     1       0.664   8.609  22.286  0.00  0.00    +0.000 A 
ATOM      9  C   UNL     1       0.573   8.801  20.912  0.00  0.00    +0.000 A 
ATOM     10  C   UNL     1      -0.102   9.945  20.435  0.00  0.00    +0.000 A 
ATOM     11  N   UNL     1      -0.305  10.365  19.141  0.00  0.00    +0.000 N 
ENDROOT
BRANCH   3  12
ATOM     12  C   UNL     1      -2.158  13.182  20.851  0.00  0.00    +0.000 C 
ATOM     13  N   UNL     1      -1.233  14.069  21.640  0.00  0.00    +0.000 NA
ATOM     14  S   UNL     1      -1.986  14.470  23.103  0.00  0.00    +0.000 S 
ATOM     15  O   UNL     1      -0.976  14.401  24.145  0.00  0.00    +0.000 OA
ATOM     16  O   UNL     1      -2.832  15.613  22.907  0.00  0.00    +0.000 OA
ATOM     17  C   UNL     1      -2.961  12.985  23.116  0.00  0.00    +0.000 A 
ATOM     18  C   UNL     1      -3.787  12.714  24.196  0.00  0.00    +0.000 A 
ATOM     19  C   UNL     1      -5.144  12.662  23.940  0.00  0.00    +0.000 A 
ATOM     20  C   UNL     1      -5.592  12.946  22.640  0.00  0.00    +0.000 A 
ATOM     21  C   UNL     1      -4.688  13.028  21.554  0.00  0.00    +0.000 A 
ATOM     22  C   UNL     1      -3.325  12.863  21.776  0.00  0.00    +0.000 A 
ATOM     23  H   UNL     1      -0.357  13.608  21.887  0.00  0.00    +0.000 HD
ENDBRANCH   3  12
BRANCH  11  24
ATOM     24  C   UNL     1       0.281   9.711  17.965  0.00  0.00    +0.000 C 
BRANCH  24  25
ATOM     25  C   UNL     1       1.779   9.813  17.840  0.00  0.00    +0.000 C 
ATOM     26  O   UNL     1       2.365  10.886  17.866  0.00  0.00    +0.000 OA
BRANCH  25  27
ATOM     27  O   UNL     1       2.466   8.648  17.781  0.00  0.00    +0.000 OA
ATOM     28  H   UNL     1       2.853   8.337  18.623  0.00  0.00    +0.000 HD
ENDBRANCH  25  27
ENDBRANCH  24  25
ENDBRANCH  11  24
TORSDOF 4
ENDMDL
