MODEL 1
REMARK VINA RESULT:      -6.2      0.000      0.000
REMARK  Name = 
REMARK  6 active torsions:
REMARK  status: ('A' for Active; 'I' for Inactive)
REMARK    1  A    between atoms: CD_2  and  OE2_3
REMARK    2  A    between atoms: CD_2  and  CG_4
REMARK    3  A    between atoms: CG_4  and  CB_5
REMARK    4  A    between atoms: CB_5  and  CA_6
REMARK    5  A    between atoms: CA_17  and  CB_18
REMARK    6  A    between atoms: CB_18  and  OG_19
REMARK                            x       y       z     vdW  Elec       q    Type
REMARK                         _______ _______ _______ _____ _____    ______ ____
ROOT
ATOM      1  CA  GLU A   1       5.548   4.747  16.789  0.00  0.00    +0.000 C 
ATOM      2  N   GLU A   1       4.508   5.812  16.868  0.00  0.00    +0.000 N 
ATOM      3  C   PRO A   4       4.085   6.355  18.069  0.00  0.00    +0.000 C 
ATOM      4  O   PRO A   4       4.836   6.544  19.023  0.00  0.00    +0.000 OA
ATOM      5  CA  PRO A   4       2.624   6.823  18.119  0.00  0.00    +0.000 C 
ATOM      6  CB  PRO A   4       2.688   8.337  17.807  0.00  0.00    +0.000 C 
ATOM      7  CG  PRO A   4       1.602   8.929  18.683  0.00  0.00    +0.000 C 
ATOM      8  CD  PRO A   4       1.768   8.129  19.956  0.00  0.00    +0.000 C 
ATOM      9  N   PRO A   4       2.037   6.782  19.485  0.00  0.00    +0.000 N 
ATOM     10  C   SER A   3       1.658   5.755  20.327  0.00  0.00    +0.000 C 
ATOM     11  O   SER A   3       1.384   6.032  21.504  0.00  0.00    +0.000 OA
ATOM     12  CA  SER A   3       1.377   4.308  19.849  0.00  0.00    +0.000 C 
ATOM     13  N   SER A   3       2.443   3.700  19.076  0.00  0.00    +0.000 N 
ATOM     14  C   GLY A   2       2.190   2.510  18.395  0.00  0.00    +0.000 C 
ATOM     15  O   GLY A   2       1.061   2.035  18.315  0.00  0.00    +0.000 OA
ATOM     16  CA  GLY A   2       3.430   1.770  17.885  0.00  0.00    +0.000 C 
ATOM     17  N   GLY A   2       4.558   2.678  17.768  0.00  0.00    +0.000 N 
ATOM     18  C   GLU A   1       4.667   3.486  16.659  0.00  0.00    +0.000 C 
ATOM     19  O   GLU A   1       3.918   3.352  15.675  0.00  0.00    +0.000 OA
ATOM     20  H   GLU A   1       3.824   5.744  16.117  0.00  0.00    +0.000 HD
ATOM     21  H   SER A   3       3.367   3.785  19.476  0.00  0.00    +0.000 HD
ATOM     22  H   GLY A   2       5.067   2.892  18.608  0.00  0.00    +0.000 HD
ENDROOT
BRANCH   1  23
ATOM     23  CB  GLU A   1       6.577   4.812  17.929  0.00  0.00    +0.000 C 
BRANCH  23  24
ATOM     24  CG  GLU A   1       7.919   5.475  17.690  0.00  0.00    +0.000 C 
BRANCH  24  26
ATOM     25  OE1 GLU A   1       7.228   7.663  17.053  0.00  0.00    +0.000 OA
ATOM     26  CD  GLU A   1       7.847   6.963  17.831  0.00  0.00    +0.000 C 
BRANCH  26  27
ATOM     27  OE2 GLU A   1       8.486   7.439  18.916  0.00  0.00    +0.000 OA
ATOM     28  HE2 GLU A   1       9.338   7.878  18.731  0.00  0.00    +0.000 HD
ENDBRANCH  26  27
ENDBRANCH  24  26
ENDBRANCH  23  24
ENDBRANCH   1  23
BRANCH  12  29
ATOM     29  CB  SER A   3       1.067   3.446  21.107  0.00  0.00    +0.000 C 
BRANCH  29  30
ATOM     30  OG  SER A   3       2.237   3.310  21.932  0.00  0.00    +0.000 OA
ATOM     31  H   SER A   3       2.607   4.215  21.996  0.00  0.00    +0.000 HD
ENDBRANCH  29  30
ENDBRANCH  12  29
TORSDOF 6
ENDMDL
MODEL 2
REMARK VINA RESULT:      -6.1      9.217     12.661
REMARK  Name = 
REMARK  6 active torsions:
REMARK  status: ('A' for Active; 'I' for Inactive)
REMARK    1  A    between atoms: CD_2  and  OE2_3
REMARK    2  A    between atoms: CD_2  and  CG_4
REMARK    3  A    between atoms: CG_4  and  CB_5
REMARK    4  A    between atoms: CB_5  and  CA_6
REMARK    5  A    between atoms: CA_17  and  CB_18
REMARK    6  A    between atoms: CB_18  and  OG_19
REMARK                            x       y       z     vdW  Elec       q    Type
REMARK                         _______ _______ _______ _____ _____    ______ ____
ROOT
ATOM      1  CA  GLU A   1      -7.093  13.572  19.031  0.00  0.00    +0.000 C 
ATOM      2  N   GLU A   1      -6.510  13.132  20.330  0.00  0.00    +0.000 N 
ATOM      3  C   PRO A   4      -5.315  13.629  20.819  0.00  0.00    +0.000 C 
ATOM      4  O   PRO A   4      -4.960  14.796  20.667  0.00  0.00    +0.000 OA
ATOM      5  CA  PRO A   4      -4.483  12.664  21.675  0.00  0.00    +0.000 C 
ATOM      6  CB  PRO A   4      -4.870  13.004  23.134  0.00  0.00    +0.000 C 
ATOM      7  CG  PRO A   4      -3.574  12.823  23.899  0.00  0.00    +0.000 C 
ATOM      8  CD  PRO A   4      -2.567  13.409  22.934  0.00  0.00    +0.000 C 
ATOM      9  N   PRO A   4      -3.024  12.947  21.635  0.00  0.00    +0.000 N 
ATOM     10  C   SER A   3      -2.054  12.802  20.664  0.00  0.00    +0.000 C 
ATOM     11  O   SER A   3      -0.945  13.321  20.861  0.00  0.00    +0.000 OA
ATOM     12  CA  SER A   3      -2.202  11.879  19.428  0.00  0.00    +0.000 C 
ATOM     13  N   SER A   3      -3.401  12.097  18.641  0.00  0.00    +0.000 N 
ATOM     14  C   GLY A   2      -3.748  11.162  17.667  0.00  0.00    +0.000 C 
ATOM     15  O   GLY A   2      -3.152  10.096  17.547  0.00  0.00    +0.000 OA
ATOM     16  CA  GLY A   2      -4.819  11.620  16.671  0.00  0.00    +0.000 C 
ATOM     17  N   GLY A   2      -5.603  12.709  17.227  0.00  0.00    +0.000 N 
ATOM     18  C   GLU A   1      -6.630  12.430  18.101  0.00  0.00    +0.000 C 
ATOM     19  O   GLU A   1      -7.015  11.267  18.308  0.00  0.00    +0.000 OA
ATOM     20  H   GLU A   1      -6.743  12.167  20.554  0.00  0.00    +0.000 HD
ATOM     21  H   SER A   3      -3.593  13.060  18.408  0.00  0.00    +0.000 HD
ATOM     22  H   GLY A   2      -5.208  13.632  17.181  0.00  0.00    +0.000 HD
ENDROOT
BRANCH   1  23
ATOM     23  CB  GLU A   1      -6.733  15.019  18.658  0.00  0.00    +0.000 C 
BRANCH  23  24
ATOM     24  CG  GLU A   1      -7.719  15.858  17.870  0.00  0.00    +0.000 C 
BRANCH  24  26
ATOM     25  OE1 GLU A   1      -7.114  17.309  16.082  0.00  0.00    +0.000 OA
ATOM     26  CD  GLU A   1      -7.223  16.170  16.494  0.00  0.00    +0.000 C 
BRANCH  26  27
ATOM     27  OE2 GLU A   1      -6.867  15.084  15.784  0.00  0.00    +0.000 OA
ATOM     28  HE2 GLU A   1      -5.907  14.988  15.633  0.00  0.00    +0.000 HD
ENDBRANCH  26  27
ENDBRANCH  24  26
ENDBRANCH  23  24
ENDBRANCH   1  23
BRANCH  12  29
ATOM     29  CB  SER A   3      -0.936  12.067  18.542  0.00  0.00    +0.000 C 
BRANCH  29  30
ATOM     30  OG  SER A   3      -0.954  13.351  17.894  0.00  0.00    +0.000 OA
ATOM     31  H   SER A   3      -0.841  13.153  16.941  0.00  0.00    +0.000 HD
ENDBRANCH  29  30
ENDBRANCH  12  29
TORSDOF 6
ENDMDL
MODEL 3
REMARK VINA RESULT:      -6.0      1.269      1.639
REMARK  Name = 
REMARK  6 active torsions:
REMARK  status: ('A' for Active; 'I' for Inactive)
REMARK    1  A    between atoms: CD_2  and  OE2_3
REMARK    2  A    between atoms: CD_2  and  CG_4
REMARK    3  A    between atoms: CG_4  and  CB_5
REMARK    4  A    between atoms: CB_5  and  CA_6
REMARK    5  A    between atoms: CA_17  and  CB_18
REMARK    6  A    between atoms: CB_18  and  OG_19
REMARK                            x       y       z     vdW  Elec       q    Type
REMARK                         _______ _______ _______ _____ _____    ______ ____
ROOT
ATOM      1  CA  GLU A   1       6.023   5.917  16.076  0.00  0.00    +0.000 C 
ATOM      2  N   GLU A   1       4.797   6.741  16.276  0.00  0.00    +0.000 N 
ATOM      3  C   PRO A   4       4.327   7.088  17.530  0.00  0.00    +0.000 C 
ATOM      4  O   PRO A   4       5.066   7.348  18.477  0.00  0.00    +0.000 OA
ATOM      5  CA  PRO A   4       2.805   7.247  17.659  0.00  0.00    +0.000 C 
ATOM      6  CB  PRO A   4       2.554   8.763  17.480  0.00  0.00    +0.000 C 
ATOM      7  CG  PRO A   4       1.411   9.052  18.432  0.00  0.00    +0.000 C 
ATOM      8  CD  PRO A   4       1.788   8.202  19.625  0.00  0.00    +0.000 C 
ATOM      9  N   PRO A   4       2.298   6.979  19.031  0.00  0.00    +0.000 N 
ATOM     10  C   SER A   3       2.167   5.832  19.789  0.00  0.00    +0.000 C 
ATOM     11  O   SER A   3       1.895   5.953  20.992  0.00  0.00    +0.000 OA
ATOM     12  CA  SER A   3       2.158   4.401  19.193  0.00  0.00    +0.000 C 
ATOM     13  N   SER A   3       3.290   4.085  18.342  0.00  0.00    +0.000 N 
ATOM     14  C   GLY A   2       3.248   2.927  17.567  0.00  0.00    +0.000 C 
ATOM     15  O   GLY A   2       2.234   2.242  17.475  0.00  0.00    +0.000 OA
ATOM     16  CA  GLY A   2       4.588   2.496  16.961  0.00  0.00    +0.000 C 
ATOM     17  N   GLY A   2       5.507   3.619  16.895  0.00  0.00    +0.000 N 
ATOM     18  C   GLU A   1       5.405   4.519  15.859  0.00  0.00    +0.000 C 
ATOM     19  O   GLU A   1       4.656   4.317  14.887  0.00  0.00    +0.000 OA
ATOM     20  H   GLU A   1       4.108   6.597  15.540  0.00  0.00    +0.000 HD
ATOM     21  H   SER A   3       4.194   4.321  18.724  0.00  0.00    +0.000 HD
ATOM     22  H   GLY A   2       5.999   3.862  17.737  0.00  0.00    +0.000 HD
ENDROOT
BRANCH   1  23
ATOM     23  CB  GLU A   1       7.068   6.096  17.190  0.00  0.00    +0.000 C 
BRANCH  23  24
ATOM     24  CG  GLU A   1       7.492   4.901  18.020  0.00  0.00    +0.000 C 
BRANCH  24  26
ATOM     25  OE1 GLU A   1       7.896   5.414  20.309  0.00  0.00    +0.000 OA
ATOM     26  CD  GLU A   1       7.109   5.047  19.458  0.00  0.00    +0.000 C 
BRANCH  26  27
ATOM     27  OE2 GLU A   1       5.813   4.784  19.707  0.00  0.00    +0.000 OA
ATOM     28  HE2 GLU A   1       5.632   4.406  20.588  0.00  0.00    +0.000 HD
ENDBRANCH  26  27
ENDBRANCH  24  26
ENDBRANCH  23  24
ENDBRANCH   1  23
BRANCH  12  29
ATOM     29  CB  SER A   3       2.080   3.396  20.379  0.00  0.00    +0.000 C 
BRANCH  29  30
ATOM     30  OG  SER A   3       0.714   3.181  20.775  0.00  0.00    +0.000 OA
ATOM     31  H   SER A   3       0.570   3.795  21.525  0.00  0.00    +0.000 HD
ENDBRANCH  29  30
ENDBRANCH  12  29
TORSDOF 6
ENDMDL
MODEL 4
REMARK VINA RESULT:      -6.0      7.666     11.567
REMARK  Name = 
REMARK  6 active torsions:
REMARK  status: ('A' for Active; 'I' for Inactive)
REMARK    1  A    between atoms: CD_2  and  OE2_3
REMARK    2  A    between atoms: CD_2  and  CG_4
REMARK    3  A    between atoms: CG_4  and  CB_5
REMARK    4  A    between atoms: CB_5  and  CA_6
REMARK    5  A    between atoms: CA_17  and  CB_18
REMARK    6  A    between atoms: CB_18  and  OG_19
REMARK                            x       y       z     vdW  Elec       q    Type
REMARK                         _______ _______ _______ _____ _____    ______ ____
ROOT
ATOM      1  CA  GLU A   1      -3.356  13.171  23.841  0.00  0.00    +0.000 C 
ATOM      2  N   GLU A   1      -2.605  11.897  23.655  0.00  0.00    +0.000 N 
ATOM      3  C   PRO A   4      -1.379  11.840  23.015  0.00  0.00    +0.000 C 
ATOM      4  O   PRO A   4      -0.530  12.723  23.108  0.00  0.00    +0.000 OA
ATOM      5  CA  PRO A   4      -1.077  10.542  22.253  0.00  0.00    +0.000 C 
ATOM      6  CB  PRO A   4      -0.254   9.688  23.247  0.00  0.00    +0.000 C 
ATOM      7  CG  PRO A   4       0.744   8.970  22.362  0.00  0.00    +0.000 C 
ATOM      8  CD  PRO A   4       1.118  10.060  21.380  0.00  0.00    +0.000 C 
ATOM      9  N   PRO A   4      -0.142  10.730  21.112  0.00  0.00    +0.000 N 
ATOM     10  C   SER A   3      -0.258  11.338  19.879  0.00  0.00    +0.000 C 
ATOM     11  O   SER A   3       0.772  11.516  19.213  0.00  0.00    +0.000 OA
ATOM     12  CA  SER A   3      -1.614  11.648  19.194  0.00  0.00    +0.000 C 
ATOM     13  N   SER A   3      -2.550  12.405  20.004  0.00  0.00    +0.000 N 
ATOM     14  C   GLY A   2      -3.873  12.516  19.580  0.00  0.00    +0.000 C 
ATOM     15  O   GLY A   2      -4.304  11.883  18.620  0.00  0.00    +0.000 OA
ATOM     16  CA  GLY A   2      -4.704  13.585  20.297  0.00  0.00    +0.000 C 
ATOM     17  N   GLY A   2      -4.117  13.912  21.585  0.00  0.00    +0.000 N 
ATOM     18  C   GLU A   1      -4.356  13.095  22.668  0.00  0.00    +0.000 C 
ATOM     19  O   GLU A   1      -5.188  12.173  22.621  0.00  0.00    +0.000 OA
ATOM     20  H   GLU A   1      -3.221  11.092  23.563  0.00  0.00    +0.000 HD
ATOM     21  H   SER A   3      -2.167  13.224  20.453  0.00  0.00    +0.000 HD
ATOM     22  H   GLY A   2      -3.343  14.553  21.590  0.00  0.00    +0.000 HD
ENDROOT
BRANCH   1  23
ATOM     23  CB  GLU A   1      -2.447  14.405  23.958  0.00  0.00    +0.000 C 
BRANCH  23  24
ATOM     24  CG  GLU A   1      -2.521  15.277  25.196  0.00  0.00    +0.000 C 
BRANCH  24  26
ATOM     25  OE1 GLU A   1      -3.011  17.577  24.825  0.00  0.00    +0.000 OA
ATOM     26  CD  GLU A   1      -3.430  16.450  25.007  0.00  0.00    +0.000 C 
BRANCH  26  27
ATOM     27  OE2 GLU A   1      -4.737  16.133  25.010  0.00  0.00    +0.000 OA
ATOM     28  HE2 GLU A   1      -4.931  15.190  25.171  0.00  0.00    +0.000 HD
ENDBRANCH  26  27
ENDBRANCH  24  26
ENDBRANCH  23  24
ENDBRANCH   1  23
BRANCH  12  29
ATOM     29  CB  SER A   3      -1.312  12.409  17.870  0.00  0.00    +0.000 C 
BRANCH  29  30
ATOM     30  OG  SER A   3      -1.934  11.751  16.752  0.00  0.00    +0.000 OA
ATOM     31  H   SER A   3      -2.509  12.434  16.346  0.00  0.00    +0.000 HD
ENDBRANCH  29  30
ENDBRANCH  12  29
TORSDOF 6
ENDMDL
MODEL 5
REMARK VINA RESULT:      -5.9      7.141     11.025
REMARK  Name = 
REMARK  6 active torsions:
REMARK  status: ('A' for Active; 'I' for Inactive)
REMARK    1  A    between atoms: CD_2  and  OE2_3
REMARK    2  A    between atoms: CD_2  and  CG_4
REMARK    3  A    between atoms: CG_4  and  CB_5
REMARK    4  A    between atoms: CB_5  and  CA_6
REMARK    5  A    between atoms: CA_17  and  CB_18
REMARK    6  A    between atoms: CB_18  and  OG_19
REMARK                            x       y       z     vdW  Elec       q    Type
REMARK                         _______ _______ _______ _____ _____    ______ ____
ROOT
ATOM      1  CA  GLU A   1      -2.402  13.160  23.582  0.00  0.00    +0.000 C 
ATOM      2  N   GLU A   1      -1.850  11.794  23.354  0.00  0.00    +0.000 N 
ATOM      3  C   PRO A   4      -0.821  11.544  22.463  0.00  0.00    +0.000 C 
ATOM      4  O   PRO A   4       0.113  12.321  22.279  0.00  0.00    +0.000 OA
ATOM      5  CA  PRO A   4      -0.841  10.169  21.781  0.00  0.00    +0.000 C 
ATOM      6  CB  PRO A   4       0.099   9.292  22.642  0.00  0.00    +0.000 C 
ATOM      7  CG  PRO A   4       0.783   8.398  21.627  0.00  0.00    +0.000 C 
ATOM      8  CD  PRO A   4       1.027   9.363  20.488  0.00  0.00    +0.000 C 
ATOM      9  N   PRO A   4      -0.185  10.163  20.446  0.00  0.00    +0.000 N 
ATOM     10  C   SER A   3      -0.523  10.694  19.218  0.00  0.00    +0.000 C 
ATOM     11  O   SER A   3       0.336  10.697  18.324  0.00  0.00    +0.000 OA
ATOM     12  CA  SER A   3      -1.962  11.119  18.829  0.00  0.00    +0.000 C 
ATOM     13  N   SER A   3      -2.599  12.038  19.753  0.00  0.00    +0.000 N 
ATOM     14  C   GLY A   2      -3.967  12.280  19.628  0.00  0.00    +0.000 C 
ATOM     15  O   GLY A   2      -4.672  11.640  18.854  0.00  0.00    +0.000 OA
ATOM     16  CA  GLY A   2      -4.492  13.490  20.408  0.00  0.00    +0.000 C 
ATOM     17  N   GLY A   2      -3.590  13.831  21.494  0.00  0.00    +0.000 N 
ATOM     18  C   GLU A   1      -3.651  13.126  22.675  0.00  0.00    +0.000 C 
ATOM     19  O   GLU A   1      -4.562  12.312  22.905  0.00  0.00    +0.000 OA
ATOM     20  H   GLU A   1      -2.550  11.066  23.480  0.00  0.00    +0.000 HD
ATOM     21  H   SER A   3      -2.039  12.833  20.024  0.00  0.00    +0.000 HD
ATOM     22  H   GLY A   2      -2.774  14.372  21.264  0.00  0.00    +0.000 HD
ENDROOT
BRANCH   1  23
ATOM     23  CB  GLU A   1      -1.369  14.280  23.373  0.00  0.00    +0.000 C 
BRANCH  23  24
ATOM     24  CG  GLU A   1      -1.653  15.670  23.904  0.00  0.00    +0.000 C 
BRANCH  24  26
ATOM     25  OE1 GLU A   1      -3.608  15.854  25.251  0.00  0.00    +0.000 OA
ATOM     26  CD  GLU A   1      -2.413  15.639  25.193  0.00  0.00    +0.000 C 
BRANCH  26  27
ATOM     27  OE2 GLU A   1      -1.663  15.305  26.259  0.00  0.00    +0.000 OA
ATOM     28  HE2 GLU A   1      -1.124  14.499  26.146  0.00  0.00    +0.000 HD
ENDBRANCH  26  27
ENDBRANCH  24  26
ENDBRANCH  23  24
ENDBRANCH   1  23
BRANCH  12  29
ATOM     29  CB  SER A   3      -1.902  11.743  17.404  0.00  0.00    +0.000 C 
BRANCH  29  30
ATOM     30  OG  SER A   3      -1.061  12.910  17.395  0.00  0.00    +0.000 OA
ATOM     31  H   SER A   3      -1.677  13.665  17.506  0.00  0.00    +0.000 HD
ENDBRANCH  29  30
ENDBRANCH  12  29
TORSDOF 6
ENDMDL
MODEL 6
REMARK VINA RESULT:      -5.8      7.857     10.022
REMARK  Name = 
REMARK  6 active torsions:
REMARK  status: ('A' for Active; 'I' for Inactive)
REMARK    1  A    between atoms: CD_2  and  OE2_3
REMARK    2  A    between atoms: CD_2  and  CG_4
REMARK    3  A    between atoms: CG_4  and  CB_5
REMARK    4  A    between atoms: CB_5  and  CA_6
REMARK    5  A    between atoms: CA_17  and  CB_18
REMARK    6  A    between atoms: CB_18  and  OG_19
REMARK                            x       y       z     vdW  Elec       q    Type
REMARK                         _______ _______ _______ _____ _____    ______ ____
ROOT
ATOM      1  CA  GLU A   1       0.564  12.691  20.540  0.00  0.00    +0.000 C 
ATOM      2  N   GLU A   1      -0.093  11.620  19.738  0.00  0.00    +0.000 N 
ATOM      3  C   PRO A   4      -1.025  11.891  18.751  0.00  0.00    +0.000 C 
ATOM      4  O   PRO A   4      -0.958  12.873  18.015  0.00  0.00    +0.000 OA
ATOM      5  CA  PRO A   4      -2.111  10.827  18.540  0.00  0.00    +0.000 C 
ATOM      6  CB  PRO A   4      -1.583   9.955  17.375  0.00  0.00    +0.000 C 
ATOM      7  CG  PRO A   4      -2.835   9.594  16.602  0.00  0.00    +0.000 C 
ATOM      8  CD  PRO A   4      -3.608  10.894  16.652  0.00  0.00    +0.000 C 
ATOM      9  N   PRO A   4      -3.383  11.379  18.002  0.00  0.00    +0.000 N 
ATOM     10  C   SER A   3      -4.374  12.177  18.537  0.00  0.00    +0.000 C 
ATOM     11  O   SER A   3      -5.227  12.647  17.769  0.00  0.00    +0.000 OA
ATOM     12  CA  SER A   3      -4.595  12.374  20.058  0.00  0.00    +0.000 C 
ATOM     13  N   SER A   3      -3.421  12.797  20.798  0.00  0.00    +0.000 N 
ATOM     14  C   GLY A   2      -3.452  12.759  22.191  0.00  0.00    +0.000 C 
ATOM     15  O   GLY A   2      -4.384  12.252  22.808  0.00  0.00    +0.000 OA
ATOM     16  CA  GLY A   2      -2.322  13.520  22.893  0.00  0.00    +0.000 C 
ATOM     17  N   GLY A   2      -1.191  13.697  21.999  0.00  0.00    +0.000 N 
ATOM     18  C   GLU A   1      -0.296  12.666  21.821  0.00  0.00    +0.000 C 
ATOM     19  O   GLU A   1      -0.332  11.641  22.524  0.00  0.00    +0.000 OA
ATOM     20  H   GLU A   1      -0.201  10.753  20.261  0.00  0.00    +0.000 HD
ATOM     21  H   SER A   3      -2.915  13.572  20.395  0.00  0.00    +0.000 HD
ATOM     22  H   GLY A   2      -1.243  14.448  21.332  0.00  0.00    +0.000 HD
ENDROOT
BRANCH   1  23
ATOM     23  CB  GLU A   1       0.716  14.018  19.780  0.00  0.00    +0.000 C 
BRANCH  23  24
ATOM     24  CG  GLU A   1       2.099  14.522  19.419  0.00  0.00    +0.000 C 
BRANCH  24  26
ATOM     25  OE1 GLU A   1       2.471  12.658  17.985  0.00  0.00    +0.000 OA
ATOM     26  CD  GLU A   1       2.650  13.840  18.207  0.00  0.00    +0.000 C 
BRANCH  26  27
ATOM     27  OE2 GLU A   1       3.311  14.662  17.372  0.00  0.00    +0.000 OA
ATOM     28  HE2 GLU A   1       4.260  14.460  17.263  0.00  0.00    +0.000 HD
ENDBRANCH  26  27
ENDBRANCH  24  26
ENDBRANCH  23  24
ENDBRANCH   1  23
BRANCH  12  29
ATOM     29  CB  SER A   3      -5.746  13.407  20.239  0.00  0.00    +0.000 C 
BRANCH  29  30
ATOM     30  OG  SER A   3      -5.352  14.700  19.749  0.00  0.00    +0.000 OA
ATOM     31  H   SER A   3      -5.526  14.668  18.785  0.00  0.00    +0.000 HD
ENDBRANCH  29  30
ENDBRANCH  12  29
TORSDOF 6
ENDMDL
MODEL 7
REMARK VINA RESULT:      -5.8      7.303     10.081
REMARK  Name = 
REMARK  6 active torsions:
REMARK  status: ('A' for Active; 'I' for Inactive)
REMARK    1  A    between atoms: CD_2  and  OE2_3
REMARK    2  A    between atoms: CD_2  and  CG_4
REMARK    3  A    between atoms: CG_4  and  CB_5
REMARK    4  A    between atoms: CB_5  and  CA_6
REMARK    5  A    between atoms: CA_17  and  CB_18
REMARK    6  A    between atoms: CB_18  and  OG_19
REMARK                            x       y       z     vdW  Elec       q    Type
REMARK                         _______ _______ _______ _____ _____    ______ ____
ROOT
ATOM      1  CA  GLU A   1      -0.700  11.265  19.463  0.00  0.00    +0.000 C 
ATOM      2  N   GLU A   1      -1.187  12.502  20.137  0.00  0.00    +0.000 N 
ATOM      3  C   PRO A   4      -2.130  12.479  21.150  0.00  0.00    +0.000 C 
ATOM      4  O   PRO A   4      -2.187  11.588  21.995  0.00  0.00    +0.000 OA
ATOM      5  CA  PRO A   4      -3.054  13.701  21.238  0.00  0.00    +0.000 C 
ATOM      6  CB  PRO A   4      -2.389  14.618  22.293  0.00  0.00    +0.000 C 
ATOM      7  CG  PRO A   4      -3.565  15.237  23.020  0.00  0.00    +0.000 C 
ATOM      8  CD  PRO A   4      -4.512  14.061  23.124  0.00  0.00    +0.000 C 
ATOM      9  N   PRO A   4      -4.380  13.397  21.839  0.00  0.00    +0.000 N 
ATOM     10  C   SER A   3      -5.481  12.690  21.402  0.00  0.00    +0.000 C 
ATOM     11  O   SER A   3      -6.377  12.435  22.220  0.00  0.00    +0.000 OA
ATOM     12  CA  SER A   3      -5.755  12.353  19.914  0.00  0.00    +0.000 C 
ATOM     13  N   SER A   3      -4.665  11.687  19.227  0.00  0.00    +0.000 N 
ATOM     14  C   GLY A   2      -4.715  11.569  17.838  0.00  0.00    +0.000 C 
ATOM     15  O   GLY A   2      -5.578  12.128  17.169  0.00  0.00    +0.000 OA
ATOM     16  CA  GLY A   2      -3.714  10.583  17.228  0.00  0.00    +0.000 C 
ATOM     17  N   GLY A   2      -2.603  10.353  18.135  0.00  0.00    +0.000 N 
ATOM     18  C   GLU A   1      -1.571  11.263  18.189  0.00  0.00    +0.000 C 
ATOM     19  O   GLU A   1      -1.477  12.195  17.372  0.00  0.00    +0.000 OA
ATOM     20  H   GLU A   1      -1.183  13.309  19.517  0.00  0.00    +0.000 HD
ATOM     21  H   SER A   3      -4.264  10.901  19.716  0.00  0.00    +0.000 HD
ATOM     22  H   GLY A   2      -2.746   9.698  18.884  0.00  0.00    +0.000 HD
ENDROOT
BRANCH   1  23
ATOM     23  CB  GLU A   1      -0.720  10.025  20.373  0.00  0.00    +0.000 C 
BRANCH  23  24
ATOM     24  CG  GLU A   1       0.558   9.573  21.052  0.00  0.00    +0.000 C 
BRANCH  24  26
ATOM     25  OE1 GLU A   1       1.289   9.625  23.317  0.00  0.00    +0.000 OA
ATOM     26  CD  GLU A   1       0.386   9.416  22.530  0.00  0.00    +0.000 C 
BRANCH  26  27
ATOM     27  OE2 GLU A   1      -0.862   9.075  22.901  0.00  0.00    +0.000 OA
ATOM     28  HE2 GLU A   1      -1.573   9.562  22.444  0.00  0.00    +0.000 HD
ENDBRANCH  26  27
ENDBRANCH  24  26
ENDBRANCH  23  24
ENDBRANCH   1  23
BRANCH  12  29
ATOM     29  CB  SER A   3      -7.041  11.477  19.857  0.00  0.00    +0.000 C 
BRANCH  29  30
ATOM     30  OG  SER A   3      -6.852  10.246  20.575  0.00  0.00    +0.000 OA
ATOM     31  H   SER A   3      -7.348   9.575  20.060  0.00  0.00    +0.000 HD
ENDBRANCH  29  30
ENDBRANCH  12  29
TORSDOF 6
ENDMDL
MODEL 8
REMARK VINA RESULT:      -5.8      6.893      9.909
REMARK  Name = 
REMARK  6 active torsions:
REMARK  status: ('A' for Active; 'I' for Inactive)
REMARK    1  A    between atoms: CD_2  and  OE2_3
REMARK    2  A    between atoms: CD_2  and  CG_4
REMARK    3  A    between atoms: CG_4  and  CB_5
REMARK    4  A    between atoms: CB_5  and  CA_6
REMARK    5  A    between atoms: CA_17  and  CB_18
REMARK    6  A    between atoms: CB_18  and  OG_19
REMARK                            x       y       z     vdW  Elec       q    Type
REMARK                         _______ _______ _______ _____ _____    ______ ____
ROOT
ATOM      1  CA  GLU A   1      -0.303  11.625  21.829  0.00  0.00    +0.000 C 
ATOM      2  N   GLU A   1      -1.169  12.839  21.835  0.00  0.00    +0.000 N 
ATOM      3  C   PRO A   4      -2.543  12.776  21.987  0.00  0.00    +0.000 C 
ATOM      4  O   PRO A   4      -3.102  11.958  22.714  0.00  0.00    +0.000 OA
ATOM      5  CA  PRO A   4      -3.350  13.870  21.275  0.00  0.00    +0.000 C 
ATOM      6  CB  PRO A   4      -3.586  14.949  22.358  0.00  0.00    +0.000 C 
ATOM      7  CG  PRO A   4      -4.977  15.466  22.051  0.00  0.00    +0.000 C 
ATOM      8  CD  PRO A   4      -5.704  14.189  21.690  0.00  0.00    +0.000 C 
ATOM      9  N   PRO A   4      -4.729  13.445  20.912  0.00  0.00    +0.000 N 
ATOM     10  C   SER A   3      -5.237  12.566  19.977  0.00  0.00    +0.000 C 
ATOM     11  O   SER A   3      -6.438  12.264  20.048  0.00  0.00    +0.000 OA
ATOM     12  CA  SER A   3      -4.449  12.075  18.737  0.00  0.00    +0.000 C 
ATOM     13  N   SER A   3      -3.147  11.504  19.025  0.00  0.00    +0.000 N 
ATOM     14  C   GLY A   2      -2.265  11.266  17.972  0.00  0.00    +0.000 C 
ATOM     15  O   GLY A   2      -2.499  11.650  16.830  0.00  0.00    +0.000 OA
ATOM     16  CA  GLY A   2      -1.067  10.373  18.308  0.00  0.00    +0.000 C 
ATOM     17  N   GLY A   2      -0.818  10.366  19.739  0.00  0.00    +0.000 N 
ATOM     18  C   GLU A   1      -0.120  11.404  20.313  0.00  0.00    +0.000 C 
ATOM     19  O   GLU A   1       0.447  12.271  19.624  0.00  0.00    +0.000 OA
ATOM     20  H   GLU A   1      -0.795  13.586  21.254  0.00  0.00    +0.000 HD
ATOM     21  H   SER A   3      -3.132  10.819  19.768  0.00  0.00    +0.000 HD
ATOM     22  H   GLY A   2      -1.390   9.761  20.304  0.00  0.00    +0.000 HD
ENDROOT
BRANCH   1  23
ATOM     23  CB  GLU A   1      -0.861  10.473  22.680  0.00  0.00    +0.000 C 
BRANCH  23  24
ATOM     24  CG  GLU A   1       0.094   9.538  23.395  0.00  0.00    +0.000 C 
BRANCH  24  26
ATOM     25  OE1 GLU A   1       0.910   8.364  21.492  0.00  0.00    +0.000 OA
ATOM     26  CD  GLU A   1       1.161   9.017  22.486  0.00  0.00    +0.000 C 
BRANCH  26  27
ATOM     27  OE2 GLU A   1       2.407   9.378  22.845  0.00  0.00    +0.000 OA
ATOM     28  HE2 GLU A   1       3.015   8.635  23.020  0.00  0.00    +0.000 HD
ENDBRANCH  26  27
ENDBRANCH  24  26
ENDBRANCH  23  24
ENDBRANCH   1  23
BRANCH  12  29
ATOM     29  CB  SER A   3      -5.338  11.036  17.992  0.00  0.00    +0.000 C 
BRANCH  29  30
ATOM     30  OG  SER A   3      -5.490  11.395  16.608  0.00  0.00    +0.000 OA
ATOM     31  H   SER A   3      -4.714  10.999  16.158  0.00  0.00    +0.000 HD
ENDBRANCH  29  30
ENDBRANCH  12  29
TORSDOF 6
ENDMDL
MODEL 9
REMARK VINA RESULT:      -5.8      8.038     10.251
REMARK  Name = 
REMARK  6 active torsions:
REMARK  status: ('A' for Active; 'I' for Inactive)
REMARK    1  A    between atoms: CD_2  and  OE2_3
REMARK    2  A    between atoms: CD_2  and  CG_4
REMARK    3  A    between atoms: CG_4  and  CB_5
REMARK    4  A    between atoms: CB_5  and  CA_6
REMARK    5  A    between atoms: CA_17  and  CB_18
REMARK    6  A    between atoms: CB_18  and  OG_19
REMARK                            x       y       z     vdW  Elec       q    Type
REMARK                         _______ _______ _______ _____ _____    ______ ____
ROOT
ATOM      1  CA  GLU A   1      -0.140  12.595  20.540  0.00  0.00    +0.000 C 
ATOM      2  N   GLU A   1      -0.667  11.518  19.654  0.00  0.00    +0.000 N 
ATOM      3  C   PRO A   4      -1.438  11.781  18.535  0.00  0.00    +0.000 C 
ATOM      4  O   PRO A   4      -1.259  12.758  17.810  0.00  0.00    +0.000 OA
ATOM      5  CA  PRO A   4      -2.479  10.716  18.168  0.00  0.00    +0.000 C 
ATOM      6  CB  PRO A   4      -1.780   9.836  17.104  0.00  0.00    +0.000 C 
ATOM      7  CG  PRO A   4      -2.900   9.469  16.152  0.00  0.00    +0.000 C 
ATOM      8  CD  PRO A   4      -3.671  10.768  16.073  0.00  0.00    +0.000 C 
ATOM      9  N   PRO A   4      -3.654  11.263  17.438  0.00  0.00    +0.000 N 
ATOM     10  C   SER A   3      -4.714  12.064  17.810  0.00  0.00    +0.000 C 
ATOM     11  O   SER A   3      -5.440  12.528  16.918  0.00  0.00    +0.000 OA
ATOM     12  CA  SER A   3      -5.165  12.272  19.278  0.00  0.00    +0.000 C 
ATOM     13  N   SER A   3      -4.118  12.701  20.185  0.00  0.00    +0.000 N 
ATOM     14  C   GLY A   2      -4.361  12.673  21.558  0.00  0.00    +0.000 C 
ATOM     15  O   GLY A   2      -5.376  12.170  22.029  0.00  0.00    +0.000 OA
ATOM     16  CA  GLY A   2      -3.350  13.439  22.418  0.00  0.00    +0.000 C 
ATOM     17  N   GLY A   2      -2.096  13.611  21.706  0.00  0.00    +0.000 N 
ATOM     18  C   GLU A   1      -1.186  12.579  21.675  0.00  0.00    +0.000 C 
ATOM     19  O   GLU A   1      -1.329  11.559  22.371  0.00  0.00    +0.000 OA
ATOM     20  H   GLU A   1      -0.854  10.655  20.161  0.00  0.00    +0.000 HD
ATOM     21  H   SER A   3      -3.555  13.474  19.859  0.00  0.00    +0.000 HD
ATOM     22  H   GLY A   2      -2.045  14.357  21.034  0.00  0.00    +0.000 HD
ENDROOT
BRANCH   1  23
ATOM     23  CB  GLU A   1       0.127  13.917  19.802  0.00  0.00    +0.000 C 
BRANCH  23  24
ATOM     24  CG  GLU A   1       1.539  14.464  19.729  0.00  0.00    +0.000 C 
BRANCH  24  26
ATOM     25  OE1 GLU A   1       3.541  13.973  18.539  0.00  0.00    +0.000 OA
ATOM     26  CD  GLU A   1       2.341  13.814  18.646  0.00  0.00    +0.000 C 
BRANCH  26  27
ATOM     27  OE2 GLU A   1       1.621  13.009  17.843  0.00  0.00    +0.000 OA
ATOM     28  HE2 GLU A   1       2.127  12.286  17.427  0.00  0.00    +0.000 HD
ENDBRANCH  26  27
ENDBRANCH  24  26
ENDBRANCH  23  24
ENDBRANCH   1  23
BRANCH  12  29
ATOM     29  CB  SER A   3      -6.330  13.305  19.274  0.00  0.00    +0.000 C 
BRANCH  29  30
ATOM     30  OG  SER A   3      -7.581  12.661  18.979  0.00  0.00    +0.000 OA
ATOM     31  H   SER A   3      -7.664  11.952  19.650  0.00  0.00    +0.000 HD
ENDBRANCH  29  30
ENDBRANCH  12  29
TORSDOF 6
ENDMDL
