MODEL 1
REMARK VINA RESULT:      -7.2      0.000      0.000
REMARK  Name = 
REMARK  6 active torsions:
REMARK  status: ('A' for Active; 'I' for Inactive)
REMARK    1  A    between atoms: C_1  and  C_2
REMARK    2  A    between atoms: C_6  and  C_7
REMARK    3  A    between atoms: N_10  and  C_11
REMARK    4  A    between atoms: C_11  and  C_12
REMARK    5  A    between atoms: C_12  and  C_13
REMARK    6  A    between atoms: C_13  and  O_15
REMARK                            x       y       z     vdW  Elec       q    Type
REMARK                         _______ _______ _______ _____ _____    ______ ____
ROOT
ATOM      1  C   UNL     1       6.742   4.511  16.116  0.00  0.00    +0.000 A 
ATOM      2  N   UNL     1       7.831   4.474  16.957  0.00  0.00    +0.000 NA
ATOM      3  N   UNL     1       7.361   4.515  18.199  0.00  0.00    +0.000 NA
ATOM      4  N   UNL     1       6.031   4.574  18.054  0.00  0.00    +0.000 N 
ATOM      5  N   UNL     1       5.582   4.582  16.789  0.00  0.00    +0.000 NA
ENDROOT
BRANCH   1  11
ATOM      6  C   UNL     1       5.285   2.606  11.732  0.00  0.00    +0.000 C 
ATOM      7  C   UNL     1       6.140   3.560  12.514  0.00  0.00    +0.000 A 
ATOM      8  C   UNL     1       7.065   4.388  11.868  0.00  0.00    +0.000 A 
ATOM      9  C   UNL     1       7.862   5.263  12.603  0.00  0.00    +0.000 A 
ATOM     10  C   UNL     1       7.745   5.309  13.994  0.00  0.00    +0.000 A 
ATOM     11  C   UNL     1       6.831   4.480  14.664  0.00  0.00    +0.000 A 
ATOM     12  C   UNL     1       6.024   3.617  13.911  0.00  0.00    +0.000 A 
ENDBRANCH   1  11
BRANCH   4  13
ATOM     13  C   UNL     1       5.121   4.564  19.180  0.00  0.00    +0.000 C 
BRANCH  13  14
ATOM     14  C   UNL     1       3.989   3.565  18.969  0.00  0.00    +0.000 C 
BRANCH  14  15
ATOM     15  C   UNL     1       4.381   2.194  19.422  0.00  0.00    +0.000 C 
ATOM     16  O   UNL     1       4.956   1.943  20.470  0.00  0.00    +0.000 OA
BRANCH  15  17
ATOM     17  O   UNL     1       4.023   1.237  18.536  0.00  0.00    +0.000 OA
ATOM     18  H   UNL     1       3.612   1.578  17.717  0.00  0.00    +0.000 HD
ENDBRANCH  15  17
ENDBRANCH  14  15
ENDBRANCH  13  14
ENDBRANCH   4  13
TORSDOF 5
ENDMDL
MODEL 2
REMARK VINA RESULT:      -6.9      3.277      6.486
REMARK  Name = 
REMARK  6 active torsions:
REMARK  status: ('A' for Active; 'I' for Inactive)
REMARK    1  A    between atoms: C_1  and  C_2
REMARK    2  A    between atoms: C_6  and  C_7
REMARK    3  A    between atoms: N_10  and  C_11
REMARK    4  A    between atoms: C_11  and  C_12
REMARK    5  A    between atoms: C_12  and  C_13
REMARK    6  A    between atoms: C_13  and  O_15
REMARK                            x       y       z     vdW  Elec       q    Type
REMARK                         _______ _______ _______ _____ _____    ______ ____
ROOT
ATOM      1  C   UNL     1       4.257   5.492  17.114  0.00  0.00    +0.000 A 
ATOM      2  N   UNL     1       4.607   6.790  16.813  0.00  0.00    +0.000 NA
ATOM      3  N   UNL     1       5.506   6.731  15.838  0.00  0.00    +0.000 NA
ATOM      4  N   UNL     1       5.658   5.422  15.598  0.00  0.00    +0.000 N 
ATOM      5  N   UNL     1       4.918   4.600  16.359  0.00  0.00    +0.000 NA
ENDROOT
BRANCH   1  11
ATOM      6  C   UNL     1       0.702   2.407  18.789  0.00  0.00    +0.000 C 
ATOM      7  C   UNL     1       1.545   3.636  18.968  0.00  0.00    +0.000 A 
ATOM      8  C   UNL     1       1.376   4.466  20.081  0.00  0.00    +0.000 A 
ATOM      9  C   UNL     1       2.156   5.610  20.233  0.00  0.00    +0.000 A 
ATOM     10  C   UNL     1       3.107   5.937  19.265  0.00  0.00    +0.000 A 
ATOM     11  C   UNL     1       3.288   5.125  18.134  0.00  0.00    +0.000 A 
ATOM     12  C   UNL     1       2.508   3.968  18.002  0.00  0.00    +0.000 A 
ENDBRANCH   1  11
BRANCH   4  13
ATOM     13  C   UNL     1       6.510   4.915  14.544  0.00  0.00    +0.000 C 
BRANCH  13  14
ATOM     14  C   UNL     1       5.856   3.746  13.814  0.00  0.00    +0.000 C 
BRANCH  14  15
ATOM     15  C   UNL     1       6.472   3.532  12.467  0.00  0.00    +0.000 C 
ATOM     16  O   UNL     1       7.233   4.311  11.916  0.00  0.00    +0.000 OA
BRANCH  15  17
ATOM     17  O   UNL     1       6.093   2.360  11.909  0.00  0.00    +0.000 OA
ATOM     18  H   UNL     1       6.805   1.891  11.432  0.00  0.00    +0.000 HD
ENDBRANCH  15  17
ENDBRANCH  14  15
ENDBRANCH  13  14
ENDBRANCH   4  13
TORSDOF 5
ENDMDL
MODEL 3
REMARK VINA RESULT:      -6.9      2.721      3.847
REMARK  Name = 
REMARK  6 active torsions:
REMARK  status: ('A' for Active; 'I' for Inactive)
REMARK    1  A    between atoms: C_1  and  C_2
REMARK    2  A    between atoms: C_6  and  C_7
REMARK    3  A    between atoms: N_10  and  C_11
REMARK    4  A    between atoms: C_11  and  C_12
REMARK    5  A    between atoms: C_12  and  C_13
REMARK    6  A    between atoms: C_13  and  O_15
REMARK                            x       y       z     vdW  Elec       q    Type
REMARK                         _______ _______ _______ _____ _____    ______ ____
ROOT
ATOM      1  C   UNL     1       3.443   4.022  17.494  0.00  0.00    +0.000 A 
ATOM      2  N   UNL     1       2.367   3.434  16.867  0.00  0.00    +0.000 NA
ATOM      3  N   UNL     1       1.366   3.432  17.740  0.00  0.00    +0.000 NA
ATOM      4  N   UNL     1       1.874   4.008  18.837  0.00  0.00    +0.000 N 
ATOM      5  N   UNL     1       3.158   4.390  18.753  0.00  0.00    +0.000 NA
ENDROOT
BRANCH   1  11
ATOM      6  C   UNL     1       6.340   3.959  13.424  0.00  0.00    +0.000 C 
ATOM      7  C   UNL     1       6.177   4.189  14.898  0.00  0.00    +0.000 A 
ATOM      8  C   UNL     1       7.272   4.541  15.695  0.00  0.00    +0.000 A 
ATOM      9  C   UNL     1       7.111   4.742  17.064  0.00  0.00    +0.000 A 
ATOM     10  C   UNL     1       5.854   4.583  17.648  0.00  0.00    +0.000 A 
ATOM     11  C   UNL     1       4.743   4.220  16.870  0.00  0.00    +0.000 A 
ATOM     12  C   UNL     1       4.914   4.037  15.491  0.00  0.00    +0.000 A 
ENDBRANCH   1  11
BRANCH   4  13
ATOM     13  C   UNL     1       1.082   4.268  20.020  0.00  0.00    +0.000 C 
BRANCH  13  14
ATOM     14  C   UNL     1       1.946   4.274  21.276  0.00  0.00    +0.000 C 
BRANCH  14  15
ATOM     15  C   UNL     1       2.205   2.884  21.765  0.00  0.00    +0.000 C 
ATOM     16  O   UNL     1       1.411   2.208  22.400  0.00  0.00    +0.000 OA
BRANCH  15  17
ATOM     17  O   UNL     1       3.436   2.438  21.422  0.00  0.00    +0.000 OA
ATOM     18  H   UNL     1       4.147   2.703  22.038  0.00  0.00    +0.000 HD
ENDBRANCH  15  17
ENDBRANCH  14  15
ENDBRANCH  13  14
ENDBRANCH   4  13
TORSDOF 5
ENDMDL
MODEL 4
REMARK VINA RESULT:      -6.8      2.899      4.304
REMARK  Name = 
REMARK  6 active torsions:
REMARK  status: ('A' for Active; 'I' for Inactive)
REMARK    1  A    between atoms: C_1  and  C_2
REMARK    2  A    between atoms: C_6  and  C_7
REMARK    3  A    between atoms: N_10  and  C_11
REMARK    4  A    between atoms: C_11  and  C_12
REMARK    5  A    between atoms: C_12  and  C_13
REMARK    6  A    between atoms: C_13  and  O_15
REMARK                            x       y       z     vdW  Elec       q    Type
REMARK                         _______ _______ _______ _____ _____    ______ ____
ROOT
ATOM      1  C   UNL     1       3.466   4.168  17.472  0.00  0.00    +0.000 A 
ATOM      2  N   UNL     1       2.535   3.356  16.863  0.00  0.00    +0.000 NA
ATOM      3  N   UNL     1       1.527   3.217  17.717  0.00  0.00    +0.000 NA
ATOM      4  N   UNL     1       1.888   3.940  18.785  0.00  0.00    +0.000 N 
ATOM      5  N   UNL     1       3.082   4.549  18.701  0.00  0.00    +0.000 NA
ENDROOT
BRANCH   1  11
ATOM      6  C   UNL     1       7.491   7.127  17.399  0.00  0.00    +0.000 C 
ATOM      7  C   UNL     1       6.693   6.005  16.801  0.00  0.00    +0.000 A 
ATOM      8  C   UNL     1       7.115   5.370  15.629  0.00  0.00    +0.000 A 
ATOM      9  C   UNL     1       6.362   4.336  15.075  0.00  0.00    +0.000 A 
ATOM     10  C   UNL     1       5.173   3.938  15.689  0.00  0.00    +0.000 A 
ATOM     11  C   UNL     1       4.724   4.568  16.860  0.00  0.00    +0.000 A 
ATOM     12  C   UNL     1       5.500   5.594  17.415  0.00  0.00    +0.000 A 
ENDBRANCH   1  11
BRANCH   4  13
ATOM     13  C   UNL     1       1.028   4.115  19.936  0.00  0.00    +0.000 C 
BRANCH  13  14
ATOM     14  C   UNL     1       1.839   4.222  21.223  0.00  0.00    +0.000 C 
BRANCH  14  15
ATOM     15  C   UNL     1       2.249   2.872  21.721  0.00  0.00    +0.000 C 
ATOM     16  O   UNL     1       3.352   2.374  21.561  0.00  0.00    +0.000 OA
BRANCH  15  17
ATOM     17  O   UNL     1       1.252   2.244  22.386  0.00  0.00    +0.000 OA
ATOM     18  H   UNL     1       0.661   2.841  22.886  0.00  0.00    +0.000 HD
ENDBRANCH  15  17
ENDBRANCH  14  15
ENDBRANCH  13  14
ENDBRANCH   4  13
TORSDOF 5
ENDMDL
MODEL 5
REMARK VINA RESULT:      -6.8      3.015      6.321
REMARK  Name = 
REMARK  6 active torsions:
REMARK  status: ('A' for Active; 'I' for Inactive)
REMARK    1  A    between atoms: C_1  and  C_2
REMARK    2  A    between atoms: C_6  and  C_7
REMARK    3  A    between atoms: N_10  and  C_11
REMARK    4  A    between atoms: C_11  and  C_12
REMARK    5  A    between atoms: C_12  and  C_13
REMARK    6  A    between atoms: C_13  and  O_15
REMARK                            x       y       z     vdW  Elec       q    Type
REMARK                         _______ _______ _______ _____ _____    ______ ____
ROOT
ATOM      1  C   UNL     1       5.058   4.407  17.758  0.00  0.00    +0.000 A 
ATOM      2  N   UNL     1       6.339   4.434  18.264  0.00  0.00    +0.000 NA
ATOM      3  N   UNL     1       7.164   4.452  17.224  0.00  0.00    +0.000 NA
ATOM      4  N   UNL     1       6.359   4.435  16.154  0.00  0.00    +0.000 N 
ATOM      5  N   UNL     1       5.042   4.399  16.416  0.00  0.00    +0.000 NA
ENDROOT
BRANCH   1  11
ATOM      6  C   UNL     1       0.609   2.416  18.856  0.00  0.00    +0.000 C 
ATOM      7  C   UNL     1       1.680   3.432  19.128  0.00  0.00    +0.000 A 
ATOM      8  C   UNL     1       1.517   4.396  20.130  0.00  0.00    +0.000 A 
ATOM      9  C   UNL     1       2.513   5.341  20.367  0.00  0.00    +0.000 A 
ATOM     10  C   UNL     1       3.676   5.334  19.596  0.00  0.00    +0.000 A 
ATOM     11  C   UNL     1       3.857   4.384  18.579  0.00  0.00    +0.000 A 
ATOM     12  C   UNL     1       2.855   3.428  18.362  0.00  0.00    +0.000 A 
ENDBRANCH   1  11
BRANCH   4  13
ATOM     13  C   UNL     1       6.859   4.517  14.798  0.00  0.00    +0.000 C 
BRANCH  13  14
ATOM     14  C   UNL     1       5.837   3.989  13.797  0.00  0.00    +0.000 C 
BRANCH  14  15
ATOM     15  C   UNL     1       6.492   3.588  12.512  0.00  0.00    +0.000 C 
ATOM     16  O   UNL     1       7.273   4.282  11.881  0.00  0.00    +0.000 OA
BRANCH  15  17
ATOM     17  O   UNL     1       6.124   2.349  12.112  0.00  0.00    +0.000 OA
ATOM     18  H   UNL     1       6.357   1.637  12.739  0.00  0.00    +0.000 HD
ENDBRANCH  15  17
ENDBRANCH  14  15
ENDBRANCH  13  14
ENDBRANCH   4  13
TORSDOF 5
ENDMDL
MODEL 6
REMARK VINA RESULT:      -6.8      4.038      6.607
REMARK  Name = 
REMARK  6 active torsions:
REMARK  status: ('A' for Active; 'I' for Inactive)
REMARK    1  A    between atoms: C_1  and  C_2
REMARK    2  A    between atoms: C_6  and  C_7
REMARK    3  A    between atoms: N_10  and  C_11
REMARK    4  A    between atoms: C_11  and  C_12
REMARK    5  A    between atoms: C_12  and  C_13
REMARK    6  A    between atoms: C_13  and  O_15
REMARK                            x       y       z     vdW  Elec       q    Type
REMARK                         _______ _______ _______ _____ _____    ______ ____
ROOT
ATOM      1  C   UNL     1       4.776   4.450  18.552  0.00  0.00    +0.000 A 
ATOM      2  N   UNL     1       5.891   4.038  19.248  0.00  0.00    +0.000 NA
ATOM      3  N   UNL     1       6.933   4.662  18.710  0.00  0.00    +0.000 NA
ATOM      4  N   UNL     1       6.410   5.408  17.729  0.00  0.00    +0.000 N 
ATOM      5  N   UNL     1       5.080   5.318  17.573  0.00  0.00    +0.000 NA
ENDROOT
BRANCH   1  11
ATOM      6  C   UNL     1       1.409   2.643  21.771  0.00  0.00    +0.000 C 
ATOM      7  C   UNL     1       1.766   3.108  20.389  0.00  0.00    +0.000 A 
ATOM      8  C   UNL     1       0.827   3.061  19.352  0.00  0.00    +0.000 A 
ATOM      9  C   UNL     1       1.171   3.485  18.070  0.00  0.00    +0.000 A 
ATOM     10  C   UNL     1       2.462   3.950  17.814  0.00  0.00    +0.000 A 
ATOM     11  C   UNL     1       3.424   3.996  18.836  0.00  0.00    +0.000 A 
ATOM     12  C   UNL     1       3.059   3.583  20.125  0.00  0.00    +0.000 A 
ENDBRANCH   1  11
BRANCH   4  13
ATOM     13  C   UNL     1       7.207   6.310  16.924  0.00  0.00    +0.000 C 
BRANCH  13  14
ATOM     14  C   UNL     1       6.983   7.762  17.331  0.00  0.00    +0.000 C 
BRANCH  14  15
ATOM     15  C   UNL     1       8.123   8.281  18.150  0.00  0.00    +0.000 C 
ATOM     16  O   UNL     1       8.579   9.410  18.075  0.00  0.00    +0.000 OA
BRANCH  15  17
ATOM     17  O   UNL     1       8.607   7.350  19.005  0.00  0.00    +0.000 OA
ATOM     18  H   UNL     1       8.119   7.285  19.849  0.00  0.00    +0.000 HD
ENDBRANCH  15  17
ENDBRANCH  14  15
ENDBRANCH  13  14
ENDBRANCH   4  13
TORSDOF 5
ENDMDL
MODEL 7
REMARK VINA RESULT:      -6.7      3.354      6.042
REMARK  Name = 
REMARK  6 active torsions:
REMARK  status: ('A' for Active; 'I' for Inactive)
REMARK    1  A    between atoms: C_1  and  C_2
REMARK    2  A    between atoms: C_6  and  C_7
REMARK    3  A    between atoms: N_10  and  C_11
REMARK    4  A    between atoms: C_11  and  C_12
REMARK    5  A    between atoms: C_12  and  C_13
REMARK    6  A    between atoms: C_13  and  O_15
REMARK                            x       y       z     vdW  Elec       q    Type
REMARK                         _______ _______ _______ _____ _____    ______ ____
ROOT
ATOM      1  C   UNL     1       6.151   4.824  15.589  0.00  0.00    +0.000 A 
ATOM      2  N   UNL     1       7.332   5.513  15.422  0.00  0.00    +0.000 NA
ATOM      3  N   UNL     1       7.728   5.301  14.172  0.00  0.00    +0.000 NA
ATOM      4  N   UNL     1       6.785   4.507  13.649  0.00  0.00    +0.000 N 
ATOM      5  N   UNL     1       5.784   4.168  14.477  0.00  0.00    +0.000 NA
ENDROOT
BRANCH   1  11
ATOM      6  C   UNL     1       1.827   4.121  17.991  0.00  0.00    +0.000 C 
ATOM      7  C   UNL     1       3.286   4.472  18.019  0.00  0.00    +0.000 A 
ATOM      8  C   UNL     1       3.914   4.831  19.217  0.00  0.00    +0.000 A 
ATOM      9  C   UNL     1       5.267   5.165  19.231  0.00  0.00    +0.000 A 
ATOM     10  C   UNL     1       5.999   5.150  18.042  0.00  0.00    +0.000 A 
ATOM     11  C   UNL     1       5.388   4.803  16.827  0.00  0.00    +0.000 A 
ATOM     12  C   UNL     1       4.031   4.453  16.830  0.00  0.00    +0.000 A 
ENDBRANCH   1  11
BRANCH   4  13
ATOM     13  C   UNL     1       6.797   4.087  12.264  0.00  0.00    +0.000 C 
BRANCH  13  14
ATOM     14  C   UNL     1       5.895   2.878  12.042  0.00  0.00    +0.000 C 
BRANCH  14  15
ATOM     15  C   UNL     1       6.642   1.753  11.397  0.00  0.00    +0.000 C 
ATOM     16  O   UNL     1       7.751   1.848  10.898  0.00  0.00    +0.000 OA
BRANCH  15  17
ATOM     17  O   UNL     1       5.948   0.592  11.427  0.00  0.00    +0.000 OA
ATOM     18  H   UNL     1       5.035   0.675  11.766  0.00  0.00    +0.000 HD
ENDBRANCH  15  17
ENDBRANCH  14  15
ENDBRANCH  13  14
ENDBRANCH   4  13
TORSDOF 5
ENDMDL
MODEL 8
REMARK VINA RESULT:      -6.7      3.166      6.492
REMARK  Name = 
REMARK  6 active torsions:
REMARK  status: ('A' for Active; 'I' for Inactive)
REMARK    1  A    between atoms: C_1  and  C_2
REMARK    2  A    between atoms: C_6  and  C_7
REMARK    3  A    between atoms: N_10  and  C_11
REMARK    4  A    between atoms: C_11  and  C_12
REMARK    5  A    between atoms: C_12  and  C_13
REMARK    6  A    between atoms: C_13  and  O_15
REMARK                            x       y       z     vdW  Elec       q    Type
REMARK                         _______ _______ _______ _____ _____    ______ ____
ROOT
ATOM      1  C   UNL     1       4.884   4.517  18.453  0.00  0.00    +0.000 A 
ATOM      2  N   UNL     1       6.075   4.403  19.135  0.00  0.00    +0.000 NA
ATOM      3  N   UNL     1       7.047   4.564  18.243  0.00  0.00    +0.000 NA
ATOM      4  N   UNL     1       6.410   4.764  17.082  0.00  0.00    +0.000 N 
ATOM      5  N   UNL     1       5.068   4.740  17.141  0.00  0.00    +0.000 NA
ENDROOT
BRANCH   1  11
ATOM      6  C   UNL     1       0.522   2.131  18.951  0.00  0.00    +0.000 C 
ATOM      7  C   UNL     1       1.435   3.261  19.329  0.00  0.00    +0.000 A 
ATOM      8  C   UNL     1       1.023   4.243  20.237  0.00  0.00    +0.000 A 
ATOM      9  C   UNL     1       1.874   5.293  20.574  0.00  0.00    +0.000 A 
ATOM     10  C   UNL     1       3.143   5.373  19.996  0.00  0.00    +0.000 A 
ATOM     11  C   UNL     1       3.574   4.405  19.075  0.00  0.00    +0.000 A 
ATOM     12  C   UNL     1       2.714   3.345  18.758  0.00  0.00    +0.000 A 
ENDBRANCH   1  11
BRANCH   4  13
ATOM     13  C   UNL     1       7.108   5.054  15.848  0.00  0.00    +0.000 C 
BRANCH  13  14
ATOM     14  C   UNL     1       6.550   4.236  14.689  0.00  0.00    +0.000 C 
BRANCH  14  15
ATOM     15  C   UNL     1       7.196   4.616  13.394  0.00  0.00    +0.000 C 
ATOM     16  O   UNL     1       6.969   4.085  12.318  0.00  0.00    +0.000 OA
BRANCH  15  17
ATOM     17  O   UNL     1       8.076   5.633  13.537  0.00  0.00    +0.000 OA
ATOM     18  H   UNL     1       8.975   5.439  13.207  0.00  0.00    +0.000 HD
ENDBRANCH  15  17
ENDBRANCH  14  15
ENDBRANCH  13  14
ENDBRANCH   4  13
TORSDOF 5
ENDMDL
MODEL 9
REMARK VINA RESULT:      -6.6      3.065      6.613
REMARK  Name = 
REMARK  6 active torsions:
REMARK  status: ('A' for Active; 'I' for Inactive)
REMARK    1  A    between atoms: C_1  and  C_2
REMARK    2  A    between atoms: C_6  and  C_7
REMARK    3  A    between atoms: N_10  and  C_11
REMARK    4  A    between atoms: C_11  and  C_12
REMARK    5  A    between atoms: C_12  and  C_13
REMARK    6  A    between atoms: C_13  and  O_15
REMARK                            x       y       z     vdW  Elec       q    Type
REMARK                         _______ _______ _______ _____ _____    ______ ____
ROOT
ATOM      1  C   UNL     1       4.588   4.113  18.480  0.00  0.00    +0.000 A 
ATOM      2  N   UNL     1       5.711   4.029  19.272  0.00  0.00    +0.000 NA
ATOM      3  N   UNL     1       6.722   4.516  18.561  0.00  0.00    +0.000 NA
ATOM      4  N   UNL     1       6.173   4.865  17.390  0.00  0.00    +0.000 N 
ATOM      5  N   UNL     1       4.856   4.635  17.272  0.00  0.00    +0.000 NA
ENDROOT
BRANCH   1  11
ATOM      6  C   UNL     1       1.480   2.533  22.059  0.00  0.00    +0.000 C 
ATOM      7  C   UNL     1       1.730   2.903  20.626  0.00  0.00    +0.000 A 
ATOM      8  C   UNL     1       0.715   2.789  19.669  0.00  0.00    +0.000 A 
ATOM      9  C   UNL     1       0.960   3.125  18.339  0.00  0.00    +0.000 A 
ATOM     10  C   UNL     1       2.226   3.569  17.955  0.00  0.00    +0.000 A 
ATOM     11  C   UNL     1       3.262   3.682  18.896  0.00  0.00    +0.000 A 
ATOM     12  C   UNL     1       2.998   3.357  20.233  0.00  0.00    +0.000 A 
ENDBRANCH   1  11
BRANCH   4  13
ATOM     13  C   UNL     1       6.926   5.511  16.336  0.00  0.00    +0.000 C 
BRANCH  13  14
ATOM     14  C   UNL     1       6.160   5.498  15.018  0.00  0.00    +0.000 C 
BRANCH  14  15
ATOM     15  C   UNL     1       6.954   4.842  13.933  0.00  0.00    +0.000 C 
ATOM     16  O   UNL     1       6.614   3.836  13.331  0.00  0.00    +0.000 OA
BRANCH  15  17
ATOM     17  O   UNL     1       8.112   5.493  13.677  0.00  0.00    +0.000 OA
ATOM     18  H   UNL     1       8.669   5.650  14.465  0.00  0.00    +0.000 HD
ENDBRANCH  15  17
ENDBRANCH  14  15
ENDBRANCH  13  14
ENDBRANCH   4  13
TORSDOF 5
ENDMDL
