MODEL 1
REMARK VINA RESULT:      -7.2      0.000      0.000
REMARK  Name = 
REMARK  7 active torsions:
REMARK  status: ('A' for Active; 'I' for Inactive)
REMARK    1  A    between atoms: C_1  and  N_2
REMARK    2  A    between atoms: N_2  and  C_3
REMARK    3  A    between atoms: N_2  and  C_6
REMARK    4  A    between atoms: C_3  and  C_4
REMARK    5  A    between atoms: C_4  and  O_5
REMARK    6  A    between atoms: C_6  and  C_7
REMARK    7  A    between atoms: C_7  and  N_8
REMARK                            x       y       z     vdW  Elec       q    Type
REMARK                         _______ _______ _______ _____ _____    ______ ____
ROOT
ATOM      1  N   UNL     1       2.098   5.723  20.648  0.00  0.00    +0.000 N 
ATOM      2  N   UNL     1       1.330   6.649  21.296  0.00  0.00    +0.000 NA
ATOM      3  C   UNL     1       1.382   7.717  20.495  0.00  0.00    +0.000 A 
ATOM      4  C   UNL     1       2.170   7.467  19.376  0.00  0.00    +0.000 A 
ATOM      5  C   UNL     1       2.480   8.306  18.323  0.00  0.00    +0.000 A 
ATOM      6  C   UNL     1       3.304   7.819  17.312  0.00  0.00    +0.000 A 
ATOM      7  C   UNL     1       3.790   6.504  17.391  0.00  0.00    +0.000 A 
ATOM      8  C   UNL     1       3.470   5.650  18.468  0.00  0.00    +0.000 A 
ATOM      9  C   UNL     1       2.638   6.177  19.466  0.00  0.00    +0.000 A 
ATOM     10  C   UNL     1       1.874   9.656  18.412  0.00  0.00    +0.000 C 
ATOM     11  O   UNL     1       2.123  10.431  17.497  0.00  0.00    +0.000 OA
ATOM     12  C   UNL     1       0.997  10.002  19.612  0.00  0.00    +0.000 A 
ATOM     13  C   UNL     1       0.398  11.264  19.752  0.00  0.00    +0.000 A 
ATOM     14 CL   UNL     1       0.569  12.563  18.625  0.00  0.00    +0.000 Cl
ATOM     15  C   UNL     1      -0.405  11.541  20.872  0.00  0.00    +0.000 A 
ATOM     16  C   UNL     1      -0.623  10.579  21.858  0.00  0.00    +0.000 A 
ATOM     17  C   UNL     1      -0.042   9.320  21.742  0.00  0.00    +0.000 A 
ATOM     18  C   UNL     1       0.761   9.026  20.635  0.00  0.00    +0.000 A 
ENDROOT
BRANCH   1  19
ATOM     19  C   UNL     1       2.284   4.406  21.233  0.00  0.00    +0.000 C 
BRANCH  19  20
ATOM     20  C   UNL     1       1.171   3.432  20.827  0.00  0.00    +0.000 C 
BRANCH  20  22
ATOM     21  C   UNL     1       0.873   2.394  18.670  0.00  0.00    +0.000 C 
ATOM     22  N   UNL     1       1.613   2.338  19.935  0.00  0.00    +0.000 NA
BRANCH  22  23
ATOM     23  C   UNL     1       3.065   2.298  19.692  0.00  0.00    +0.000 C 
BRANCH  23  24
ATOM     24  C   UNL     1       3.522   1.870  18.288  0.00  0.00    +0.000 C 
BRANCH  24  25
ATOM     25  O   UNL     1       4.108   0.573  18.321  0.00  0.00    +0.000 OA
ATOM     26  H   UNL     1       4.005   0.176  17.441  0.00  0.00    +0.000 HD
ENDBRANCH  24  25
ENDBRANCH  23  24
ENDBRANCH  22  23
ENDBRANCH  20  22
ENDBRANCH  19  20
ENDBRANCH   1  19
TORSDOF 6
ENDMDL
MODEL 2
REMARK VINA RESULT:      -7.2      2.746      6.842
REMARK  Name = 
REMARK  7 active torsions:
REMARK  status: ('A' for Active; 'I' for Inactive)
REMARK    1  A    between atoms: C_1  and  N_2
REMARK    2  A    between atoms: N_2  and  C_3
REMARK    3  A    between atoms: N_2  and  C_6
REMARK    4  A    between atoms: C_3  and  C_4
REMARK    5  A    between atoms: C_4  and  O_5
REMARK    6  A    between atoms: C_6  and  C_7
REMARK    7  A    between atoms: C_7  and  N_8
REMARK                            x       y       z     vdW  Elec       q    Type
REMARK                         _______ _______ _______ _____ _____    ______ ____
ROOT
ATOM      1  N   UNL     1       1.769   6.511  20.278  0.00  0.00    +0.000 N 
ATOM      2  N   UNL     1       2.545   7.053  19.293  0.00  0.00    +0.000 NA
ATOM      3  C   UNL     1       3.042   5.987  18.660  0.00  0.00    +0.000 A 
ATOM      4  C   UNL     1       2.592   4.805  19.241  0.00  0.00    +0.000 A 
ATOM      5  C   UNL     1       2.878   3.499  18.892  0.00  0.00    +0.000 A 
ATOM      6  C   UNL     1       2.302   2.475  19.640  0.00  0.00    +0.000 A 
ATOM      7  C   UNL     1       1.457   2.797  20.714  0.00  0.00    +0.000 A 
ATOM      8  C   UNL     1       1.168   4.132  21.066  0.00  0.00    +0.000 A 
ATOM      9  C   UNL     1       1.766   5.134  20.290  0.00  0.00    +0.000 A 
ATOM     10  C   UNL     1       3.787   3.356  17.730  0.00  0.00    +0.000 C 
ATOM     11  O   UNL     1       4.064   2.213  17.386  0.00  0.00    +0.000 OA
ATOM     12  C   UNL     1       4.320   4.610  17.041  0.00  0.00    +0.000 A 
ATOM     13  C   UNL     1       5.186   4.538  15.939  0.00  0.00    +0.000 A 
ATOM     14 CL   UNL     1       5.755   3.068  15.231  0.00  0.00    +0.000 Cl
ATOM     15  C   UNL     1       5.652   5.717  15.333  0.00  0.00    +0.000 A 
ATOM     16  C   UNL     1       5.268   6.972  15.807  0.00  0.00    +0.000 A 
ATOM     17  C   UNL     1       4.411   7.070  16.898  0.00  0.00    +0.000 A 
ATOM     18  C   UNL     1       3.937   5.907  17.515  0.00  0.00    +0.000 A 
ENDROOT
BRANCH   1  19
ATOM     19  C   UNL     1       1.055   7.384  21.194  0.00  0.00    +0.000 C 
BRANCH  19  20
ATOM     20  C   UNL     1       1.234   8.865  20.838  0.00  0.00    +0.000 C 
BRANCH  20  22
ATOM     21  C   UNL     1      -0.412  10.548  21.363  0.00  0.00    +0.000 C 
ATOM     22  N   UNL     1      -0.002   9.537  20.383  0.00  0.00    +0.000 NA
BRANCH  22  23
ATOM     23  C   UNL     1       0.081  10.119  19.033  0.00  0.00    +0.000 C 
BRANCH  23  24
ATOM     24  C   UNL     1       1.488  10.436  18.499  0.00  0.00    +0.000 C 
BRANCH  24  25
ATOM     25  O   UNL     1       1.825   9.568  17.423  0.00  0.00    +0.000 OA
ATOM     26  H   UNL     1       1.683   8.654  17.720  0.00  0.00    +0.000 HD
ENDBRANCH  24  25
ENDBRANCH  23  24
ENDBRANCH  22  23
ENDBRANCH  20  22
ENDBRANCH  19  20
ENDBRANCH   1  19
TORSDOF 6
ENDMDL
MODEL 3
REMARK VINA RESULT:      -7.2      3.216      4.894
REMARK  Name = 
REMARK  7 active torsions:
REMARK  status: ('A' for Active; 'I' for Inactive)
REMARK    1  A    between atoms: C_1  and  N_2
REMARK    2  A    between atoms: N_2  and  C_3
REMARK    3  A    between atoms: N_2  and  C_6
REMARK    4  A    between atoms: C_3  and  C_4
REMARK    5  A    between atoms: C_4  and  O_5
REMARK    6  A    between atoms: C_6  and  C_7
REMARK    7  A    between atoms: C_7  and  N_8
REMARK                            x       y       z     vdW  Elec       q    Type
REMARK                         _______ _______ _______ _____ _____    ______ ____
ROOT
ATOM      1  N   UNL     1       4.591   4.893  17.409  0.00  0.00    +0.000 N 
ATOM      2  N   UNL     1       4.197   6.172  17.132  0.00  0.00    +0.000 NA
ATOM      3  C   UNL     1       3.359   6.466  18.130  0.00  0.00    +0.000 A 
ATOM      4  C   UNL     1       3.227   5.394  19.006  0.00  0.00    +0.000 A 
ATOM      5  C   UNL     1       2.457   5.292  20.149  0.00  0.00    +0.000 A 
ATOM      6  C   UNL     1       2.491   4.097  20.863  0.00  0.00    +0.000 A 
ATOM      7  C   UNL     1       3.298   3.043  20.406  0.00  0.00    +0.000 A 
ATOM      8  C   UNL     1       4.083   3.151  19.239  0.00  0.00    +0.000 A 
ATOM      9  C   UNL     1       4.022   4.370  18.548  0.00  0.00    +0.000 A 
ATOM     10  C   UNL     1       1.674   6.508  20.475  0.00  0.00    +0.000 C 
ATOM     11  O   UNL     1       0.978   6.460  21.482  0.00  0.00    +0.000 OA
ATOM     12  C   UNL     1       1.769   7.724  19.558  0.00  0.00    +0.000 A 
ATOM     13  C   UNL     1       1.049   8.902  19.813  0.00  0.00    +0.000 A 
ATOM     14 CL   UNL     1      -0.016   9.131  21.154  0.00  0.00    +0.000 Cl
ATOM     15  C   UNL     1       1.167  10.000  18.944  0.00  0.00    +0.000 A 
ATOM     16  C   UNL     1       1.993   9.946  17.821  0.00  0.00    +0.000 A 
ATOM     17  C   UNL     1       2.718   8.790  17.547  0.00  0.00    +0.000 A 
ATOM     18  C   UNL     1       2.613   7.686  18.400  0.00  0.00    +0.000 A 
ENDROOT
BRANCH   1  19
ATOM     19  C   UNL     1       5.521   4.218  16.519  0.00  0.00    +0.000 C 
BRANCH  19  20
ATOM     20  C   UNL     1       6.536   5.188  15.902  0.00  0.00    +0.000 C 
BRANCH  20  22
ATOM     21  C   UNL     1       7.420   7.061  17.139  0.00  0.00    +0.000 C 
ATOM     22  N   UNL     1       7.594   5.638  16.831  0.00  0.00    +0.000 NA
BRANCH  22  23
ATOM     23  C   UNL     1       7.698   4.843  18.068  0.00  0.00    +0.000 C 
BRANCH  23  24
ATOM     24  C   UNL     1       7.583   5.609  19.396  0.00  0.00    +0.000 C 
BRANCH  24  25
ATOM     25  O   UNL     1       8.574   5.170  20.319  0.00  0.00    +0.000 OA
ATOM     26  H   UNL     1       8.208   5.258  21.214  0.00  0.00    +0.000 HD
ENDBRANCH  24  25
ENDBRANCH  23  24
ENDBRANCH  22  23
ENDBRANCH  20  22
ENDBRANCH  19  20
ENDBRANCH   1  19
TORSDOF 6
ENDMDL
MODEL 4
REMARK VINA RESULT:      -7.1      0.962      1.254
REMARK  Name = 
REMARK  7 active torsions:
REMARK  status: ('A' for Active; 'I' for Inactive)
REMARK    1  A    between atoms: C_1  and  N_2
REMARK    2  A    between atoms: N_2  and  C_3
REMARK    3  A    between atoms: N_2  and  C_6
REMARK    4  A    between atoms: C_3  and  C_4
REMARK    5  A    between atoms: C_4  and  O_5
REMARK    6  A    between atoms: C_6  and  C_7
REMARK    7  A    between atoms: C_7  and  N_8
REMARK                            x       y       z     vdW  Elec       q    Type
REMARK                         _______ _______ _______ _____ _____    ______ ____
ROOT
ATOM      1  N   UNL     1       1.836   6.344  20.580  0.00  0.00    +0.000 N 
ATOM      2  N   UNL     1       1.112   7.019  21.522  0.00  0.00    +0.000 NA
ATOM      3  C   UNL     1       0.950   8.232  20.986  0.00  0.00    +0.000 A 
ATOM      4  C   UNL     1       1.566   8.316  19.741  0.00  0.00    +0.000 A 
ATOM      5  C   UNL     1       1.636   9.389  18.874  0.00  0.00    +0.000 A 
ATOM      6  C   UNL     1       2.322   9.224  17.674  0.00  0.00    +0.000 A 
ATOM      7  C   UNL     1       2.916   7.985  17.383  0.00  0.00    +0.000 A 
ATOM      8  C   UNL     1       2.841   6.891  18.271  0.00  0.00    +0.000 A 
ATOM      9  C   UNL     1       2.142   7.097  19.469  0.00  0.00    +0.000 A 
ATOM     10  C   UNL     1       0.948  10.612  19.351  0.00  0.00    +0.000 C 
ATOM     11  O   UNL     1       0.985  11.588  18.611  0.00  0.00    +0.000 OA
ATOM     12  C   UNL     1       0.250  10.595  20.709  0.00  0.00    +0.000 A 
ATOM     13  C   UNL     1      -0.415  11.723  21.214  0.00  0.00    +0.000 A 
ATOM     14 CL   UNL     1      -0.530  13.242  20.400  0.00  0.00    +0.000 Cl
ATOM     15  C   UNL     1      -1.046  11.663  22.468  0.00  0.00    +0.000 A 
ATOM     16  C   UNL     1      -1.027  10.495  23.230  0.00  0.00    +0.000 A 
ATOM     17  C   UNL     1      -0.375   9.363  22.751  0.00  0.00    +0.000 A 
ATOM     18  C   UNL     1       0.260   9.403  21.505  0.00  0.00    +0.000 A 
ENDROOT
BRANCH   1  19
ATOM     19  C   UNL     1       2.216   4.962  20.819  0.00  0.00    +0.000 C 
BRANCH  19  20
ATOM     20  C   UNL     1       1.129   3.978  20.366  0.00  0.00    +0.000 C 
BRANCH  20  22
ATOM     21  C   UNL     1       0.770   2.248  18.724  0.00  0.00    +0.000 C 
ATOM     22  N   UNL     1       1.648   2.713  19.802  0.00  0.00    +0.000 NA
BRANCH  22  23
ATOM     23  C   UNL     1       3.048   2.777  19.347  0.00  0.00    +0.000 C 
BRANCH  23  24
ATOM     24  C   UNL     1       3.405   1.972  18.086  0.00  0.00    +0.000 C 
BRANCH  24  25
ATOM     25  O   UNL     1       3.980   0.718  18.435  0.00  0.00    +0.000 OA
ATOM     26  H   UNL     1       3.639   0.465  19.308  0.00  0.00    +0.000 HD
ENDBRANCH  24  25
ENDBRANCH  23  24
ENDBRANCH  22  23
ENDBRANCH  20  22
ENDBRANCH  19  20
ENDBRANCH   1  19
TORSDOF 6
ENDMDL
MODEL 5
REMARK VINA RESULT:      -6.9      3.089      7.207
REMARK  Name = 
REMARK  7 active torsions:
REMARK  status: ('A' for Active; 'I' for Inactive)
REMARK    1  A    between atoms: C_1  and  N_2
REMARK    2  A    between atoms: N_2  and  C_3
REMARK    3  A    between atoms: N_2  and  C_6
REMARK    4  A    between atoms: C_3  and  C_4
REMARK    5  A    between atoms: C_4  and  O_5
REMARK    6  A    between atoms: C_6  and  C_7
REMARK    7  A    between atoms: C_7  and  N_8
REMARK                            x       y       z     vdW  Elec       q    Type
REMARK                         _______ _______ _______ _____ _____    ______ ____
ROOT
ATOM      1  N   UNL     1       1.736   6.404  20.343  0.00  0.00    +0.000 N 
ATOM      2  N   UNL     1       2.522   6.965  19.375  0.00  0.00    +0.000 NA
ATOM      3  C   UNL     1       3.023   5.910  18.726  0.00  0.00    +0.000 A 
ATOM      4  C   UNL     1       2.568   4.717  19.281  0.00  0.00    +0.000 A 
ATOM      5  C   UNL     1       2.855   3.418  18.910  0.00  0.00    +0.000 A 
ATOM      6  C   UNL     1       2.272   2.381  19.633  0.00  0.00    +0.000 A 
ATOM      7  C   UNL     1       1.418   2.683  20.706  0.00  0.00    +0.000 A 
ATOM      8  C   UNL     1       1.126   4.012  21.081  0.00  0.00    +0.000 A 
ATOM      9  C   UNL     1       1.733   5.028  20.329  0.00  0.00    +0.000 A 
ATOM     10  C   UNL     1       3.775   3.296  17.753  0.00  0.00    +0.000 C 
ATOM     11  O   UNL     1       4.055   2.160  17.391  0.00  0.00    +0.000 OA
ATOM     12  C   UNL     1       4.315   4.563  17.094  0.00  0.00    +0.000 A 
ATOM     13  C   UNL     1       5.190   4.510  15.998  0.00  0.00    +0.000 A 
ATOM     14 CL   UNL     1       5.766   3.053  15.268  0.00  0.00    +0.000 Cl
ATOM     15  C   UNL     1       5.663   5.700  15.419  0.00  0.00    +0.000 A 
ATOM     16  C   UNL     1       5.276   6.946  15.913  0.00  0.00    +0.000 A 
ATOM     17  C   UNL     1       4.409   7.024  16.998  0.00  0.00    +0.000 A 
ATOM     18  C   UNL     1       3.929   5.851  17.589  0.00  0.00    +0.000 A 
ENDROOT
BRANCH   1  19
ATOM     19  C   UNL     1       1.015   7.260  21.269  0.00  0.00    +0.000 C 
BRANCH  19  20
ATOM     20  C   UNL     1       1.598   8.678  21.318  0.00  0.00    +0.000 C 
BRANCH  20  22
ATOM     21  C   UNL     1      -0.369   9.760  20.436  0.00  0.00    +0.000 C 
ATOM     22  N   UNL     1       0.596   9.743  21.540  0.00  0.00    +0.000 NA
BRANCH  22  23
ATOM     23  C   UNL     1      -0.095   9.670  22.839  0.00  0.00    +0.000 C 
BRANCH  23  24
ATOM     24  C   UNL     1      -1.203  10.705  23.094  0.00  0.00    +0.000 C 
BRANCH  24  25
ATOM     25  O   UNL     1      -0.654  12.013  23.212  0.00  0.00    +0.000 OA
ATOM     26  H   UNL     1      -1.274  12.635  22.796  0.00  0.00    +0.000 HD
ENDBRANCH  24  25
ENDBRANCH  23  24
ENDBRANCH  22  23
ENDBRANCH  20  22
ENDBRANCH  19  20
ENDBRANCH   1  19
TORSDOF 6
ENDMDL
MODEL 6
REMARK VINA RESULT:      -6.9      3.012      4.652
REMARK  Name = 
REMARK  7 active torsions:
REMARK  status: ('A' for Active; 'I' for Inactive)
REMARK    1  A    between atoms: C_1  and  N_2
REMARK    2  A    between atoms: N_2  and  C_3
REMARK    3  A    between atoms: N_2  and  C_6
REMARK    4  A    between atoms: C_3  and  C_4
REMARK    5  A    between atoms: C_4  and  O_5
REMARK    6  A    between atoms: C_6  and  C_7
REMARK    7  A    between atoms: C_7  and  N_8
REMARK                            x       y       z     vdW  Elec       q    Type
REMARK                         _______ _______ _______ _____ _____    ______ ____
ROOT
ATOM      1  N   UNL     1       3.894   4.637  17.695  0.00  0.00    +0.000 N 
ATOM      2  N   UNL     1       3.671   5.930  17.314  0.00  0.00    +0.000 NA
ATOM      3  C   UNL     1       2.938   6.431  18.313  0.00  0.00    +0.000 A 
ATOM      4  C   UNL     1       2.702   5.471  19.292  0.00  0.00    +0.000 A 
ATOM      5  C   UNL     1       1.988   5.583  20.469  0.00  0.00    +0.000 A 
ATOM      6  C   UNL     1       1.891   4.464  21.292  0.00  0.00    +0.000 A 
ATOM      7  C   UNL     1       2.514   3.267  20.904  0.00  0.00    +0.000 A 
ATOM      8  C   UNL     1       3.244   3.156  19.701  0.00  0.00    +0.000 A 
ATOM      9  C   UNL     1       3.319   4.305  18.901  0.00  0.00    +0.000 A 
ATOM     10  C   UNL     1       1.403   6.924  20.709  0.00  0.00    +0.000 C 
ATOM     11  O   UNL     1       0.763   7.067  21.744  0.00  0.00    +0.000 OA
ATOM     12  C   UNL     1       1.620   8.028  19.678  0.00  0.00    +0.000 A 
ATOM     13  C   UNL     1       1.089   9.316  19.848  0.00  0.00    +0.000 A 
ATOM     14 CL   UNL     1       0.141   9.816  21.204  0.00  0.00    +0.000 Cl
ATOM     15  C   UNL     1       1.315  10.304  18.875  0.00  0.00    +0.000 A 
ATOM     16  C   UNL     1       2.064  10.031  17.731  0.00  0.00    +0.000 A 
ATOM     17  C   UNL     1       2.602   8.763  17.538  0.00  0.00    +0.000 A 
ATOM     18  C   UNL     1       2.387   7.765  18.495  0.00  0.00    +0.000 A 
ENDROOT
BRANCH   1  19
ATOM     19  C   UNL     1       4.670   3.758  16.837  0.00  0.00    +0.000 C 
BRANCH  19  20
ATOM     20  C   UNL     1       5.230   4.494  15.612  0.00  0.00    +0.000 C 
BRANCH  20  22
ATOM     21  C   UNL     1       7.206   4.893  14.288  0.00  0.00    +0.000 C 
ATOM     22  N   UNL     1       6.691   4.717  15.650  0.00  0.00    +0.000 NA
BRANCH  22  23
ATOM     23  C   UNL     1       7.117   5.827  16.520  0.00  0.00    +0.000 C 
BRANCH  23  24
ATOM     24  C   UNL     1       7.425   5.482  17.986  0.00  0.00    +0.000 C 
BRANCH  24  25
ATOM     25  O   UNL     1       7.992   4.181  18.089  0.00  0.00    +0.000 OA
ATOM     26  H   UNL     1       8.948   4.258  17.936  0.00  0.00    +0.000 HD
ENDBRANCH  24  25
ENDBRANCH  23  24
ENDBRANCH  22  23
ENDBRANCH  20  22
ENDBRANCH  19  20
ENDBRANCH   1  19
TORSDOF 6
ENDMDL
MODEL 7
REMARK VINA RESULT:      -6.8      1.612      2.298
REMARK  Name = 
REMARK  7 active torsions:
REMARK  status: ('A' for Active; 'I' for Inactive)
REMARK    1  A    between atoms: C_1  and  N_2
REMARK    2  A    between atoms: N_2  and  C_3
REMARK    3  A    between atoms: N_2  and  C_6
REMARK    4  A    between atoms: C_3  and  C_4
REMARK    5  A    between atoms: C_4  and  O_5
REMARK    6  A    between atoms: C_6  and  C_7
REMARK    7  A    between atoms: C_7  and  N_8
REMARK                            x       y       z     vdW  Elec       q    Type
REMARK                         _______ _______ _______ _____ _____    ______ ____
ROOT
ATOM      1  N   UNL     1       3.912   4.620  19.568  0.00  0.00    +0.000 N 
ATOM      2  N   UNL     1       3.006   5.226  20.392  0.00  0.00    +0.000 NA
ATOM      3  C   UNL     1       2.709   6.362  19.754  0.00  0.00    +0.000 A 
ATOM      4  C   UNL     1       3.419   6.467  18.562  0.00  0.00    +0.000 A 
ATOM      5  C   UNL     1       3.402   7.482  17.625  0.00  0.00    +0.000 A 
ATOM      6  C   UNL     1       4.216   7.356  16.502  0.00  0.00    +0.000 A 
ATOM      7  C   UNL     1       5.020   6.214  16.357  0.00  0.00    +0.000 A 
ATOM      8  C   UNL     1       5.033   5.180  17.316  0.00  0.00    +0.000 A 
ATOM      9  C   UNL     1       4.200   5.343  18.432  0.00  0.00    +0.000 A 
ATOM     10  C   UNL     1       2.490   8.605  17.949  0.00  0.00    +0.000 C 
ATOM     11  O   UNL     1       2.445   9.526  17.142  0.00  0.00    +0.000 OA
ATOM     12  C   UNL     1       1.679   8.558  19.241  0.00  0.00    +0.000 A 
ATOM     13  C   UNL     1       0.802   9.593  19.602  0.00  0.00    +0.000 A 
ATOM     14 CL   UNL     1       0.529  11.021  18.668  0.00  0.00    +0.000 Cl
ATOM     15  C   UNL     1       0.072   9.509  20.800  0.00  0.00    +0.000 A 
ATOM     16  C   UNL     1       0.200   8.408  21.647  0.00  0.00    +0.000 A 
ATOM     17  C   UNL     1       1.063   7.370  21.311  0.00  0.00    +0.000 A 
ATOM     18  C   UNL     1       1.799   7.435  20.124  0.00  0.00    +0.000 A 
ENDROOT
BRANCH   1  19
ATOM     19  C   UNL     1       4.478   3.335  19.941  0.00  0.00    +0.000 C 
BRANCH  19  20
ATOM     20  C   UNL     1       3.702   2.162  19.329  0.00  0.00    +0.000 C 
BRANCH  20  22
ATOM     21  C   UNL     1       2.803   2.120  17.091  0.00  0.00    +0.000 C 
ATOM     22  N   UNL     1       2.568   2.564  18.469  0.00  0.00    +0.000 NA
BRANCH  22  23
ATOM     23  C   UNL     1       1.250   2.112  18.947  0.00  0.00    +0.000 C 
BRANCH  23  24
ATOM     24  C   UNL     1       0.447   3.103  19.805  0.00  0.00    +0.000 C 
BRANCH  24  25
ATOM     25  O   UNL     1       0.890   3.074  21.157  0.00  0.00    +0.000 OA
ATOM     26  H   UNL     1       0.206   3.494  21.705  0.00  0.00    +0.000 HD
ENDBRANCH  24  25
ENDBRANCH  23  24
ENDBRANCH  22  23
ENDBRANCH  20  22
ENDBRANCH  19  20
ENDBRANCH   1  19
TORSDOF 6
ENDMDL
MODEL 8
REMARK VINA RESULT:      -6.8      3.834      5.413
REMARK  Name = 
REMARK  7 active torsions:
REMARK  status: ('A' for Active; 'I' for Inactive)
REMARK    1  A    between atoms: C_1  and  N_2
REMARK    2  A    between atoms: N_2  and  C_3
REMARK    3  A    between atoms: N_2  and  C_6
REMARK    4  A    between atoms: C_3  and  C_4
REMARK    5  A    between atoms: C_4  and  O_5
REMARK    6  A    between atoms: C_6  and  C_7
REMARK    7  A    between atoms: C_7  and  N_8
REMARK                            x       y       z     vdW  Elec       q    Type
REMARK                         _______ _______ _______ _____ _____    ______ ____
ROOT
ATOM      1  N   UNL     1       4.929   4.660  17.107  0.00  0.00    +0.000 N 
ATOM      2  N   UNL     1       4.484   5.938  16.918  0.00  0.00    +0.000 NA
ATOM      3  C   UNL     1       3.658   6.140  17.949  0.00  0.00    +0.000 A 
ATOM      4  C   UNL     1       3.583   5.011  18.759  0.00  0.00    +0.000 A 
ATOM      5  C   UNL     1       2.843   4.810  19.908  0.00  0.00    +0.000 A 
ATOM      6  C   UNL     1       2.935   3.576  20.545  0.00  0.00    +0.000 A 
ATOM      7  C   UNL     1       3.768   2.582  20.007  0.00  0.00    +0.000 A 
ATOM      8  C   UNL     1       4.524   2.791  18.834  0.00  0.00    +0.000 A 
ATOM      9  C   UNL     1       4.404   4.047  18.222  0.00  0.00    +0.000 A 
ATOM     10  C   UNL     1       2.023   5.973  20.325  0.00  0.00    +0.000 C 
ATOM     11  O   UNL     1       1.352   5.838  21.340  0.00  0.00    +0.000 OA
ATOM     12  C   UNL     1       2.055   7.247  19.483  0.00  0.00    +0.000 A 
ATOM     13  C   UNL     1       1.299   8.379  19.826  0.00  0.00    +0.000 A 
ATOM     14 CL   UNL     1       0.256   8.486  21.199  0.00  0.00    +0.000 Cl
ATOM     15  C   UNL     1       1.359   9.532  19.025  0.00  0.00    +0.000 A 
ATOM     16  C   UNL     1       2.162   9.578  17.885  0.00  0.00    +0.000 A 
ATOM     17  C   UNL     1       2.921   8.469  17.525  0.00  0.00    +0.000 A 
ATOM     18  C   UNL     1       2.874   7.312  18.309  0.00  0.00    +0.000 A 
ENDROOT
BRANCH   1  19
ATOM     19  C   UNL     1       5.863   4.077  16.159  0.00  0.00    +0.000 C 
BRANCH  19  20
ATOM     20  C   UNL     1       6.654   5.146  15.395  0.00  0.00    +0.000 C 
BRANCH  20  22
ATOM     21  C   UNL     1       7.950   5.227  13.362  0.00  0.00    +0.000 C 
ATOM     22  N   UNL     1       6.615   4.999  13.924  0.00  0.00    +0.000 NA
BRANCH  22  23
ATOM     23  C   UNL     1       6.059   3.719  13.453  0.00  0.00    +0.000 C 
BRANCH  23  24
ATOM     24  C   UNL     1       6.426   3.287  12.024  0.00  0.00    +0.000 C 
BRANCH  24  25
ATOM     25  O   UNL     1       5.812   2.045  11.698  0.00  0.00    +0.000 OA
ATOM     26  H   UNL     1       5.678   2.022  10.736  0.00  0.00    +0.000 HD
ENDBRANCH  24  25
ENDBRANCH  23  24
ENDBRANCH  22  23
ENDBRANCH  20  22
ENDBRANCH  19  20
ENDBRANCH   1  19
TORSDOF 6
ENDMDL
MODEL 9
REMARK VINA RESULT:      -6.7      3.234      4.530
REMARK  Name = 
REMARK  7 active torsions:
REMARK  status: ('A' for Active; 'I' for Inactive)
REMARK    1  A    between atoms: C_1  and  N_2
REMARK    2  A    between atoms: N_2  and  C_3
REMARK    3  A    between atoms: N_2  and  C_6
REMARK    4  A    between atoms: C_3  and  C_4
REMARK    5  A    between atoms: C_4  and  O_5
REMARK    6  A    between atoms: C_6  and  C_7
REMARK    7  A    between atoms: C_7  and  N_8
REMARK                            x       y       z     vdW  Elec       q    Type
REMARK                         _______ _______ _______ _____ _____    ______ ____
ROOT
ATOM      1  N   UNL     1       3.822   6.285  17.609  0.00  0.00    +0.000 N 
ATOM      2  N   UNL     1       3.472   7.591  17.405  0.00  0.00    +0.000 NA
ATOM      3  C   UNL     1       2.656   7.861  18.428  0.00  0.00    +0.000 A 
ATOM      4  C   UNL     1       2.493   6.749  19.247  0.00  0.00    +0.000 A 
ATOM      5  C   UNL     1       1.732   6.613  20.392  0.00  0.00    +0.000 A 
ATOM      6  C   UNL     1       1.730   5.381  21.041  0.00  0.00    +0.000 A 
ATOM      7  C   UNL     1       2.493   4.325  20.518  0.00  0.00    +0.000 A 
ATOM      8  C   UNL     1       3.270   4.468  19.349  0.00  0.00    +0.000 A 
ATOM      9  C   UNL     1       3.246   5.723  18.725  0.00  0.00    +0.000 A 
ATOM     10  C   UNL     1       0.997   7.837  20.792  0.00  0.00    +0.000 C 
ATOM     11  O   UNL     1       0.311   7.760  21.803  0.00  0.00    +0.000 OA
ATOM     12  C   UNL     1       1.127   9.097  19.940  0.00  0.00    +0.000 A 
ATOM     13  C   UNL     1       0.454  10.284  20.266  0.00  0.00    +0.000 A 
ATOM     14 CL   UNL     1      -0.588  10.479  21.631  0.00  0.00    +0.000 Cl
ATOM     15  C   UNL     1       0.603  11.422  19.455  0.00  0.00    +0.000 A 
ATOM     16  C   UNL     1       1.415  11.399  18.322  0.00  0.00    +0.000 A 
ATOM     17  C   UNL     1       2.094  10.234  17.977  0.00  0.00    +0.000 A 
ATOM     18  C   UNL     1       1.957   9.091  18.771  0.00  0.00    +0.000 A 
ENDROOT
BRANCH   1  19
ATOM     19  C   UNL     1       4.717   5.627  16.673  0.00  0.00    +0.000 C 
BRANCH  19  20
ATOM     20  C   UNL     1       6.101   6.287  16.635  0.00  0.00    +0.000 C 
BRANCH  20  22
ATOM     21  C   UNL     1       7.548   4.695  17.727  0.00  0.00    +0.000 C 
ATOM     22  N   UNL     1       7.224   5.342  16.451  0.00  0.00    +0.000 NA
BRANCH  22  23
ATOM     23  C   UNL     1       7.010   4.339  15.394  0.00  0.00    +0.000 C 
BRANCH  23  24
ATOM     24  C   UNL     1       6.999   4.851  13.944  0.00  0.00    +0.000 C 
BRANCH  24  25
ATOM     25  O   UNL     1       8.160   5.629  13.675  0.00  0.00    +0.000 OA
ATOM     26  H   UNL     1       8.530   5.330  12.828  0.00  0.00    +0.000 HD
ENDBRANCH  24  25
ENDBRANCH  23  24
ENDBRANCH  22  23
ENDBRANCH  20  22
ENDBRANCH  19  20
ENDBRANCH   1  19
TORSDOF 6
ENDMDL
