MODEL 1
REMARK VINA RESULT:      -5.2      0.000      0.000
REMARK  Name = 
REMARK  7 active torsions:
REMARK  status: ('A' for Active; 'I' for Inactive)
REMARK    1  A    between atoms: CB_1  and  CA_2
REMARK    2  A    between atoms: CA_2  and  N_3
REMARK    3  A    between atoms: CA_2  and  C_4
REMARK    4  A    between atoms: N_6  and  CA_7
REMARK    5  A    between atoms: CA_7  and  CB_8
REMARK    6  A    between atoms: CA_7  and  C_9
REMARK    7  A    between atoms: C_9  and  OXT_11
REMARK                            x       y       z     vdW  Elec       q    Type
REMARK                         _______ _______ _______ _____ _____    ______ ____
ROOT
ATOM      1  C   ALA A   1       4.608   3.340  18.551  0.00  0.00    +0.000 C 
ATOM      2  O   ALA A   1       5.310   3.655  19.511  0.00  0.00    +0.000 OA
ATOM      3  N   ALA A   2       4.845   3.882  17.309  0.00  0.00    +0.000 N 
ATOM      4  H   ALA A   2       4.196   3.636  16.567  0.00  0.00    +0.000 HD
ENDROOT
BRANCH   1   6
ATOM      5  CB  ALA A   1       2.379   2.573  17.622  0.00  0.00    +0.000 C 
ATOM      6  CA  ALA A   1       3.480   2.296  18.638  0.00  0.00    +0.000 C 
BRANCH   6   7
ATOM      7  N   ALA A   1       4.016   0.941  18.401  0.00  0.00    +0.000 NA
ATOM      8  H1  ALA A   1       3.450   0.247  18.898  0.00  0.00    +0.000 HD
ATOM      9  H2  ALA A   1       3.879   0.717  17.412  0.00  0.00    +0.000 HD
ENDBRANCH   6   7
ENDBRANCH   1   6
BRANCH   3  10
ATOM     10  CA  ALA A   2       5.778   4.996  17.099  0.00  0.00    +0.000 C 
ATOM     11  CB  ALA A   2       5.276   5.908  15.984  0.00  0.00    +0.000 C 
BRANCH  10  12
ATOM     12  C   ALA A   2       7.221   4.545  16.791  0.00  0.00    +0.000 C 
ATOM     13  O   ALA A   2       7.782   4.685  15.718  0.00  0.00    +0.000 OA
BRANCH  12  14
ATOM     14  OXT ALA A   2       7.891   4.053  17.870  0.00  0.00    +0.000 OA
ATOM     15  HXT ALA A   2       8.375   3.212  17.669  0.00  0.00    +0.000 HD
ENDBRANCH  12  14
ENDBRANCH  10  12
ENDBRANCH   3  10
TORSDOF 5
ENDMDL
MODEL 2
REMARK VINA RESULT:      -5.0      2.576      4.705
REMARK  Name = 
REMARK  7 active torsions:
REMARK  status: ('A' for Active; 'I' for Inactive)
REMARK    1  A    between atoms: CB_1  and  CA_2
REMARK    2  A    between atoms: CA_2  and  N_3
REMARK    3  A    between atoms: CA_2  and  C_4
REMARK    4  A    between atoms: N_6  and  CA_7
REMARK    5  A    between atoms: CA_7  and  CB_8
REMARK    6  A    between atoms: CA_7  and  C_9
REMARK    7  A    between atoms: C_9  and  OXT_11
REMARK                            x       y       z     vdW  Elec       q    Type
REMARK                         _______ _______ _______ _____ _____    ______ ____
ROOT
ATOM      1  C   ALA A   1       6.043   5.103  18.847  0.00  0.00    +0.000 C 
ATOM      2  O   ALA A   1       5.154   5.897  18.539  0.00  0.00    +0.000 OA
ATOM      3  N   ALA A   2       5.738   3.792  19.129  0.00  0.00    +0.000 N 
ATOM      4  H   ALA A   2       6.500   3.197  19.438  0.00  0.00    +0.000 HD
ENDROOT
BRANCH   1   6
ATOM      5  CB  ALA A   1       7.782   6.849  18.258  0.00  0.00    +0.000 C 
ATOM      6  CA  ALA A   1       7.536   5.479  18.878  0.00  0.00    +0.000 C 
BRANCH   6   7
ATOM      7  N   ALA A   1       8.034   5.488  20.267  0.00  0.00    +0.000 NA
ATOM      8  H1  ALA A   1       7.628   4.710  20.792  0.00  0.00    +0.000 HD
ATOM      9  H2  ALA A   1       9.036   5.282  20.243  0.00  0.00    +0.000 HD
ENDBRANCH   6   7
ENDBRANCH   1   6
BRANCH   3  10
ATOM     10  CA  ALA A   2       4.356   3.321  19.290  0.00  0.00    +0.000 C 
ATOM     11  CB  ALA A   2       4.279   2.260  20.383  0.00  0.00    +0.000 C 
BRANCH  10  12
ATOM     12  C   ALA A   2       3.734   2.772  17.989  0.00  0.00    +0.000 C 
ATOM     13  O   ALA A   2       3.451   1.603  17.789  0.00  0.00    +0.000 OA
BRANCH  12  14
ATOM     14  OXT ALA A   2       3.413   3.732  17.078  0.00  0.00    +0.000 OA
ATOM     15  HXT ALA A   2       4.191   4.288  16.816  0.00  0.00    +0.000 HD
ENDBRANCH  12  14
ENDBRANCH  10  12
ENDBRANCH   3  10
TORSDOF 5
ENDMDL
MODEL 3
REMARK VINA RESULT:      -5.0      1.285      1.556
REMARK  Name = 
REMARK  7 active torsions:
REMARK  status: ('A' for Active; 'I' for Inactive)
REMARK    1  A    between atoms: CB_1  and  CA_2
REMARK    2  A    between atoms: CA_2  and  N_3
REMARK    3  A    between atoms: CA_2  and  C_4
REMARK    4  A    between atoms: N_6  and  CA_7
REMARK    5  A    between atoms: CA_7  and  CB_8
REMARK    6  A    between atoms: CA_7  and  C_9
REMARK    7  A    between atoms: C_9  and  OXT_11
REMARK                            x       y       z     vdW  Elec       q    Type
REMARK                         _______ _______ _______ _____ _____    ______ ____
ROOT
ATOM      1  C   ALA A   1       4.594   3.997  19.302  0.00  0.00    +0.000 C 
ATOM      2  O   ALA A   1       4.333   5.048  19.888  0.00  0.00    +0.000 OA
ATOM      3  N   ALA A   2       5.427   4.000  18.208  0.00  0.00    +0.000 N 
ATOM      4  H   ALA A   2       5.558   3.115  17.725  0.00  0.00    +0.000 HD
ENDROOT
BRANCH   1   6
ATOM      5  CB  ALA A   1       3.458   1.839  18.619  0.00  0.00    +0.000 C 
ATOM      6  CA  ALA A   1       4.080   2.623  19.767  0.00  0.00    +0.000 C 
BRANCH   6   7
ATOM      7  N   ALA A   1       5.185   1.829  20.341  0.00  0.00    +0.000 NA
ATOM      8  H1  ALA A   1       5.493   2.243  21.225  0.00  0.00    +0.000 HD
ATOM      9  H2  ALA A   1       4.810   0.915  20.607  0.00  0.00    +0.000 HD
ENDBRANCH   6   7
ENDBRANCH   1   6
BRANCH   3  10
ATOM     10  CA  ALA A   2       5.871   5.239  17.556  0.00  0.00    +0.000 C 
ATOM     11  CB  ALA A   2       4.917   5.618  16.428  0.00  0.00    +0.000 C 
BRANCH  10  12
ATOM     12  C   ALA A   2       7.314   5.171  17.016  0.00  0.00    +0.000 C 
ATOM     13  O   ALA A   2       8.083   4.242  17.193  0.00  0.00    +0.000 OA
BRANCH  12  14
ATOM     14  OXT ALA A   2       7.655   6.213  16.208  0.00  0.00    +0.000 OA
ATOM     15  HXT ALA A   2       7.409   6.060  15.260  0.00  0.00    +0.000 HD
ENDBRANCH  12  14
ENDBRANCH  10  12
ENDBRANCH   3  10
TORSDOF 5
ENDMDL
MODEL 4
REMARK VINA RESULT:      -5.0      1.347      1.392
REMARK  Name = 
REMARK  7 active torsions:
REMARK  status: ('A' for Active; 'I' for Inactive)
REMARK    1  A    between atoms: CB_1  and  CA_2
REMARK    2  A    between atoms: CA_2  and  N_3
REMARK    3  A    between atoms: CA_2  and  C_4
REMARK    4  A    between atoms: N_6  and  CA_7
REMARK    5  A    between atoms: CA_7  and  CB_8
REMARK    6  A    between atoms: CA_7  and  C_9
REMARK    7  A    between atoms: C_9  and  OXT_11
REMARK                            x       y       z     vdW  Elec       q    Type
REMARK                         _______ _______ _______ _____ _____    ______ ____
ROOT
ATOM      1  C   ALA A   1       4.855   3.865  18.954  0.00  0.00    +0.000 C 
ATOM      2  O   ALA A   1       4.861   5.007  19.413  0.00  0.00    +0.000 OA
ATOM      3  N   ALA A   2       5.337   3.620  17.690  0.00  0.00    +0.000 N 
ATOM      4  H   ALA A   2       5.249   2.671  17.338  0.00  0.00    +0.000 HD
ENDROOT
BRANCH   1   6
ATOM      5  CB  ALA A   1       3.038   2.889  20.425  0.00  0.00    +0.000 C 
ATOM      6  CA  ALA A   1       4.383   2.638  19.755  0.00  0.00    +0.000 C 
BRANCH   6   7
ATOM      7  N   ALA A   1       4.262   1.463  18.870  0.00  0.00    +0.000 NA
ATOM      8  H1  ALA A   1       4.832   0.692  19.227  0.00  0.00    +0.000 HD
ATOM      9  H2  ALA A   1       3.301   1.117  18.936  0.00  0.00    +0.000 HD
ENDBRANCH   6   7
ENDBRANCH   1   6
BRANCH   3  10
ATOM     10  CA  ALA A   2       5.677   4.699  16.752  0.00  0.00    +0.000 C 
ATOM     11  CB  ALA A   2       5.307   4.302  15.327  0.00  0.00    +0.000 C 
BRANCH  10  12
ATOM     12  C   ALA A   2       7.160   5.120  16.806  0.00  0.00    +0.000 C 
ATOM     13  O   ALA A   2       7.576   6.243  16.576  0.00  0.00    +0.000 OA
BRANCH  12  14
ATOM     14  OXT ALA A   2       8.000   4.142  17.244  0.00  0.00    +0.000 OA
ATOM     15  HXT ALA A   2       8.113   4.146  18.229  0.00  0.00    +0.000 HD
ENDBRANCH  12  14
ENDBRANCH  10  12
ENDBRANCH   3  10
TORSDOF 5
ENDMDL
MODEL 5
REMARK VINA RESULT:      -5.0      2.537      4.781
REMARK  Name = 
REMARK  7 active torsions:
REMARK  status: ('A' for Active; 'I' for Inactive)
REMARK    1  A    between atoms: CB_1  and  CA_2
REMARK    2  A    between atoms: CA_2  and  N_3
REMARK    3  A    between atoms: CA_2  and  C_4
REMARK    4  A    between atoms: N_6  and  CA_7
REMARK    5  A    between atoms: CA_7  and  CB_8
REMARK    6  A    between atoms: CA_7  and  C_9
REMARK    7  A    between atoms: C_9  and  OXT_11
REMARK                            x       y       z     vdW  Elec       q    Type
REMARK                         _______ _______ _______ _____ _____    ______ ____
ROOT
ATOM      1  C   ALA A   1       6.366   5.281  18.416  0.00  0.00    +0.000 C 
ATOM      2  O   ALA A   1       5.811   5.689  17.396  0.00  0.00    +0.000 OA
ATOM      3  N   ALA A   2       5.745   4.357  19.224  0.00  0.00    +0.000 N 
ATOM      4  H   ALA A   2       6.220   4.103  20.085  0.00  0.00    +0.000 HD
ENDROOT
BRANCH   1   6
ATOM      5  CB  ALA A   1       8.055   7.167  18.498  0.00  0.00    +0.000 C 
ATOM      6  CA  ALA A   1       7.787   5.705  18.831  0.00  0.00    +0.000 C 
BRANCH   6   7
ATOM      7  N   ALA A   1       7.981   5.504  20.280  0.00  0.00    +0.000 NA
ATOM      8  H1  ALA A   1       7.307   4.819  20.634  0.00  0.00    +0.000 HD
ATOM      9  H2  ALA A   1       8.891   5.057  20.417  0.00  0.00    +0.000 HD
ENDBRANCH   6   7
ENDBRANCH   1   6
BRANCH   3  10
ATOM     10  CA  ALA A   2       4.339   3.972  19.046  0.00  0.00    +0.000 C 
ATOM     11  CB  ALA A   2       3.429   4.895  19.852  0.00  0.00    +0.000 C 
BRANCH  10  12
ATOM     12  C   ALA A   2       4.047   2.503  19.415  0.00  0.00    +0.000 C 
ATOM     13  O   ALA A   2       3.029   1.899  19.125  0.00  0.00    +0.000 OA
BRANCH  12  14
ATOM     14  OXT ALA A   2       5.087   1.866  20.021  0.00  0.00    +0.000 OA
ATOM     15  HXT ALA A   2       5.054   0.882  19.905  0.00  0.00    +0.000 HD
ENDBRANCH  12  14
ENDBRANCH  10  12
ENDBRANCH   3  10
TORSDOF 5
ENDMDL
MODEL 6
REMARK VINA RESULT:      -5.0      1.574      1.893
REMARK  Name = 
REMARK  7 active torsions:
REMARK  status: ('A' for Active; 'I' for Inactive)
REMARK    1  A    between atoms: CB_1  and  CA_2
REMARK    2  A    between atoms: CA_2  and  N_3
REMARK    3  A    between atoms: CA_2  and  C_4
REMARK    4  A    between atoms: N_6  and  CA_7
REMARK    5  A    between atoms: CA_7  and  CB_8
REMARK    6  A    between atoms: CA_7  and  C_9
REMARK    7  A    between atoms: C_9  and  OXT_11
REMARK                            x       y       z     vdW  Elec       q    Type
REMARK                         _______ _______ _______ _____ _____    ______ ____
ROOT
ATOM      1  C   ALA A   1       3.997   3.380  17.471  0.00  0.00    +0.000 C 
ATOM      2  O   ALA A   1       3.267   4.363  17.344  0.00  0.00    +0.000 OA
ATOM      3  N   ALA A   2       5.288   3.406  16.999  0.00  0.00    +0.000 N 
ATOM      4  H   ALA A   2       5.824   2.547  17.074  0.00  0.00    +0.000 HD
ENDROOT
BRANCH   1   6
ATOM      5  CB  ALA A   1       3.805   2.202  19.706  0.00  0.00    +0.000 C 
ATOM      6  CA  ALA A   1       3.563   2.098  18.206  0.00  0.00    +0.000 C 
BRANCH   6   7
ATOM      7  N   ALA A   1       2.130   1.832  17.971  0.00  0.00    +0.000 NA
ATOM      8  H1  ALA A   1       1.593   2.024  18.821  0.00  0.00    +0.000 HD
ATOM      9  H2  ALA A   1       1.789   2.520  17.296  0.00  0.00    +0.000 HD
ENDBRANCH   6   7
ENDBRANCH   1   6
BRANCH   3  10
ATOM     10  CA  ALA A   2       5.795   4.491  16.149  0.00  0.00    +0.000 C 
ATOM     11  CB  ALA A   2       5.745   4.083  14.680  0.00  0.00    +0.000 C 
BRANCH  10  12
ATOM     12  C   ALA A   2       7.223   4.946  16.513  0.00  0.00    +0.000 C 
ATOM     13  O   ALA A   2       8.056   4.253  17.072  0.00  0.00    +0.000 OA
BRANCH  12  14
ATOM     14  OXT ALA A   2       7.543   6.190  16.060  0.00  0.00    +0.000 OA
ATOM     15  HXT ALA A   2       6.776   6.652  15.634  0.00  0.00    +0.000 HD
ENDBRANCH  12  14
ENDBRANCH  10  12
ENDBRANCH   3  10
TORSDOF 5
ENDMDL
MODEL 7
REMARK VINA RESULT:      -4.9      0.358      1.009
REMARK  Name = 
REMARK  7 active torsions:
REMARK  status: ('A' for Active; 'I' for Inactive)
REMARK    1  A    between atoms: CB_1  and  CA_2
REMARK    2  A    between atoms: CA_2  and  N_3
REMARK    3  A    between atoms: CA_2  and  C_4
REMARK    4  A    between atoms: N_6  and  CA_7
REMARK    5  A    between atoms: CA_7  and  CB_8
REMARK    6  A    between atoms: CA_7  and  C_9
REMARK    7  A    between atoms: C_9  and  OXT_11
REMARK                            x       y       z     vdW  Elec       q    Type
REMARK                         _______ _______ _______ _____ _____    ______ ____
ROOT
ATOM      1  C   ALA A   1       4.636   3.472  18.585  0.00  0.00    +0.000 C 
ATOM      2  O   ALA A   1       5.353   3.580  19.579  0.00  0.00    +0.000 OA
ATOM      3  N   ALA A   2       4.940   4.153  17.430  0.00  0.00    +0.000 N 
ATOM      4  H   ALA A   2       4.280   4.078  16.661  0.00  0.00    +0.000 HD
ENDROOT
BRANCH   1   6
ATOM      5  CB  ALA A   1       2.436   2.967  17.435  0.00  0.00    +0.000 C 
ATOM      6  CA  ALA A   1       3.409   2.543  18.527  0.00  0.00    +0.000 C 
BRANCH   6   7
ATOM      7  N   ALA A   1       3.831   1.151  18.275  0.00  0.00    +0.000 NA
ATOM      8  H1  ALA A   1       3.384   0.796  17.426  0.00  0.00    +0.000 HD
ATOM      9  H2  ALA A   1       4.829   1.161  18.051  0.00  0.00    +0.000 HD
ENDBRANCH   6   7
ENDBRANCH   1   6
BRANCH   3  10
ATOM     10  CA  ALA A   2       5.982   5.187  17.375  0.00  0.00    +0.000 C 
ATOM     11  CB  ALA A   2       5.544   6.336  16.472  0.00  0.00    +0.000 C 
BRANCH  10  12
ATOM     12  C   ALA A   2       7.356   4.658  16.914  0.00  0.00    +0.000 C 
ATOM     13  O   ALA A   2       8.182   4.135  17.641  0.00  0.00    +0.000 OA
BRANCH  12  14
ATOM     14  OXT ALA A   2       7.553   4.723  15.568  0.00  0.00    +0.000 OA
ATOM     15  HXT ALA A   2       8.080   5.517  15.295  0.00  0.00    +0.000 HD
ENDBRANCH  12  14
ENDBRANCH  10  12
ENDBRANCH   3  10
TORSDOF 5
ENDMDL
MODEL 8
REMARK VINA RESULT:      -4.9      3.424      4.385
REMARK  Name = 
REMARK  7 active torsions:
REMARK  status: ('A' for Active; 'I' for Inactive)
REMARK    1  A    between atoms: CB_1  and  CA_2
REMARK    2  A    between atoms: CA_2  and  N_3
REMARK    3  A    between atoms: CA_2  and  C_4
REMARK    4  A    between atoms: N_6  and  CA_7
REMARK    5  A    between atoms: CA_7  and  CB_8
REMARK    6  A    between atoms: CA_7  and  C_9
REMARK    7  A    between atoms: C_9  and  OXT_11
REMARK                            x       y       z     vdW  Elec       q    Type
REMARK                         _______ _______ _______ _____ _____    ______ ____
ROOT
ATOM      1  C   ALA A   1       6.604   4.695  15.303  0.00  0.00    +0.000 C 
ATOM      2  O   ALA A   1       5.570   4.229  15.783  0.00  0.00    +0.000 OA
ATOM      3  N   ALA A   2       7.395   5.542  16.044  0.00  0.00    +0.000 N 
ATOM      4  H   ALA A   2       8.201   5.946  15.577  0.00  0.00    +0.000 HD
ENDROOT
BRANCH   1   6
ATOM      5  CB  ALA A   1       6.011   3.760  13.024  0.00  0.00    +0.000 C 
ATOM      6  CA  ALA A   1       7.120   4.331  13.899  0.00  0.00    +0.000 C 
BRANCH   6   7
ATOM      7  N   ALA A   1       7.684   5.523  13.234  0.00  0.00    +0.000 NA
ATOM      8  H1  ALA A   1       7.511   5.479  12.227  0.00  0.00    +0.000 HD
ATOM      9  H2  ALA A   1       7.152   6.338  13.547  0.00  0.00    +0.000 HD
ENDBRANCH   6   7
ENDBRANCH   1   6
BRANCH   3  10
ATOM     10  CA  ALA A   2       6.964   6.099  17.332  0.00  0.00    +0.000 C 
ATOM     11  CB  ALA A   2       7.590   7.472  17.554  0.00  0.00    +0.000 C 
BRANCH  10  12
ATOM     12  C   ALA A   2       7.273   5.186  18.536  0.00  0.00    +0.000 C 
ATOM     13  O   ALA A   2       8.084   5.436  19.411  0.00  0.00    +0.000 OA
BRANCH  12  14
ATOM     14  OXT ALA A   2       6.476   4.085  18.618  0.00  0.00    +0.000 OA
ATOM     15  HXT ALA A   2       6.950   3.249  18.376  0.00  0.00    +0.000 HD
ENDBRANCH  12  14
ENDBRANCH  10  12
ENDBRANCH   3  10
TORSDOF 5
ENDMDL
MODEL 9
REMARK VINA RESULT:      -4.8      2.160      4.537
REMARK  Name = 
REMARK  7 active torsions:
REMARK  status: ('A' for Active; 'I' for Inactive)
REMARK    1  A    between atoms: CB_1  and  CA_2
REMARK    2  A    between atoms: CA_2  and  N_3
REMARK    3  A    between atoms: CA_2  and  C_4
REMARK    4  A    between atoms: N_6  and  CA_7
REMARK    5  A    between atoms: CA_7  and  CB_8
REMARK    6  A    between atoms: CA_7  and  C_9
REMARK    7  A    between atoms: C_9  and  OXT_11
REMARK                            x       y       z     vdW  Elec       q    Type
REMARK                         _______ _______ _______ _____ _____    ______ ____
ROOT
ATOM      1  C   ALA A   1       6.488   4.474  17.701  0.00  0.00    +0.000 C 
ATOM      2  O   ALA A   1       6.541   4.227  16.496  0.00  0.00    +0.000 OA
ATOM      3  N   ALA A   2       5.488   3.938  18.478  0.00  0.00    +0.000 N 
ATOM      4  H   ALA A   2       5.456   4.226  19.452  0.00  0.00    +0.000 HD
ENDROOT
BRANCH   1   6
ATOM      5  CB  ALA A   1       7.551   6.762  17.928  0.00  0.00    +0.000 C 
ATOM      6  CA  ALA A   1       7.541   5.325  18.433  0.00  0.00    +0.000 C 
BRANCH   6   7
ATOM      7  N   ALA A   1       7.276   5.333  19.885  0.00  0.00    +0.000 NA
ATOM      8  H1  ALA A   1       7.124   6.291  20.211  0.00  0.00    +0.000 HD
ATOM      9  H2  ALA A   1       6.378   4.867  20.043  0.00  0.00    +0.000 HD
ENDBRANCH   6   7
ENDBRANCH   1   6
BRANCH   3  10
ATOM     10  CA  ALA A   2       4.332   3.236  17.904  0.00  0.00    +0.000 C 
ATOM     11  CB  ALA A   2       3.213   4.224  17.590  0.00  0.00    +0.000 C 
BRANCH  10  12
ATOM     12  C   ALA A   2       3.790   2.103  18.798  0.00  0.00    +0.000 C 
ATOM     13  O   ALA A   2       2.944   2.242  19.665  0.00  0.00    +0.000 OA
BRANCH  12  14
ATOM     14  OXT ALA A   2       4.261   0.867  18.476  0.00  0.00    +0.000 OA
ATOM     15  HXT ALA A   2       5.058   0.609  19.005  0.00  0.00    +0.000 HD
ENDBRANCH  12  14
ENDBRANCH  10  12
ENDBRANCH   3  10
TORSDOF 5
ENDMDL
