MODEL 1
REMARK VINA RESULT:      -8.0      0.000      0.000
REMARK  Name = 
REMARK  3 active torsions:
REMARK  status: ('A' for Active; 'I' for Inactive)
REMARK    1  A    between atoms: N_1  and  C_2
REMARK    2  A    between atoms: C_5  and  C_6
REMARK    3  A    between atoms: N_19  and  C_20
REMARK                            x       y       z     vdW  Elec       q    Type
REMARK                         _______ _______ _______ _____ _____    ______ ____
ROOT
ATOM      1  C   UNL     1       1.628   9.062  18.755  0.00  0.00    +0.000 A 
ATOM      2  C   UNL     1       2.204   7.844  18.843  0.00  0.00    +0.000 A 
ATOM      3  N   UNL     1       3.006   7.221  17.918  0.00  0.00    +0.000 N 
ATOM      4  C   UNL     1       3.565   5.978  18.084  0.00  0.00    +0.000 A 
ATOM      5  N   UNL     1       3.361   5.223  19.117  0.00  0.00    +0.000 NA
ATOM      6  C   UNL     1       2.530   5.691  20.115  0.00  0.00    +0.000 A 
ATOM      7  O   UNL     1       2.223   4.978  21.066  0.00  0.00    +0.000 OA
ATOM      8  C   UNL     1       1.941   7.106  20.091  0.00  0.00    +0.000 A 
ATOM      9  N   UNL     1       1.282   7.550  21.105  0.00  0.00    +0.000 NA
ATOM     10  C   UNL     1       0.732   8.800  21.036  0.00  0.00    +0.000 A 
ATOM     11  O   UNL     1       0.107   9.230  22.003  0.00  0.00    +0.000 OA
ATOM     12  N   UNL     1       0.879   9.544  19.835  0.00  0.00    +0.000 N 
ATOM     13  H   UNL     1       3.054   7.671  17.011  0.00  0.00    +0.000 HD
ENDROOT
BRANCH   4  14
ATOM     14  C   UNL     1       4.477   5.454  17.020  0.00  0.00    +0.000 A 
ATOM     15  C   UNL     1       4.738   4.082  16.916  0.00  0.00    +0.000 A 
ATOM     16  C   UNL     1       5.567   3.605  15.898  0.00  0.00    +0.000 A 
ATOM     17  C   UNL     1       6.136   4.496  14.987  0.00  0.00    +0.000 A 
ATOM     18  C   UNL     1       5.875   5.861  15.087  0.00  0.00    +0.000 A 
ATOM     19  C   UNL     1       5.042   6.342  16.098  0.00  0.00    +0.000 A 
ENDBRANCH   4  14
BRANCH  12  20
ATOM     20  C   UNL     1       0.244  10.830  19.796  0.00  0.00    +0.000 A 
ATOM     21  C   UNL     1       0.922  11.968  20.258  0.00  0.00    +0.000 A 
ATOM     22  C   UNL     1       0.318  13.224  20.192  0.00  0.00    +0.000 A 
ATOM     23  C   UNL     1      -0.976  13.350  19.687  0.00  0.00    +0.000 A 
ATOM     24  C   UNL     1      -1.663  12.223  19.239  0.00  0.00    +0.000 A 
ATOM     25  C   UNL     1      -1.053  10.969  19.281  0.00  0.00    +0.000 A 
ENDBRANCH  12  20
BRANCH   1  26
ATOM     26  N   UNL     1       1.862   9.839  17.614  0.00  0.00    +0.000 N 
ATOM     27  H   UNL     1       1.336   9.531  16.802  0.00  0.00    +0.000 HD
ATOM     28  H   UNL     1       2.855   9.863  17.384  0.00  0.00    +0.000 HD
ENDBRANCH   1  26
TORSDOF 3
ENDMDL
MODEL 2
REMARK VINA RESULT:      -8.0      0.049      1.369
REMARK  Name = 
REMARK  3 active torsions:
REMARK  status: ('A' for Active; 'I' for Inactive)
REMARK    1  A    between atoms: N_1  and  C_2
REMARK    2  A    between atoms: C_5  and  C_6
REMARK    3  A    between atoms: N_19  and  C_20
REMARK                            x       y       z     vdW  Elec       q    Type
REMARK                         _______ _______ _______ _____ _____    ______ ____
ROOT
ATOM      1  C   UNL     1       1.615   9.082  18.765  0.00  0.00    +0.000 A 
ATOM      2  C   UNL     1       2.189   7.863  18.844  0.00  0.00    +0.000 A 
ATOM      3  N   UNL     1       2.979   7.240  17.910  0.00  0.00    +0.000 N 
ATOM      4  C   UNL     1       3.537   5.995  18.068  0.00  0.00    +0.000 A 
ATOM      5  N   UNL     1       3.342   5.239  19.102  0.00  0.00    +0.000 NA
ATOM      6  C   UNL     1       2.524   5.707  20.110  0.00  0.00    +0.000 A 
ATOM      7  O   UNL     1       2.226   4.994  21.064  0.00  0.00    +0.000 OA
ATOM      8  C   UNL     1       1.938   7.124  20.095  0.00  0.00    +0.000 A 
ATOM      9  N   UNL     1       1.292   7.568  21.117  0.00  0.00    +0.000 NA
ATOM     10  C   UNL     1       0.743   8.820  21.055  0.00  0.00    +0.000 A 
ATOM     11  O   UNL     1       0.130   9.250  22.031  0.00  0.00    +0.000 OA
ATOM     12  N   UNL     1       0.879   9.564  19.854  0.00  0.00    +0.000 N 
ATOM     13  H   UNL     1       3.017   7.690  17.003  0.00  0.00    +0.000 HD
ENDROOT
BRANCH   4  14
ATOM     14  C   UNL     1       4.436   5.470  16.993  0.00  0.00    +0.000 A 
ATOM     15  C   UNL     1       5.045   6.344  16.084  0.00  0.00    +0.000 A 
ATOM     16  C   UNL     1       5.907   5.843  15.106  0.00  0.00    +0.000 A 
ATOM     17  C   UNL     1       6.157   4.471  15.033  0.00  0.00    +0.000 A 
ATOM     18  C   UNL     1       5.554   3.601  15.939  0.00  0.00    +0.000 A 
ATOM     19  C   UNL     1       4.697   4.098  16.923  0.00  0.00    +0.000 A 
ENDBRANCH   4  14
BRANCH  12  20
ATOM     20  C   UNL     1       0.246  10.853  19.824  0.00  0.00    +0.000 A 
ATOM     21  C   UNL     1      -1.062  10.986  19.338  0.00  0.00    +0.000 A 
ATOM     22  C   UNL     1      -1.690  12.233  19.338  0.00  0.00    +0.000 A 
ATOM     23  C   UNL     1      -1.007  13.358  19.798  0.00  0.00    +0.000 A 
ATOM     24  C   UNL     1       0.299  13.237  20.270  0.00  0.00    +0.000 A 
ATOM     25  C   UNL     1       0.921  11.988  20.295  0.00  0.00    +0.000 A 
ENDBRANCH  12  20
BRANCH   1  26
ATOM     26  N   UNL     1       1.837   9.860  17.622  0.00  0.00    +0.000 N 
ATOM     27  H   UNL     1       2.603  10.519  17.724  0.00  0.00    +0.000 HD
ATOM     28  H   UNL     1       0.992  10.363  17.351  0.00  0.00    +0.000 HD
ENDBRANCH   1  26
TORSDOF 3
ENDMDL
MODEL 3
REMARK VINA RESULT:      -7.7      1.983      7.732
REMARK  Name = 
REMARK  3 active torsions:
REMARK  status: ('A' for Active; 'I' for Inactive)
REMARK    1  A    between atoms: N_1  and  C_2
REMARK    2  A    between atoms: C_5  and  C_6
REMARK    3  A    between atoms: N_19  and  C_20
REMARK                            x       y       z     vdW  Elec       q    Type
REMARK                         _______ _______ _______ _____ _____    ______ ____
ROOT
ATOM      1  C   UNL     1       3.895   6.146  17.804  0.00  0.00    +0.000 A 
ATOM      2  C   UNL     1       3.044   6.218  18.850  0.00  0.00    +0.000 A 
ATOM      3  N   UNL     1       2.462   7.338  19.389  0.00  0.00    +0.000 N 
ATOM      4  C   UNL     1       1.595   7.330  20.453  0.00  0.00    +0.000 A 
ATOM      5  N   UNL     1       1.260   6.262  21.107  0.00  0.00    +0.000 NA
ATOM      6  C   UNL     1       1.806   5.057  20.715  0.00  0.00    +0.000 A 
ATOM      7  O   UNL     1       1.601   4.032  21.359  0.00  0.00    +0.000 OA
ATOM      8  C   UNL     1       2.696   4.928  19.474  0.00  0.00    +0.000 A 
ATOM      9  N   UNL     1       3.074   3.766  19.066  0.00  0.00    +0.000 NA
ATOM     10  C   UNL     1       3.904   3.688  17.981  0.00  0.00    +0.000 A 
ATOM     11  O   UNL     1       4.263   2.581  17.584  0.00  0.00    +0.000 OA
ATOM     12  N   UNL     1       4.344   4.893  17.371  0.00  0.00    +0.000 N 
ATOM     13  H   UNL     1       2.825   8.222  19.051  0.00  0.00    +0.000 HD
ENDROOT
BRANCH   4  14
ATOM     14  C   UNL     1       0.982   8.623  20.890  0.00  0.00    +0.000 A 
ATOM     15  C   UNL     1       0.798   9.668  19.977  0.00  0.00    +0.000 A 
ATOM     16  C   UNL     1       0.196  10.858  20.392  0.00  0.00    +0.000 A 
ATOM     17  C   UNL     1      -0.219  11.005  21.717  0.00  0.00    +0.000 A 
ATOM     18  C   UNL     1      -0.040   9.964  22.626  0.00  0.00    +0.000 A 
ATOM     19  C   UNL     1       0.555   8.770  22.214  0.00  0.00    +0.000 A 
ENDBRANCH   4  14
BRANCH  12  20
ATOM     20  C   UNL     1       5.250   4.758  16.266  0.00  0.00    +0.000 A 
ATOM     21  C   UNL     1       4.771   4.394  14.999  0.00  0.00    +0.000 A 
ATOM     22  C   UNL     1       5.646   4.294  13.916  0.00  0.00    +0.000 A 
ATOM     23  C   UNL     1       7.008   4.531  14.097  0.00  0.00    +0.000 A 
ATOM     24  C   UNL     1       7.495   4.879  15.356  0.00  0.00    +0.000 A 
ATOM     25  C   UNL     1       6.620   5.004  16.435  0.00  0.00    +0.000 A 
ENDBRANCH  12  20
BRANCH   1  26
ATOM     26  N   UNL     1       4.244   7.326  17.136  0.00  0.00    +0.000 N 
ATOM     27  H   UNL     1       3.663   7.520  16.327  0.00  0.00    +0.000 HD
ATOM     28  H   UNL     1       5.224   7.311  16.852  0.00  0.00    +0.000 HD
ENDBRANCH   1  26
TORSDOF 3
ENDMDL
MODEL 4
REMARK VINA RESULT:      -7.4      2.467      8.150
REMARK  Name = 
REMARK  3 active torsions:
REMARK  status: ('A' for Active; 'I' for Inactive)
REMARK    1  A    between atoms: N_1  and  C_2
REMARK    2  A    between atoms: C_5  and  C_6
REMARK    3  A    between atoms: N_19  and  C_20
REMARK                            x       y       z     vdW  Elec       q    Type
REMARK                         _______ _______ _______ _____ _____    ______ ____
ROOT
ATOM      1  C   UNL     1       2.102   6.208  19.572  0.00  0.00    +0.000 A 
ATOM      2  C   UNL     1       1.853   7.531  19.471  0.00  0.00    +0.000 A 
ATOM      3  N   UNL     1       1.081   8.310  20.297  0.00  0.00    +0.000 N 
ATOM      4  C   UNL     1       0.882   9.659  20.132  0.00  0.00    +0.000 A 
ATOM      5  N   UNL     1       1.363  10.348  19.146  0.00  0.00    +0.000 NA
ATOM      6  C   UNL     1       2.122   9.692  18.199  0.00  0.00    +0.000 A 
ATOM      7  O   UNL     1       2.519  10.275  17.193  0.00  0.00    +0.000 OA
ATOM      8  C   UNL     1       2.504   8.214  18.337  0.00  0.00    +0.000 A 
ATOM      9  N   UNL     1       3.324   7.676  17.503  0.00  0.00    +0.000 NA
ATOM     10  C   UNL     1       3.610   6.343  17.628  0.00  0.00    +0.000 A 
ATOM     11  O   UNL     1       4.397   5.827  16.836  0.00  0.00    +0.000 OA
ATOM     12  N   UNL     1       2.964   5.601  18.650  0.00  0.00    +0.000 N 
ATOM     13  H   UNL     1       0.524   7.804  20.975  0.00  0.00    +0.000 HD
ENDROOT
BRANCH   4  14
ATOM     14  C   UNL     1       0.071  10.393  21.153  0.00  0.00    +0.000 A 
ATOM     15  C   UNL     1      -0.417  11.678  20.885  0.00  0.00    +0.000 A 
ATOM     16  C   UNL     1      -1.199  12.339  21.835  0.00  0.00    +0.000 A 
ATOM     17  C   UNL     1      -1.492  11.718  23.051  0.00  0.00    +0.000 A 
ATOM     18  C   UNL     1      -1.011  10.438  23.317  0.00  0.00    +0.000 A 
ATOM     19  C   UNL     1      -0.234   9.771  22.368  0.00  0.00    +0.000 A 
ENDBRANCH   4  14
BRANCH  12  20
ATOM     20  C   UNL     1       3.262   4.198  18.710  0.00  0.00    +0.000 A 
ATOM     21  C   UNL     1       2.564   3.291  17.899  0.00  0.00    +0.000 A 
ATOM     22  C   UNL     1       2.875   1.931  17.933  0.00  0.00    +0.000 A 
ATOM     23  C   UNL     1       3.867   1.464  18.794  0.00  0.00    +0.000 A 
ATOM     24  C   UNL     1       4.557   2.356  19.614  0.00  0.00    +0.000 A 
ATOM     25  C   UNL     1       4.266   3.720  19.564  0.00  0.00    +0.000 A 
ENDBRANCH  12  20
BRANCH   1  26
ATOM     26  N   UNL     1       1.549   5.497  20.644  0.00  0.00    +0.000 N 
ATOM     27  H   UNL     1       1.527   6.025  21.511  0.00  0.00    +0.000 HD
ATOM     28  H   UNL     1       2.044   4.618  20.796  0.00  0.00    +0.000 HD
ENDBRANCH   1  26
TORSDOF 3
ENDMDL
MODEL 5
REMARK VINA RESULT:      -7.4      2.468      8.047
REMARK  Name = 
REMARK  3 active torsions:
REMARK  status: ('A' for Active; 'I' for Inactive)
REMARK    1  A    between atoms: N_1  and  C_2
REMARK    2  A    between atoms: C_5  and  C_6
REMARK    3  A    between atoms: N_19  and  C_20
REMARK                            x       y       z     vdW  Elec       q    Type
REMARK                         _______ _______ _______ _____ _____    ______ ____
ROOT
ATOM      1  C   UNL     1       2.108   6.179  19.568  0.00  0.00    +0.000 A 
ATOM      2  C   UNL     1       1.847   7.500  19.471  0.00  0.00    +0.000 A 
ATOM      3  N   UNL     1       1.059   8.267  20.293  0.00  0.00    +0.000 N 
ATOM      4  C   UNL     1       0.848   9.615  20.134  0.00  0.00    +0.000 A 
ATOM      5  N   UNL     1       1.332  10.314  19.155  0.00  0.00    +0.000 NA
ATOM      6  C   UNL     1       2.106   9.670  18.212  0.00  0.00    +0.000 A 
ATOM      7  O   UNL     1       2.506  10.261  17.213  0.00  0.00    +0.000 OA
ATOM      8  C   UNL     1       2.501   8.194  18.347  0.00  0.00    +0.000 A 
ATOM      9  N   UNL     1       3.334   7.669  17.517  0.00  0.00    +0.000 NA
ATOM     10  C   UNL     1       3.632   6.339  17.639  0.00  0.00    +0.000 A 
ATOM     11  O   UNL     1       4.431   5.834  16.852  0.00  0.00    +0.000 OA
ATOM     12  N   UNL     1       2.984   5.585  18.652  0.00  0.00    +0.000 N 
ATOM     13  H   UNL     1       0.501   7.753  20.964  0.00  0.00    +0.000 HD
ENDROOT
BRANCH   4  14
ATOM     14  C   UNL     1       0.020  10.337  21.150  0.00  0.00    +0.000 A 
ATOM     15  C   UNL     1      -0.253   9.751  22.392  0.00  0.00    +0.000 A 
ATOM     16  C   UNL     1      -1.001  10.450  23.342  0.00  0.00    +0.000 A 
ATOM     17  C   UNL     1      -1.477  11.730  23.052  0.00  0.00    +0.000 A 
ATOM     18  C   UNL     1      -1.202  12.316  21.817  0.00  0.00    +0.000 A 
ATOM     19  C   UNL     1      -0.450  11.624  20.867  0.00  0.00    +0.000 A 
ENDBRANCH   4  14
BRANCH  12  20
ATOM     20  C   UNL     1       3.295   4.185  18.708  0.00  0.00    +0.000 A 
ATOM     21  C   UNL     1       4.277   3.714  19.592  0.00  0.00    +0.000 A 
ATOM     22  C   UNL     1       4.559   2.349  19.670  0.00  0.00    +0.000 A 
ATOM     23  C   UNL     1       3.881   1.449  18.848  0.00  0.00    +0.000 A 
ATOM     24  C   UNL     1       2.914   1.910  17.956  0.00  0.00    +0.000 A 
ATOM     25  C   UNL     1       2.612   3.271  17.893  0.00  0.00    +0.000 A 
ENDBRANCH  12  20
BRANCH   1  26
ATOM     26  N   UNL     1       1.551   5.457  20.632  0.00  0.00    +0.000 N 
ATOM     27  H   UNL     1       0.832   5.969  21.135  0.00  0.00    +0.000 HD
ATOM     28  H   UNL     1       2.272   5.155  21.287  0.00  0.00    +0.000 HD
ENDBRANCH   1  26
TORSDOF 3
ENDMDL
MODEL 6
REMARK VINA RESULT:      -7.2      2.772      4.419
REMARK  Name = 
REMARK  3 active torsions:
REMARK  status: ('A' for Active; 'I' for Inactive)
REMARK    1  A    between atoms: N_1  and  C_2
REMARK    2  A    between atoms: C_5  and  C_6
REMARK    3  A    between atoms: N_19  and  C_20
REMARK                            x       y       z     vdW  Elec       q    Type
REMARK                         _______ _______ _______ _____ _____    ______ ____
ROOT
ATOM      1  C   UNL     1      -0.044  10.246  21.526  0.00  0.00    +0.000 A 
ATOM      2  C   UNL     1       0.646   9.537  20.606  0.00  0.00    +0.000 A 
ATOM      3  N   UNL     1       1.163   8.272  20.731  0.00  0.00    +0.000 N 
ATOM      4  C   UNL     1       1.850   7.610  19.742  0.00  0.00    +0.000 A 
ATOM      5  N   UNL     1       2.133   8.125  18.587  0.00  0.00    +0.000 NA
ATOM      6  C   UNL     1       1.723   9.417  18.329  0.00  0.00    +0.000 A 
ATOM      7  O   UNL     1       2.049   9.988  17.292  0.00  0.00    +0.000 OA
ATOM      8  C   UNL     1       0.854  10.211  19.312  0.00  0.00    +0.000 A 
ATOM      9  N   UNL     1       0.382  11.361  18.975  0.00  0.00    +0.000 NA
ATOM     10  C   UNL     1      -0.353  12.064  19.891  0.00  0.00    +0.000 A 
ATOM     11  O   UNL     1      -0.811  13.159  19.572  0.00  0.00    +0.000 OA
ATOM     12  N   UNL     1      -0.534  11.513  21.187  0.00  0.00    +0.000 N 
ATOM     13  H   UNL     1       1.145   7.884  21.667  0.00  0.00    +0.000 HD
ENDROOT
BRANCH   4  14
ATOM     14  C   UNL     1       2.296   6.205  19.996  0.00  0.00    +0.000 A 
ATOM     15  C   UNL     1       1.549   5.359  20.824  0.00  0.00    +0.000 A 
ATOM     16  C   UNL     1       1.960   4.039  21.027  0.00  0.00    +0.000 A 
ATOM     17  C   UNL     1       3.117   3.566  20.403  0.00  0.00    +0.000 A 
ATOM     18  C   UNL     1       3.859   4.406  19.575  0.00  0.00    +0.000 A 
ATOM     19  C   UNL     1       3.448   5.724  19.365  0.00  0.00    +0.000 A 
ENDBRANCH   4  14
BRANCH  12  20
ATOM     20  C   UNL     1      -1.273  12.309  22.125  0.00  0.00    +0.000 A 
ATOM     21  C   UNL     1      -2.636  12.062  22.343  0.00  0.00    +0.000 A 
ATOM     22  C   UNL     1      -3.348  12.816  23.278  0.00  0.00    +0.000 A 
ATOM     23  C   UNL     1      -2.710  13.836  23.982  0.00  0.00    +0.000 A 
ATOM     24  C   UNL     1      -1.359  14.099  23.761  0.00  0.00    +0.000 A 
ATOM     25  C   UNL     1      -0.638  13.331  22.845  0.00  0.00    +0.000 A 
ENDBRANCH  12  20
BRANCH   1  26
ATOM     26  N   UNL     1      -0.314   9.658  22.768  0.00  0.00    +0.000 N 
ATOM     27  H   UNL     1      -1.172   9.991  23.195  0.00  0.00    +0.000 HD
ATOM     28  H   UNL     1       0.462   9.797  23.415  0.00  0.00    +0.000 HD
ENDBRANCH   1  26
TORSDOF 3
ENDMDL
MODEL 7
REMARK VINA RESULT:      -7.2      2.716      3.991
REMARK  Name = 
REMARK  3 active torsions:
REMARK  status: ('A' for Active; 'I' for Inactive)
REMARK    1  A    between atoms: N_1  and  C_2
REMARK    2  A    between atoms: C_5  and  C_6
REMARK    3  A    between atoms: N_19  and  C_20
REMARK                            x       y       z     vdW  Elec       q    Type
REMARK                         _______ _______ _______ _____ _____    ______ ____
ROOT
ATOM      1  C   UNL     1       0.472   9.745  21.369  0.00  0.00    +0.000 A 
ATOM      2  C   UNL     1       1.089   8.926  20.492  0.00  0.00    +0.000 A 
ATOM      3  N   UNL     1       1.550   7.651  20.709  0.00  0.00    +0.000 N 
ATOM      4  C   UNL     1       2.164   6.872  19.758  0.00  0.00    +0.000 A 
ATOM      5  N   UNL     1       2.423   7.270  18.553  0.00  0.00    +0.000 NA
ATOM      6  C   UNL     1       2.065   8.554  18.196  0.00  0.00    +0.000 A 
ATOM      7  O   UNL     1       2.376   9.015  17.101  0.00  0.00    +0.000 OA
ATOM      8  C   UNL     1       1.277   9.474  19.136  0.00  0.00    +0.000 A 
ATOM      9  N   UNL     1       0.846  10.612  18.716  0.00  0.00    +0.000 NA
ATOM     10  C   UNL     1       0.183  11.428  19.593  0.00  0.00    +0.000 A 
ATOM     11  O   UNL     1      -0.235  12.514  19.195  0.00  0.00    +0.000 OA
ATOM     12  N   UNL     1       0.029  11.001  20.938  0.00  0.00    +0.000 N 
ATOM     13  H   UNL     1       1.552   7.348  21.676  0.00  0.00    +0.000 HD
ENDROOT
BRANCH   4  14
ATOM     14  C   UNL     1       2.552   5.473  20.119  0.00  0.00    +0.000 A 
ATOM     15  C   UNL     1       1.809   4.746  21.057  0.00  0.00    +0.000 A 
ATOM     16  C   UNL     1       2.165   3.430  21.360  0.00  0.00    +0.000 A 
ATOM     17  C   UNL     1       3.262   2.841  20.728  0.00  0.00    +0.000 A 
ATOM     18  C   UNL     1       4.000   3.562  19.791  0.00  0.00    +0.000 A 
ATOM     19  C   UNL     1       3.644   4.875  19.480  0.00  0.00    +0.000 A 
ENDBRANCH   4  14
BRANCH  12  20
ATOM     20  C   UNL     1      -0.632  11.913  21.828  0.00  0.00    +0.000 A 
ATOM     21  C   UNL     1      -0.055  13.158  22.121  0.00  0.00    +0.000 A 
ATOM     22  C   UNL     1      -0.712  14.058  22.961  0.00  0.00    +0.000 A 
ATOM     23  C   UNL     1      -1.935  13.712  23.534  0.00  0.00    +0.000 A 
ATOM     24  C   UNL     1      -2.509  12.472  23.260  0.00  0.00    +0.000 A 
ATOM     25  C   UNL     1      -1.867  11.579  22.400  0.00  0.00    +0.000 A 
ENDBRANCH  12  20
BRANCH   1  26
ATOM     26  N   UNL     1       0.225   9.282  22.667  0.00  0.00    +0.000 N 
ATOM     27  H   UNL     1       0.509   9.936  23.390  0.00  0.00    +0.000 HD
ATOM     28  H   UNL     1       0.680   8.383  22.828  0.00  0.00    +0.000 HD
ENDBRANCH   1  26
TORSDOF 3
ENDMDL
MODEL 8
REMARK VINA RESULT:      -7.1      2.789      4.393
REMARK  Name = 
REMARK  3 active torsions:
REMARK  status: ('A' for Active; 'I' for Inactive)
REMARK    1  A    between atoms: N_1  and  C_2
REMARK    2  A    between atoms: C_5  and  C_6
REMARK    3  A    between atoms: N_19  and  C_20
REMARK                            x       y       z     vdW  Elec       q    Type
REMARK                         _______ _______ _______ _____ _____    ______ ____
ROOT
ATOM      1  C   UNL     1      -0.007  10.275  21.579  0.00  0.00    +0.000 A 
ATOM      2  C   UNL     1       0.674   9.576  20.645  0.00  0.00    +0.000 A 
ATOM      3  N   UNL     1       1.183   8.305  20.747  0.00  0.00    +0.000 N 
ATOM      4  C   UNL     1       1.860   7.655  19.745  0.00  0.00    +0.000 A 
ATOM      5  N   UNL     1       2.142   8.187  18.597  0.00  0.00    +0.000 NA
ATOM      6  C   UNL     1       1.741   9.486  18.362  0.00  0.00    +0.000 A 
ATOM      7  O   UNL     1       2.067  10.071  17.333  0.00  0.00    +0.000 OA
ATOM      8  C   UNL     1       0.883  10.270  19.361  0.00  0.00    +0.000 A 
ATOM      9  N   UNL     1       0.417  11.429  19.046  0.00  0.00    +0.000 NA
ATOM     10  C   UNL     1      -0.309  12.122  19.976  0.00  0.00    +0.000 A 
ATOM     11  O   UNL     1      -0.760  13.226  19.677  0.00  0.00    +0.000 OA
ATOM     12  N   UNL     1      -0.488  11.551  21.263  0.00  0.00    +0.000 N 
ATOM     13  H   UNL     1       1.165   7.903  21.677  0.00  0.00    +0.000 HD
ENDROOT
BRANCH   4  14
ATOM     14  C   UNL     1       2.296   6.242  19.973  0.00  0.00    +0.000 A 
ATOM     15  C   UNL     1       3.473   5.756  19.391  0.00  0.00    +0.000 A 
ATOM     16  C   UNL     1       3.884   4.445  19.639  0.00  0.00    +0.000 A 
ATOM     17  C   UNL     1       3.119   3.618  20.464  0.00  0.00    +0.000 A 
ATOM     18  C   UNL     1       1.949   4.101  21.047  0.00  0.00    +0.000 A 
ATOM     19  C   UNL     1       1.538   5.414  20.808  0.00  0.00    +0.000 A 
ENDBRANCH   4  14
BRANCH  12  20
ATOM     20  C   UNL     1      -1.217  12.338  22.217  0.00  0.00    +0.000 A 
ATOM     21  C   UNL     1      -0.601  13.424  22.855  0.00  0.00    +0.000 A 
ATOM     22  C   UNL     1      -1.318  14.210  23.759  0.00  0.00    +0.000 A 
ATOM     23  C   UNL     1      -2.645  13.901  24.051  0.00  0.00    +0.000 A 
ATOM     24  C   UNL     1      -3.262  12.814  23.433  0.00  0.00    +0.000 A 
ATOM     25  C   UNL     1      -2.556  12.041  22.510  0.00  0.00    +0.000 A 
ENDBRANCH  12  20
BRANCH   1  26
ATOM     26  N   UNL     1      -0.275   9.669  22.812  0.00  0.00    +0.000 N 
ATOM     27  H   UNL     1      -1.265   9.621  23.032  0.00  0.00    +0.000 HD
ATOM     28  H   UNL     1       0.216  10.145  23.569  0.00  0.00    +0.000 HD
ENDBRANCH   1  26
TORSDOF 3
ENDMDL
MODEL 9
REMARK VINA RESULT:      -7.1      2.701      4.042
REMARK  Name = 
REMARK  3 active torsions:
REMARK  status: ('A' for Active; 'I' for Inactive)
REMARK    1  A    between atoms: N_1  and  C_2
REMARK    2  A    between atoms: C_5  and  C_6
REMARK    3  A    between atoms: N_19  and  C_20
REMARK                            x       y       z     vdW  Elec       q    Type
REMARK                         _______ _______ _______ _____ _____    ______ ____
ROOT
ATOM      1  C   UNL     1       0.628   9.570  21.258  0.00  0.00    +0.000 A 
ATOM      2  C   UNL     1       1.233   8.723  20.398  0.00  0.00    +0.000 A 
ATOM      3  N   UNL     1       1.661   7.441  20.638  0.00  0.00    +0.000 N 
ATOM      4  C   UNL     1       2.264   6.634  19.705  0.00  0.00    +0.000 A 
ATOM      5  N   UNL     1       2.542   7.007  18.495  0.00  0.00    +0.000 NA
ATOM      6  C   UNL     1       2.218   8.294  18.117  0.00  0.00    +0.000 A 
ATOM      7  O   UNL     1       2.548   8.731  17.018  0.00  0.00    +0.000 OA
ATOM      8  C   UNL     1       1.444   9.246  19.037  0.00  0.00    +0.000 A 
ATOM      9  N   UNL     1       1.044  10.388  18.597  0.00  0.00    +0.000 NA
ATOM     10  C   UNL     1       0.394  11.233  19.455  0.00  0.00    +0.000 A 
ATOM     11  O   UNL     1       0.005  12.322  19.038  0.00  0.00    +0.000 OA
ATOM     12  N   UNL     1       0.219  10.830  20.805  0.00  0.00    +0.000 N 
ATOM     13  H   UNL     1       1.648   7.152  21.609  0.00  0.00    +0.000 HD
ENDROOT
BRANCH   4  14
ATOM     14  C   UNL     1       2.615   5.231  20.089  0.00  0.00    +0.000 A 
ATOM     15  C   UNL     1       3.664   4.559  19.450  0.00  0.00    +0.000 A 
ATOM     16  C   UNL     1       4.001   3.261  19.840  0.00  0.00    +0.000 A 
ATOM     17  C   UNL     1       3.290   2.635  20.866  0.00  0.00    +0.000 A 
ATOM     18  C   UNL     1       2.249   3.304  21.506  0.00  0.00    +0.000 A 
ATOM     19  C   UNL     1       1.913   4.604  21.123  0.00  0.00    +0.000 A 
ENDBRANCH   4  14
BRANCH  12  20
ATOM     20  C   UNL     1      -0.427  11.770  21.676  0.00  0.00    +0.000 A 
ATOM     21  C   UNL     1      -1.596  11.410  22.363  0.00  0.00    +0.000 A 
ATOM     22  C   UNL     1      -2.207  12.313  23.234  0.00  0.00    +0.000 A 
ATOM     23  C   UNL     1      -1.671  13.588  23.406  0.00  0.00    +0.000 A 
ATOM     24  C   UNL     1      -0.518  13.960  22.716  0.00  0.00    +0.000 A 
ATOM     25  C   UNL     1       0.110  13.052  21.863  0.00  0.00    +0.000 A 
ENDBRANCH  12  20
BRANCH   1  26
ATOM     26  N   UNL     1       0.360   9.132  22.561  0.00  0.00    +0.000 N 
ATOM     27  H   UNL     1       1.190   8.840  23.068  0.00  0.00    +0.000 HD
ATOM     28  H   UNL     1      -0.320   8.372  22.560  0.00  0.00    +0.000 HD
ENDBRANCH   1  26
TORSDOF 3
ENDMDL
