MODEL 1
REMARK VINA RESULT:      -3.9      0.000      0.000
REMARK  Name = 
REMARK  8 active torsions:
REMARK  status: ('A' for Active; 'I' for Inactive)
REMARK    1  A    between atoms: C_1  and  N_2
REMARK    2  A    between atoms: N_2  and  C_3
REMARK    3  A    between atoms: N_2  and  C_4
REMARK    4  A    between atoms: C_4  and  C_5
REMARK    5  A    between atoms: C_5  and  N_6
REMARK    6  A    between atoms: N_6  and  C_7
REMARK    7  A    between atoms: C_7  and  C_8
REMARK    8  A    between atoms: C_8  and  N_9
REMARK                            x       y       z     vdW  Elec       q    Type
REMARK                         _______ _______ _______ _____ _____    ______ ____
ROOT
ATOM      1  N   UNL     1       5.804   3.949  18.704  0.00  0.00    +0.000 NA
ATOM      2  H   UNL     1       5.786   4.030  17.688  0.00  0.00    +0.000 HD
ENDROOT
BRANCH   1   3
ATOM      3  C   UNL     1       4.529   3.373  19.159  0.00  0.00    +0.000 C 
BRANCH   3   4
ATOM      4  C   UNL     1       3.499   4.426  19.639  0.00  0.00    +0.000 C 
BRANCH   4   6
ATOM      5  C   UNL     1       2.491   6.043  18.188  0.00  0.00    +0.000 C 
ATOM      6  N   UNL     1       2.375   4.684  18.719  0.00  0.00    +0.000 NA
ATOM      7  C   UNL     1       2.329   3.723  17.616  0.00  0.00    +0.000 C 
ENDBRANCH   4   6
ENDBRANCH   3   4
ENDBRANCH   1   3
BRANCH   1   8
ATOM      8  C   UNL     1       6.032   5.295  19.254  0.00  0.00    +0.000 C 
BRANCH   8   9
ATOM      9  C   UNL     1       7.527   5.667  19.241  0.00  0.00    +0.000 C 
BRANCH   9  10
ATOM     10  N   UNL     1       8.175   5.396  20.531  0.00  0.00    +0.000 NA
ATOM     11  H   UNL     1       8.807   4.608  20.403  0.00  0.00    +0.000 HD
ATOM     12  H   UNL     1       7.466   5.071  21.187  0.00  0.00    +0.000 HD
ENDBRANCH   9  10
ENDBRANCH   8   9
ENDBRANCH   1   8
TORSDOF 6
ENDMDL
MODEL 2
REMARK VINA RESULT:      -3.9      0.856      1.403
REMARK  Name = 
REMARK  8 active torsions:
REMARK  status: ('A' for Active; 'I' for Inactive)
REMARK    1  A    between atoms: C_1  and  N_2
REMARK    2  A    between atoms: N_2  and  C_3
REMARK    3  A    between atoms: N_2  and  C_4
REMARK    4  A    between atoms: C_4  and  C_5
REMARK    5  A    between atoms: C_5  and  N_6
REMARK    6  A    between atoms: N_6  and  C_7
REMARK    7  A    between atoms: C_7  and  C_8
REMARK    8  A    between atoms: C_8  and  N_9
REMARK                            x       y       z     vdW  Elec       q    Type
REMARK                         _______ _______ _______ _____ _____    ______ ____
ROOT
ATOM      1  N   UNL     1       6.100   4.079  18.931  0.00  0.00    +0.000 NA
ATOM      2  H   UNL     1       6.523   3.501  18.206  0.00  0.00    +0.000 HD
ENDROOT
BRANCH   1   3
ATOM      3  C   UNL     1       4.651   3.825  18.959  0.00  0.00    +0.000 C 
BRANCH   3   4
ATOM      4  C   UNL     1       3.915   4.239  17.660  0.00  0.00    +0.000 C 
BRANCH   4   6
ATOM      5  C   UNL     1       1.537   4.083  17.898  0.00  0.00    +0.000 C 
ATOM      6  N   UNL     1       2.671   5.008  17.850  0.00  0.00    +0.000 NA
ATOM      7  C   UNL     1       2.701   5.819  19.068  0.00  0.00    +0.000 C 
ENDBRANCH   4   6
ENDBRANCH   3   4
ENDBRANCH   1   3
BRANCH   1   8
ATOM      8  C   UNL     1       6.411   5.484  18.618  0.00  0.00    +0.000 C 
BRANCH   8   9
ATOM      9  C   UNL     1       7.805   5.885  19.137  0.00  0.00    +0.000 C 
BRANCH   9  10
ATOM     10  N   UNL     1       8.055   5.382  20.494  0.00  0.00    +0.000 NA
ATOM     11  H   UNL     1       7.330   4.701  20.713  0.00  0.00    +0.000 HD
ATOM     12  H   UNL     1       7.916   6.147  21.153  0.00  0.00    +0.000 HD
ENDBRANCH   9  10
ENDBRANCH   8   9
ENDBRANCH   1   8
TORSDOF 6
ENDMDL
MODEL 3
REMARK VINA RESULT:      -3.8      1.887      2.793
REMARK  Name = 
REMARK  8 active torsions:
REMARK  status: ('A' for Active; 'I' for Inactive)
REMARK    1  A    between atoms: C_1  and  N_2
REMARK    2  A    between atoms: N_2  and  C_3
REMARK    3  A    between atoms: N_2  and  C_4
REMARK    4  A    between atoms: C_4  and  C_5
REMARK    5  A    between atoms: C_5  and  N_6
REMARK    6  A    between atoms: N_6  and  C_7
REMARK    7  A    between atoms: C_7  and  C_8
REMARK    8  A    between atoms: C_8  and  N_9
REMARK                            x       y       z     vdW  Elec       q    Type
REMARK                         _______ _______ _______ _____ _____    ______ ____
ROOT
ATOM      1  N   UNL     1       6.288   4.082  18.582  0.00  0.00    +0.000 NA
ATOM      2  H   UNL     1       5.946   3.272  18.065  0.00  0.00    +0.000 HD
ENDROOT
BRANCH   1   3
ATOM      3  C   UNL     1       5.143   4.772  19.197  0.00  0.00    +0.000 C 
BRANCH   3   4
ATOM      4  C   UNL     1       3.863   3.905  19.291  0.00  0.00    +0.000 C 
BRANCH   4   6
ATOM      5  C   UNL     1       3.416   1.813  18.214  0.00  0.00    +0.000 C 
ATOM      6  N   UNL     1       3.432   3.266  18.033  0.00  0.00    +0.000 NA
ATOM      7  C   UNL     1       2.111   3.727  17.601  0.00  0.00    +0.000 C 
ENDBRANCH   4   6
ENDBRANCH   3   4
ENDBRANCH   1   3
BRANCH   1   8
ATOM      8  C   UNL     1       7.011   4.944  17.633  0.00  0.00    +0.000 C 
BRANCH   8   9
ATOM      9  C   UNL     1       6.975   4.369  16.204  0.00  0.00    +0.000 C 
BRANCH   9  10
ATOM     10  N   UNL     1       5.830   3.473  15.997  0.00  0.00    +0.000 NA
ATOM     11  H   UNL     1       5.970   2.649  16.579  0.00  0.00    +0.000 HD
ATOM     12  H   UNL     1       5.856   3.133  15.036  0.00  0.00    +0.000 HD
ENDBRANCH   9  10
ENDBRANCH   8   9
ENDBRANCH   1   8
TORSDOF 6
ENDMDL
MODEL 4
REMARK VINA RESULT:      -3.8      1.655      2.188
REMARK  Name = 
REMARK  8 active torsions:
REMARK  status: ('A' for Active; 'I' for Inactive)
REMARK    1  A    between atoms: C_1  and  N_2
REMARK    2  A    between atoms: N_2  and  C_3
REMARK    3  A    between atoms: N_2  and  C_4
REMARK    4  A    between atoms: C_4  and  C_5
REMARK    5  A    between atoms: C_5  and  N_6
REMARK    6  A    between atoms: N_6  and  C_7
REMARK    7  A    between atoms: C_7  and  C_8
REMARK    8  A    between atoms: C_8  and  N_9
REMARK                            x       y       z     vdW  Elec       q    Type
REMARK                         _______ _______ _______ _____ _____    ______ ____
ROOT
ATOM      1  N   UNL     1       5.203   3.425  18.958  0.00  0.00    +0.000 NA
ATOM      2  H   UNL     1       5.876   2.675  18.806  0.00  0.00    +0.000 HD
ENDROOT
BRANCH   1   3
ATOM      3  C   UNL     1       4.055   3.227  18.059  0.00  0.00    +0.000 C 
BRANCH   3   4
ATOM      4  C   UNL     1       2.948   4.300  18.207  0.00  0.00    +0.000 C 
BRANCH   4   6
ATOM      5  C   UNL     1       1.599   2.344  18.508  0.00  0.00    +0.000 C 
ATOM      6  N   UNL     1       1.633   3.801  18.651  0.00  0.00    +0.000 NA
ATOM      7  C   UNL     1       1.337   4.170  20.036  0.00  0.00    +0.000 C 
ENDBRANCH   4   6
ENDBRANCH   3   4
ENDBRANCH   1   3
BRANCH   1   8
ATOM      8  C   UNL     1       5.892   4.701  18.706  0.00  0.00    +0.000 C 
BRANCH   8   9
ATOM      9  C   UNL     1       6.726   4.648  17.411  0.00  0.00    +0.000 C 
BRANCH   9  10
ATOM     10  N   UNL     1       8.082   4.137  17.649  0.00  0.00    +0.000 NA
ATOM     11  H   UNL     1       8.057   3.124  17.546  0.00  0.00    +0.000 HD
ATOM     12  H   UNL     1       8.324   4.304  18.625  0.00  0.00    +0.000 HD
ENDBRANCH   9  10
ENDBRANCH   8   9
ENDBRANCH   1   8
TORSDOF 6
ENDMDL
MODEL 5
REMARK VINA RESULT:      -3.8      2.995      3.756
REMARK  Name = 
REMARK  8 active torsions:
REMARK  status: ('A' for Active; 'I' for Inactive)
REMARK    1  A    between atoms: C_1  and  N_2
REMARK    2  A    between atoms: N_2  and  C_3
REMARK    3  A    between atoms: N_2  and  C_4
REMARK    4  A    between atoms: C_4  and  C_5
REMARK    5  A    between atoms: C_5  and  N_6
REMARK    6  A    between atoms: N_6  and  C_7
REMARK    7  A    between atoms: C_7  and  C_8
REMARK    8  A    between atoms: C_8  and  N_9
REMARK                            x       y       z     vdW  Elec       q    Type
REMARK                         _______ _______ _______ _____ _____    ______ ____
ROOT
ATOM      1  N   UNL     1       2.706   1.804  18.106  0.00  0.00    +0.000 NA
ATOM      2  H   UNL     1       2.219   1.995  17.231  0.00  0.00    +0.000 HD
ENDROOT
BRANCH   1   3
ATOM      3  C   UNL     1       1.746   1.896  19.217  0.00  0.00    +0.000 C 
BRANCH   3   4
ATOM      4  C   UNL     1       0.951   3.225  19.252  0.00  0.00    +0.000 C 
BRANCH   4   6
ATOM      5  C   UNL     1       1.387   3.001  21.596  0.00  0.00    +0.000 C 
ATOM      6  N   UNL     1       0.929   3.921  20.552  0.00  0.00    +0.000 NA
ATOM      7  C   UNL     1       1.763   5.124  20.552  0.00  0.00    +0.000 C 
ENDBRANCH   4   6
ENDBRANCH   3   4
ENDBRANCH   1   3
BRANCH   1   8
ATOM      8  C   UNL     1       3.797   2.784  18.232  0.00  0.00    +0.000 C 
BRANCH   8   9
ATOM      9  C   UNL     1       4.418   2.761  19.642  0.00  0.00    +0.000 C 
BRANCH   9  10
ATOM     10  N   UNL     1       5.131   1.506  19.912  0.00  0.00    +0.000 NA
ATOM     11  H   UNL     1       5.917   1.720  20.524  0.00  0.00    +0.000 HD
ATOM     12  H   UNL     1       5.549   1.179  19.041  0.00  0.00    +0.000 HD
ENDBRANCH   9  10
ENDBRANCH   8   9
ENDBRANCH   1   8
TORSDOF 6
ENDMDL
MODEL 6
REMARK VINA RESULT:      -3.8      2.798      4.494
REMARK  Name = 
REMARK  8 active torsions:
REMARK  status: ('A' for Active; 'I' for Inactive)
REMARK    1  A    between atoms: C_1  and  N_2
REMARK    2  A    between atoms: N_2  and  C_3
REMARK    3  A    between atoms: N_2  and  C_4
REMARK    4  A    between atoms: C_4  and  C_5
REMARK    5  A    between atoms: C_5  and  N_6
REMARK    6  A    between atoms: N_6  and  C_7
REMARK    7  A    between atoms: C_7  and  C_8
REMARK    8  A    between atoms: C_8  and  N_9
REMARK                            x       y       z     vdW  Elec       q    Type
REMARK                         _______ _______ _______ _____ _____    ______ ____
ROOT
ATOM      1  N   UNL     1       5.690   3.603  18.771  0.00  0.00    +0.000 NA
ATOM      2  H   UNL     1       5.709   3.664  19.789  0.00  0.00    +0.000 HD
ENDROOT
BRANCH   1   3
ATOM      3  C   UNL     1       6.257   4.838  18.208  0.00  0.00    +0.000 C 
BRANCH   3   4
ATOM      4  C   UNL     1       7.069   4.621  16.907  0.00  0.00    +0.000 C 
BRANCH   4   6
ATOM      5  C   UNL     1       6.868   4.798  14.527  0.00  0.00    +0.000 C 
ATOM      6  N   UNL     1       6.740   5.527  15.791  0.00  0.00    +0.000 NA
ATOM      7  C   UNL     1       5.391   6.083  15.907  0.00  0.00    +0.000 C 
ENDBRANCH   4   6
ENDBRANCH   3   4
ENDBRANCH   1   3
BRANCH   1   8
ATOM      8  C   UNL     1       4.291   3.398  18.363  0.00  0.00    +0.000 C 
BRANCH   8   9
ATOM      9  C   UNL     1       3.688   2.140  19.016  0.00  0.00    +0.000 C 
BRANCH   9  10
ATOM     10  N   UNL     1       4.208   0.903  18.418  0.00  0.00    +0.000 NA
ATOM     11  H   UNL     1       5.056   1.138  17.904  0.00  0.00    +0.000 HD
ATOM     12  H   UNL     1       3.545   0.582  17.713  0.00  0.00    +0.000 HD
ENDBRANCH   9  10
ENDBRANCH   8   9
ENDBRANCH   1   8
TORSDOF 6
ENDMDL
MODEL 7
REMARK VINA RESULT:      -3.6      1.455      1.884
REMARK  Name = 
REMARK  8 active torsions:
REMARK  status: ('A' for Active; 'I' for Inactive)
REMARK    1  A    between atoms: C_1  and  N_2
REMARK    2  A    between atoms: N_2  and  C_3
REMARK    3  A    between atoms: N_2  and  C_4
REMARK    4  A    between atoms: C_4  and  C_5
REMARK    5  A    between atoms: C_5  and  N_6
REMARK    6  A    between atoms: N_6  and  C_7
REMARK    7  A    between atoms: C_7  and  C_8
REMARK    8  A    between atoms: C_8  and  N_9
REMARK                            x       y       z     vdW  Elec       q    Type
REMARK                         _______ _______ _______ _____ _____    ______ ____
ROOT
ATOM      1  N   UNL     1       5.790   3.872  18.906  0.00  0.00    +0.000 NA
ATOM      2  H   UNL     1       6.023   3.515  17.980  0.00  0.00    +0.000 HD
ENDROOT
BRANCH   1   3
ATOM      3  C   UNL     1       4.328   3.854  19.071  0.00  0.00    +0.000 C 
BRANCH   3   4
ATOM      4  C   UNL     1       3.558   4.560  17.928  0.00  0.00    +0.000 C 
BRANCH   4   6
ATOM      5  C   UNL     1       2.465   5.596  19.790  0.00  0.00    +0.000 C 
ATOM      6  N   UNL     1       2.673   5.665  18.342  0.00  0.00    +0.000 NA
ATOM      7  C   UNL     1       3.215   6.976  17.982  0.00  0.00    +0.000 C 
ENDBRANCH   4   6
ENDBRANCH   3   4
ENDBRANCH   1   3
BRANCH   1   8
ATOM      8  C   UNL     1       6.344   5.231  19.012  0.00  0.00    +0.000 C 
BRANCH   8   9
ATOM      9  C   UNL     1       7.449   5.476  17.967  0.00  0.00    +0.000 C 
BRANCH   9  10
ATOM     10  N   UNL     1       7.941   4.224  17.378  0.00  0.00    +0.000 NA
ATOM     11  H   UNL     1       7.150   3.755  16.937  0.00  0.00    +0.000 HD
ATOM     12  H   UNL     1       8.234   3.605  18.133  0.00  0.00    +0.000 HD
ENDBRANCH   9  10
ENDBRANCH   8   9
ENDBRANCH   1   8
TORSDOF 6
ENDMDL
MODEL 8
REMARK VINA RESULT:      -3.6      2.338      2.712
REMARK  Name = 
REMARK  8 active torsions:
REMARK  status: ('A' for Active; 'I' for Inactive)
REMARK    1  A    between atoms: C_1  and  N_2
REMARK    2  A    between atoms: N_2  and  C_3
REMARK    3  A    between atoms: N_2  and  C_4
REMARK    4  A    between atoms: C_4  and  C_5
REMARK    5  A    between atoms: C_5  and  N_6
REMARK    6  A    between atoms: N_6  and  C_7
REMARK    7  A    between atoms: C_7  and  C_8
REMARK    8  A    between atoms: C_8  and  N_9
REMARK                            x       y       z     vdW  Elec       q    Type
REMARK                         _______ _______ _______ _____ _____    ______ ____
ROOT
ATOM      1  N   UNL     1       7.629   5.005  16.548  0.00  0.00    +0.000 NA
ATOM      2  H   UNL     1       7.674   6.022  16.504  0.00  0.00    +0.000 HD
ENDROOT
BRANCH   1   3
ATOM      3  C   UNL     1       6.406   4.551  15.868  0.00  0.00    +0.000 C 
BRANCH   3   4
ATOM      4  C   UNL     1       5.226   4.255  16.828  0.00  0.00    +0.000 C 
BRANCH   4   6
ATOM      5  C   UNL     1       4.038   5.532  18.469  0.00  0.00    +0.000 C 
ATOM      6  N   UNL     1       4.279   5.367  17.034  0.00  0.00    +0.000 NA
ATOM      7  C   UNL     1       4.766   6.624  16.465  0.00  0.00    +0.000 C 
ENDBRANCH   4   6
ENDBRANCH   3   4
ENDBRANCH   1   3
BRANCH   1   8
ATOM      8  C   UNL     1       7.650   4.619  17.968  0.00  0.00    +0.000 C 
BRANCH   8   9
ATOM      9  C   UNL     1       7.854   5.841  18.884  0.00  0.00    +0.000 C 
BRANCH   9  10
ATOM     10  N   UNL     1       7.955   5.460  20.299  0.00  0.00    +0.000 NA
ATOM     11  H   UNL     1       7.936   4.443  20.350  0.00  0.00    +0.000 HD
ATOM     12  H   UNL     1       7.110   5.770  20.778  0.00  0.00    +0.000 HD
ENDBRANCH   9  10
ENDBRANCH   8   9
ENDBRANCH   1   8
TORSDOF 6
ENDMDL
MODEL 9
REMARK VINA RESULT:      -3.6      1.864      2.292
REMARK  Name = 
REMARK  8 active torsions:
REMARK  status: ('A' for Active; 'I' for Inactive)
REMARK    1  A    between atoms: C_1  and  N_2
REMARK    2  A    between atoms: N_2  and  C_3
REMARK    3  A    between atoms: N_2  and  C_4
REMARK    4  A    between atoms: C_4  and  C_5
REMARK    5  A    between atoms: C_5  and  N_6
REMARK    6  A    between atoms: N_6  and  C_7
REMARK    7  A    between atoms: C_7  and  C_8
REMARK    8  A    between atoms: C_8  and  N_9
REMARK                            x       y       z     vdW  Elec       q    Type
REMARK                         _______ _______ _______ _____ _____    ______ ____
ROOT
ATOM      1  N   UNL     1       6.268   3.975  18.602  0.00  0.00    +0.000 NA
ATOM      2  H   UNL     1       5.882   3.226  18.029  0.00  0.00    +0.000 HD
ENDROOT
BRANCH   1   3
ATOM      3  C   UNL     1       5.165   4.810  19.103  0.00  0.00    +0.000 C 
BRANCH   3   4
ATOM      4  C   UNL     1       3.818   4.055  19.240  0.00  0.00    +0.000 C 
BRANCH   4   6
ATOM      5  C   UNL     1       3.081   2.161  17.974  0.00  0.00    +0.000 C 
ATOM      6  N   UNL     1       3.200   3.620  17.974  0.00  0.00    +0.000 NA
ATOM      7  C   UNL     1       1.883   4.224  17.763  0.00  0.00    +0.000 C 
ENDBRANCH   4   6
ENDBRANCH   3   4
ENDBRANCH   1   3
BRANCH   1   8
ATOM      8  C   UNL     1       7.206   4.740  17.765  0.00  0.00    +0.000 C 
BRANCH   8   9
ATOM      9  C   UNL     1       6.678   6.157  17.471  0.00  0.00    +0.000 C 
BRANCH   9  10
ATOM     10  N   UNL     1       7.602   6.929  16.631  0.00  0.00    +0.000 NA
ATOM     11  H   UNL     1       8.440   7.117  17.180  0.00  0.00    +0.000 HD
ATOM     12  H   UNL     1       7.188   7.842  16.448  0.00  0.00    +0.000 HD
ENDBRANCH   9  10
ENDBRANCH   8   9
ENDBRANCH   1   8
TORSDOF 6
ENDMDL
