MODEL 1
REMARK VINA RESULT:      -8.2      0.000      0.000
REMARK  Name = 
REMARK  9 active torsions:
REMARK  status: ('A' for Active; 'I' for Inactive)
REMARK    1  A    between atoms: C_1  and  N_2
REMARK    2  A    between atoms: N_2  and  C_3
REMARK    3  A    between atoms: C_3  and  C_4
REMARK    4  A    between atoms: C_5  and  C_6
REMARK    5  A    between atoms: C_9  and  C_10
REMARK    6  A    between atoms: C_12  and  C_13
REMARK    7  A    between atoms: C_14  and  O_15
REMARK    8  A    between atoms: C_24  and  O_25
REMARK    9  A    between atoms: C_32  and  C_34
REMARK                            x       y       z     vdW  Elec       q    Type
REMARK                         _______ _______ _______ _____ _____    ______ ____
ROOT
ATOM      1  C   UNL     1      10.504  14.047  20.457  0.00  0.00    +0.000 C 
ATOM      2  C   UNL     1      11.402  14.977  19.585  0.00  0.00    +0.000 C 
ATOM      3  C   UNL     1      10.617  15.828  18.577  0.00  0.00    +0.000 C 
ATOM      4  C   UNL     1      10.261  14.940  17.353  0.00  0.00    +0.000 C 
ATOM      5  C   UNL     1      11.333  17.085  18.017  0.00  0.00    +0.000 C 
ATOM      6  C   UNL     1      10.160  17.926  17.453  0.00  0.00    +0.000 C 
ATOM      7  C   UNL     1       8.906  17.478  18.237  0.00  0.00    +0.000 C 
ATOM      8  C   UNL     1       9.480  16.585  19.332  0.00  0.00    +0.000 C 
ATOM      9  C   UNL     1       8.531  15.716  20.154  0.00  0.00    +0.000 C 
ATOM     10  C   UNL     1       7.450  16.458  20.949  0.00  0.00    +0.000 C 
ATOM     11  C   UNL     1       6.455  15.441  21.537  0.00  0.00    +0.000 C 
ATOM     12  C   UNL     1       7.094  14.242  22.202  0.00  0.00    +0.000 A 
ATOM     13  C   UNL     1       6.276  13.336  22.907  0.00  0.00    +0.000 A 
ATOM     14  C   UNL     1       6.828  12.211  23.517  0.00  0.00    +0.000 A 
ATOM     15  C   UNL     1       8.192  11.994  23.484  0.00  0.00    +0.000 A 
ATOM     16  C   UNL     1       9.010  12.887  22.792  0.00  0.00    +0.000 A 
ATOM     17  C   UNL     1       8.469  13.980  22.081  0.00  0.00    +0.000 A 
ATOM     18  C   UNL     1       9.352  14.841  21.165  0.00  0.00    +0.000 C 
ENDROOT
BRANCH   1  22
ATOM     19  C   UNL     1       8.962  10.364  18.771  0.00  0.00    +0.000 A 
ATOM     20  C   UNL     1       9.949  10.323  19.755  0.00  0.00    +0.000 A 
ATOM     21  C   UNL     1      10.491  11.513  20.256  0.00  0.00    +0.000 A 
ATOM     22  C   UNL     1      10.026  12.750  19.793  0.00  0.00    +0.000 A 
ATOM     23  C   UNL     1       9.022  12.728  18.810  0.00  0.00    +0.000 A 
ATOM     24  C   UNL     1       8.501  11.565  18.285  0.00  0.00    +0.000 A 
BRANCH  19  26
ATOM     25  C   UNL     1       7.871   8.223  17.760  0.00  0.00    +0.000 C 
ATOM     26  C   UNL     1       8.409   9.184  18.214  0.00  0.00    +0.000 C 
BRANCH  25  27
ATOM     27  C   UNL     1       7.142   7.191  17.038  0.00  0.00    +0.000 C 
BRANCH  27  29
ATOM     28  C   UNL     1       7.857   5.618  18.818  0.00  0.00    +0.000 C 
ATOM     29  N   UNL     1       6.777   6.165  18.003  0.00  0.00    +0.000 N 
ATOM     30  C   UNL     1       5.528   5.548  18.085  0.00  0.00    +0.000 C 
ATOM     31  O   UNL     1       5.282   4.754  18.991  0.00  0.00    +0.000 OA
BRANCH  30  32
ATOM     32  C   UNL     1       4.503   5.920  17.015  0.00  0.00    +0.000 C 
ATOM     33 CL   UNL     1       3.547   7.339  17.494  0.00  0.00    +0.000 Cl
ENDBRANCH  30  32
ENDBRANCH  27  29
ENDBRANCH  25  27
ENDBRANCH  19  26
ENDBRANCH   1  22
BRANCH   5  34
ATOM     34  O   UNL     1      12.333  16.826  17.051  0.00  0.00    +0.000 OA
ATOM     35  H   UNL     1      11.975  17.010  16.167  0.00  0.00    +0.000 HD
ENDBRANCH   5  34
BRANCH  14  36
ATOM     36  O   UNL     1       6.059  11.290  24.166  0.00  0.00    +0.000 OA
ATOM     37  H   UNL     1       5.134  11.418  23.905  0.00  0.00    +0.000 HD
ENDBRANCH  14  36
TORSDOF 7
ENDMDL
MODEL 2
REMARK VINA RESULT:      -7.9      6.766      9.872
REMARK  Name = 
REMARK  9 active torsions:
REMARK  status: ('A' for Active; 'I' for Inactive)
REMARK    1  A    between atoms: C_1  and  N_2
REMARK    2  A    between atoms: N_2  and  C_3
REMARK    3  A    between atoms: C_3  and  C_4
REMARK    4  A    between atoms: C_5  and  C_6
REMARK    5  A    between atoms: C_9  and  C_10
REMARK    6  A    between atoms: C_12  and  C_13
REMARK    7  A    between atoms: C_14  and  O_15
REMARK    8  A    between atoms: C_24  and  O_25
REMARK    9  A    between atoms: C_32  and  C_34
REMARK                            x       y       z     vdW  Elec       q    Type
REMARK                         _______ _______ _______ _____ _____    ______ ____
ROOT
ATOM      1  C   UNL     1      -1.501  12.991  20.302  0.00  0.00    +0.000 C 
ATOM      2  C   UNL     1      -2.856  13.036  21.072  0.00  0.00    +0.000 C 
ATOM      3  C   UNL     1      -2.700  13.173  22.593  0.00  0.00    +0.000 C 
ATOM      4  C   UNL     1      -2.355  11.779  23.181  0.00  0.00    +0.000 C 
ATOM      5  C   UNL     1      -3.935  13.689  23.377  0.00  0.00    +0.000 C 
ATOM      6  C   UNL     1      -3.319  14.151  24.723  0.00  0.00    +0.000 C 
ATOM      7  C   UNL     1      -1.839  14.473  24.419  0.00  0.00    +0.000 C 
ATOM      8  C   UNL     1      -1.768  14.387  22.897  0.00  0.00    +0.000 C 
ATOM      9  C   UNL     1      -0.401  14.366  22.218  0.00  0.00    +0.000 C 
ATOM     10  C   UNL     1       0.496  15.586  22.462  0.00  0.00    +0.000 C 
ATOM     11  C   UNL     1       1.902  15.311  21.897  0.00  0.00    +0.000 C 
ATOM     12  C   UNL     1       1.921  14.713  20.509  0.00  0.00    +0.000 A 
ATOM     13  C   UNL     1       3.155  14.572  19.843  0.00  0.00    +0.000 A 
ATOM     14  C   UNL     1       3.212  14.008  18.569  0.00  0.00    +0.000 A 
ATOM     15  C   UNL     1       2.054  13.627  17.919  0.00  0.00    +0.000 A 
ATOM     16  C   UNL     1       0.828  13.766  18.568  0.00  0.00    +0.000 A 
ATOM     17  C   UNL     1       0.748  14.241  19.896  0.00  0.00    +0.000 A 
ATOM     18  C   UNL     1      -0.580  14.207  20.667  0.00  0.00    +0.000 C 
ENDROOT
BRANCH   1  22
ATOM     19  C   UNL     1       0.782   9.309  20.172  0.00  0.00    +0.000 A 
ATOM     20  C   UNL     1      -0.159   9.584  19.180  0.00  0.00    +0.000 A 
ATOM     21  C   UNL     1      -0.940  10.744  19.255  0.00  0.00    +0.000 A 
ATOM     22  C   UNL     1      -0.761  11.648  20.309  0.00  0.00    +0.000 A 
ATOM     23  C   UNL     1       0.210  11.323  21.271  0.00  0.00    +0.000 A 
ATOM     24  C   UNL     1       0.964  10.171  21.228  0.00  0.00    +0.000 A 
BRANCH  19  26
ATOM     25  C   UNL     1       2.199   7.122  20.203  0.00  0.00    +0.000 C 
ATOM     26  C   UNL     1       1.571   8.132  20.151  0.00  0.00    +0.000 C 
BRANCH  25  27
ATOM     27  C   UNL     1       2.764   5.781  20.240  0.00  0.00    +0.000 C 
BRANCH  27  29
ATOM     28  C   UNL     1       3.030   5.784  17.774  0.00  0.00    +0.000 C 
ATOM     29  N   UNL     1       2.466   5.152  18.962  0.00  0.00    +0.000 N 
ATOM     30  C   UNL     1       1.553   4.115  18.771  0.00  0.00    +0.000 C 
ATOM     31  O   UNL     1       1.431   3.585  17.668  0.00  0.00    +0.000 OA
BRANCH  30  32
ATOM     32  C   UNL     1       0.743   3.676  19.989  0.00  0.00    +0.000 C 
ATOM     33 CL   UNL     1       1.633   2.491  20.972  0.00  0.00    +0.000 Cl
ENDBRANCH  30  32
ENDBRANCH  27  29
ENDBRANCH  25  27
ENDBRANCH  19  26
ENDBRANCH   1  22
BRANCH   5  34
ATOM     34  O   UNL     1      -4.975  12.747  23.548  0.00  0.00    +0.000 OA
ATOM     35  H   UNL     1      -4.842  12.010  22.929  0.00  0.00    +0.000 HD
ENDBRANCH   5  34
BRANCH  14  36
ATOM     36  O   UNL     1       4.394  13.813  17.918  0.00  0.00    +0.000 OA
ATOM     37  H   UNL     1       4.764  12.960  18.193  0.00  0.00    +0.000 HD
ENDBRANCH  14  36
TORSDOF 7
ENDMDL
MODEL 3
REMARK VINA RESULT:      -7.9      6.719      9.843
REMARK  Name = 
REMARK  9 active torsions:
REMARK  status: ('A' for Active; 'I' for Inactive)
REMARK    1  A    between atoms: C_1  and  N_2
REMARK    2  A    between atoms: N_2  and  C_3
REMARK    3  A    between atoms: C_3  and  C_4
REMARK    4  A    between atoms: C_5  and  C_6
REMARK    5  A    between atoms: C_9  and  C_10
REMARK    6  A    between atoms: C_12  and  C_13
REMARK    7  A    between atoms: C_14  and  O_15
REMARK    8  A    between atoms: C_24  and  O_25
REMARK    9  A    between atoms: C_32  and  C_34
REMARK                            x       y       z     vdW  Elec       q    Type
REMARK                         _______ _______ _______ _____ _____    ______ ____
ROOT
ATOM      1  C   UNL     1      -1.504  12.987  20.314  0.00  0.00    +0.000 C 
ATOM      2  C   UNL     1      -2.860  13.031  21.082  0.00  0.00    +0.000 C 
ATOM      3  C   UNL     1      -2.707  13.174  22.602  0.00  0.00    +0.000 C 
ATOM      4  C   UNL     1      -2.360  11.782  23.195  0.00  0.00    +0.000 C 
ATOM      5  C   UNL     1      -3.944  13.691  23.383  0.00  0.00    +0.000 C 
ATOM      6  C   UNL     1      -3.330  14.158  24.728  0.00  0.00    +0.000 C 
ATOM      7  C   UNL     1      -1.850  14.481  24.425  0.00  0.00    +0.000 C 
ATOM      8  C   UNL     1      -1.777  14.391  22.903  0.00  0.00    +0.000 C 
ATOM      9  C   UNL     1      -0.409  14.370  22.227  0.00  0.00    +0.000 C 
ATOM     10  C   UNL     1       0.486  15.591  22.468  0.00  0.00    +0.000 C 
ATOM     11  C   UNL     1       1.893  15.318  21.906  0.00  0.00    +0.000 C 
ATOM     12  C   UNL     1       1.914  14.714  20.520  0.00  0.00    +0.000 A 
ATOM     13  C   UNL     1       3.150  14.573  19.856  0.00  0.00    +0.000 A 
ATOM     14  C   UNL     1       3.210  14.006  18.584  0.00  0.00    +0.000 A 
ATOM     15  C   UNL     1       2.053  13.621  17.933  0.00  0.00    +0.000 A 
ATOM     16  C   UNL     1       0.826  13.760  18.580  0.00  0.00    +0.000 A 
ATOM     17  C   UNL     1       0.743  14.239  19.906  0.00  0.00    +0.000 A 
ATOM     18  C   UNL     1      -0.585  14.205  20.676  0.00  0.00    +0.000 C 
ENDROOT
BRANCH   1  22
ATOM     19  C   UNL     1       0.790   9.311  20.207  0.00  0.00    +0.000 A 
ATOM     20  C   UNL     1      -0.115   9.600  19.186  0.00  0.00    +0.000 A 
ATOM     21  C   UNL     1      -0.901  10.758  19.252  0.00  0.00    +0.000 A 
ATOM     22  C   UNL     1      -0.762  11.645  20.326  0.00  0.00    +0.000 A 
ATOM     23  C   UNL     1       0.174  11.306  21.317  0.00  0.00    +0.000 A 
ATOM     24  C   UNL     1       0.932  10.156  21.283  0.00  0.00    +0.000 A 
BRANCH  19  26
ATOM     25  C   UNL     1       2.189   7.113  20.142  0.00  0.00    +0.000 C 
ATOM     26  C   UNL     1       1.582   8.135  20.196  0.00  0.00    +0.000 C 
BRANCH  25  27
ATOM     27  C   UNL     1       2.951   5.908  19.851  0.00  0.00    +0.000 C 
BRANCH  27  29
ATOM     28  C   UNL     1       1.071   4.395  20.426  0.00  0.00    +0.000 C 
ATOM     29  N   UNL     1       2.002   4.891  19.419  0.00  0.00    +0.000 N 
ATOM     30  C   UNL     1       2.031   4.239  18.186  0.00  0.00    +0.000 C 
ATOM     31  O   UNL     1       1.135   3.458  17.872  0.00  0.00    +0.000 OA
BRANCH  30  32
ATOM     32  C   UNL     1       3.206   4.557  17.264  0.00  0.00    +0.000 C 
ATOM     33 CL   UNL     1       4.545   3.411  17.495  0.00  0.00    +0.000 Cl
ENDBRANCH  30  32
ENDBRANCH  27  29
ENDBRANCH  25  27
ENDBRANCH  19  26
ENDBRANCH   1  22
BRANCH   5  34
ATOM     34  O   UNL     1      -4.982  12.747  23.556  0.00  0.00    +0.000 OA
ATOM     35  H   UNL     1      -4.593  11.869  23.700  0.00  0.00    +0.000 HD
ENDBRANCH   5  34
BRANCH  14  36
ATOM     36  O   UNL     1       4.393  13.811  17.935  0.00  0.00    +0.000 OA
ATOM     37  H   UNL     1       4.290  13.072  17.315  0.00  0.00    +0.000 HD
ENDBRANCH  14  36
TORSDOF 7
ENDMDL
MODEL 4
REMARK VINA RESULT:      -7.8      6.546      9.615
REMARK  Name = 
REMARK  9 active torsions:
REMARK  status: ('A' for Active; 'I' for Inactive)
REMARK    1  A    between atoms: C_1  and  N_2
REMARK    2  A    between atoms: N_2  and  C_3
REMARK    3  A    between atoms: C_3  and  C_4
REMARK    4  A    between atoms: C_5  and  C_6
REMARK    5  A    between atoms: C_9  and  C_10
REMARK    6  A    between atoms: C_12  and  C_13
REMARK    7  A    between atoms: C_14  and  O_15
REMARK    8  A    between atoms: C_24  and  O_25
REMARK    9  A    between atoms: C_32  and  C_34
REMARK                            x       y       z     vdW  Elec       q    Type
REMARK                         _______ _______ _______ _____ _____    ______ ____
ROOT
ATOM      1  C   UNL     1      -1.099  12.950  20.093  0.00  0.00    +0.000 C 
ATOM      2  C   UNL     1      -2.475  12.899  20.823  0.00  0.00    +0.000 C 
ATOM      3  C   UNL     1      -2.371  13.014  22.350  0.00  0.00    +0.000 C 
ATOM      4  C   UNL     1      -1.960  11.630  22.922  0.00  0.00    +0.000 C 
ATOM      5  C   UNL     1      -3.656  13.440  23.107  0.00  0.00    +0.000 C 
ATOM      6  C   UNL     1      -3.107  13.910  24.479  0.00  0.00    +0.000 C 
ATOM      7  C   UNL     1      -1.640  14.324  24.224  0.00  0.00    +0.000 C 
ATOM      8  C   UNL     1      -1.522  14.274  22.704  0.00  0.00    +0.000 C 
ATOM      9  C   UNL     1      -0.137  14.347  22.066  0.00  0.00    +0.000 C 
ATOM     10  C   UNL     1       0.679  15.612  22.359  0.00  0.00    +0.000 C 
ATOM     11  C   UNL     1       2.114  15.432  21.831  0.00  0.00    +0.000 C 
ATOM     12  C   UNL     1       2.208  14.864  20.433  0.00  0.00    +0.000 A 
ATOM     13  C   UNL     1       3.467  14.810  19.801  0.00  0.00    +0.000 A 
ATOM     14  C   UNL     1       3.593  14.277  18.519  0.00  0.00    +0.000 A 
ATOM     15  C   UNL     1       2.479  13.842  17.827  0.00  0.00    +0.000 A 
ATOM     16  C   UNL     1       1.228  13.896  18.442  0.00  0.00    +0.000 A 
ATOM     17  C   UNL     1       1.083  14.337  19.776  0.00  0.00    +0.000 A 
ATOM     18  C   UNL     1      -0.262  14.210  20.508  0.00  0.00    +0.000 C 
ENDROOT
BRANCH   1  22
ATOM     19  C   UNL     1       1.000   9.159  20.207  0.00  0.00    +0.000 A 
ATOM     20  C   UNL     1       1.053  10.022  21.303  0.00  0.00    +0.000 A 
ATOM     21  C   UNL     1       0.425  11.272  21.243  0.00  0.00    +0.000 A 
ATOM     22  C   UNL     1      -0.281  11.653  20.096  0.00  0.00    +0.000 A 
ATOM     23  C   UNL     1      -0.308  10.738  19.029  0.00  0.00    +0.000 A 
ATOM     24  C   UNL     1       0.330   9.517  19.061  0.00  0.00    +0.000 A 
BRANCH  19  26
ATOM     25  C   UNL     1       2.171   6.831  20.142  0.00  0.00    +0.000 C 
ATOM     26  C   UNL     1       1.647   7.898  20.215  0.00  0.00    +0.000 C 
BRANCH  25  27
ATOM     27  C   UNL     1       2.961   5.631  19.913  0.00  0.00    +0.000 C 
BRANCH  27  29
ATOM     28  C   UNL     1       2.144   3.920  21.513  0.00  0.00    +0.000 C 
ATOM     29  N   UNL     1       2.096   4.489  20.170  0.00  0.00    +0.000 N 
ATOM     30  C   UNL     1       1.370   3.797  19.200  0.00  0.00    +0.000 C 
ATOM     31  O   UNL     1       0.595   2.899  19.522  0.00  0.00    +0.000 OA
BRANCH  30  32
ATOM     32  C   UNL     1       1.579   4.223  17.748  0.00  0.00    +0.000 C 
ATOM     33 CL   UNL     1       3.047   3.494  17.059  0.00  0.00    +0.000 Cl
ENDBRANCH  30  32
ENDBRANCH  27  29
ENDBRANCH  25  27
ENDBRANCH  19  26
ENDBRANCH   1  22
BRANCH   5  34
ATOM     34  O   UNL     1      -4.643  12.435  23.230  0.00  0.00    +0.000 OA
ATOM     35  H   UNL     1      -4.687  11.930  22.401  0.00  0.00    +0.000 HD
ENDBRANCH   5  34
BRANCH  14  36
ATOM     36  O   UNL     1       4.803  14.165  17.899  0.00  0.00    +0.000 OA
ATOM     37  H   UNL     1       5.491  14.491  18.499  0.00  0.00    +0.000 HD
ENDBRANCH  14  36
TORSDOF 7
ENDMDL
MODEL 5
REMARK VINA RESULT:      -7.4      6.650      9.758
REMARK  Name = 
REMARK  9 active torsions:
REMARK  status: ('A' for Active; 'I' for Inactive)
REMARK    1  A    between atoms: C_1  and  N_2
REMARK    2  A    between atoms: N_2  and  C_3
REMARK    3  A    between atoms: C_3  and  C_4
REMARK    4  A    between atoms: C_5  and  C_6
REMARK    5  A    between atoms: C_9  and  C_10
REMARK    6  A    between atoms: C_12  and  C_13
REMARK    7  A    between atoms: C_14  and  O_15
REMARK    8  A    between atoms: C_24  and  O_25
REMARK    9  A    between atoms: C_32  and  C_34
REMARK                            x       y       z     vdW  Elec       q    Type
REMARK                         _______ _______ _______ _____ _____    ______ ____
ROOT
ATOM      1  C   UNL     1      -1.340  12.983  20.263  0.00  0.00    +0.000 C 
ATOM      2  C   UNL     1      -2.707  12.982  21.013  0.00  0.00    +0.000 C 
ATOM      3  C   UNL     1      -2.578  13.132  22.535  0.00  0.00    +0.000 C 
ATOM      4  C   UNL     1      -2.191  11.753  23.136  0.00  0.00    +0.000 C 
ATOM      5  C   UNL     1      -3.842  13.606  23.299  0.00  0.00    +0.000 C 
ATOM      6  C   UNL     1      -3.262  14.096  24.652  0.00  0.00    +0.000 C 
ATOM      7  C   UNL     1      -1.790  14.469  24.367  0.00  0.00    +0.000 C 
ATOM      8  C   UNL     1      -1.695  14.380  22.847  0.00  0.00    +0.000 C 
ATOM      9  C   UNL     1      -0.318  14.405  22.188  0.00  0.00    +0.000 C 
ATOM     10  C   UNL     1       0.532  15.657  22.438  0.00  0.00    +0.000 C 
ATOM     11  C   UNL     1       1.954  15.431  21.895  0.00  0.00    +0.000 C 
ATOM     12  C   UNL     1       2.014  14.828  20.510  0.00  0.00    +0.000 A 
ATOM     13  C   UNL     1       3.263  14.728  19.862  0.00  0.00    +0.000 A 
ATOM     14  C   UNL     1       3.358  14.162  18.592  0.00  0.00    +0.000 A 
ATOM     15  C   UNL     1       2.224  13.736  17.927  0.00  0.00    +0.000 A 
ATOM     16  C   UNL     1       0.984  13.834  18.558  0.00  0.00    +0.000 A 
ATOM     17  C   UNL     1       0.868  14.311  19.882  0.00  0.00    +0.000 A 
ATOM     18  C   UNL     1      -0.468  14.233  20.635  0.00  0.00    +0.000 C 
ENDROOT
BRANCH   1  22
ATOM     19  C   UNL     1       0.692   9.161  20.483  0.00  0.00    +0.000 A 
ATOM     20  C   UNL     1       0.936  10.139  21.447  0.00  0.00    +0.000 A 
ATOM     21  C   UNL     1       0.326  11.396  21.342  0.00  0.00    +0.000 A 
ATOM     22  C   UNL     1      -0.552  11.668  20.287  0.00  0.00    +0.000 A 
ATOM     23  C   UNL     1      -0.767  10.640  19.353  0.00  0.00    +0.000 A 
ATOM     24  C   UNL     1      -0.151   9.409  19.425  0.00  0.00    +0.000 A 
BRANCH  19  26
ATOM     25  C   UNL     1       1.787   6.801  20.640  0.00  0.00    +0.000 C 
ATOM     26  C   UNL     1       1.312   7.887  20.533  0.00  0.00    +0.000 C 
BRANCH  25  27
ATOM     27  C   UNL     1       2.157   5.395  20.712  0.00  0.00    +0.000 C 
BRANCH  27  29
ATOM     28  C   UNL     1       3.414   6.223  18.739  0.00  0.00    +0.000 C 
ATOM     29  N   UNL     1       2.915   5.087  19.508  0.00  0.00    +0.000 N 
ATOM     30  C   UNL     1       3.048   3.817  18.946  0.00  0.00    +0.000 C 
ATOM     31  O   UNL     1       3.782   3.636  17.977  0.00  0.00    +0.000 OA
BRANCH  30  32
ATOM     32  C   UNL     1       2.256   2.686  19.602  0.00  0.00    +0.000 C 
ATOM     33 CL   UNL     1       0.682   2.449  18.811  0.00  0.00    +0.000 Cl
ENDBRANCH  30  32
ENDBRANCH  27  29
ENDBRANCH  25  27
ENDBRANCH  19  26
ENDBRANCH   1  22
BRANCH   5  34
ATOM     34  O   UNL     1      -4.849  12.628  23.461  0.00  0.00    +0.000 OA
ATOM     35  H   UNL     1      -5.324  12.519  22.621  0.00  0.00    +0.000 HD
ENDBRANCH   5  34
BRANCH  14  36
ATOM     36  O   UNL     1       4.555  14.007  17.958  0.00  0.00    +0.000 OA
ATOM     37  H   UNL     1       4.967  13.185  18.267  0.00  0.00    +0.000 HD
ENDBRANCH  14  36
TORSDOF 7
ENDMDL
MODEL 6
REMARK VINA RESULT:      -7.3      6.295      9.407
REMARK  Name = 
REMARK  9 active torsions:
REMARK  status: ('A' for Active; 'I' for Inactive)
REMARK    1  A    between atoms: C_1  and  N_2
REMARK    2  A    between atoms: N_2  and  C_3
REMARK    3  A    between atoms: C_3  and  C_4
REMARK    4  A    between atoms: C_5  and  C_6
REMARK    5  A    between atoms: C_9  and  C_10
REMARK    6  A    between atoms: C_12  and  C_13
REMARK    7  A    between atoms: C_14  and  O_15
REMARK    8  A    between atoms: C_24  and  O_25
REMARK    9  A    between atoms: C_32  and  C_34
REMARK                            x       y       z     vdW  Elec       q    Type
REMARK                         _______ _______ _______ _____ _____    ______ ____
ROOT
ATOM      1  C   UNL     1      -0.943  13.089  19.900  0.00  0.00    +0.000 C 
ATOM      2  C   UNL     1      -2.335  13.025  20.599  0.00  0.00    +0.000 C 
ATOM      3  C   UNL     1      -2.261  13.059  22.131  0.00  0.00    +0.000 C 
ATOM      4  C   UNL     1      -1.885  11.641  22.639  0.00  0.00    +0.000 C 
ATOM      5  C   UNL     1      -3.555  13.468  22.883  0.00  0.00    +0.000 C 
ATOM      6  C   UNL     1      -3.027  13.857  24.288  0.00  0.00    +0.000 C 
ATOM      7  C   UNL     1      -1.549  14.259  24.086  0.00  0.00    +0.000 C 
ATOM      8  C   UNL     1      -1.399  14.285  22.567  0.00  0.00    +0.000 C 
ATOM      9  C   UNL     1      -0.000  14.367  21.962  0.00  0.00    +0.000 C 
ATOM     10  C   UNL     1       0.830  15.600  22.337  0.00  0.00    +0.000 C 
ATOM     11  C   UNL     1       2.273  15.423  21.829  0.00  0.00    +0.000 C 
ATOM     12  C   UNL     1       2.386  14.926  20.406  0.00  0.00    +0.000 A 
ATOM     13  C   UNL     1       3.657  14.883  19.798  0.00  0.00    +0.000 A 
ATOM     14  C   UNL     1       3.802  14.414  18.493  0.00  0.00    +0.000 A 
ATOM     15  C   UNL     1       2.696  14.035  17.757  0.00  0.00    +0.000 A 
ATOM     16  C   UNL     1       1.433  14.078  18.348  0.00  0.00    +0.000 A 
ATOM     17  C   UNL     1       1.267  14.453  19.700  0.00  0.00    +0.000 A 
ATOM     18  C   UNL     1      -0.094  14.311  20.397  0.00  0.00    +0.000 C 
ENDROOT
BRANCH   1  22
ATOM     19  C   UNL     1       1.094   9.263  19.868  0.00  0.00    +0.000 A 
ATOM     20  C   UNL     1       1.162  10.083  20.995  0.00  0.00    +0.000 A 
ATOM     21  C   UNL     1       0.555  11.345  20.983  0.00  0.00    +0.000 A 
ATOM     22  C   UNL     1      -0.146  11.779  19.853  0.00  0.00    +0.000 A 
ATOM     23  C   UNL     1      -0.190  10.906  18.752  0.00  0.00    +0.000 A 
ATOM     24  C   UNL     1       0.428   9.675  18.737  0.00  0.00    +0.000 A 
BRANCH  19  26
ATOM     25  C   UNL     1       2.256   6.930  19.872  0.00  0.00    +0.000 C 
ATOM     26  C   UNL     1       1.720   7.992  19.826  0.00  0.00    +0.000 C 
BRANCH  25  27
ATOM     27  C   UNL     1       2.727   5.564  20.047  0.00  0.00    +0.000 C 
BRANCH  27  29
ATOM     28  C   UNL     1       1.814   4.524  17.988  0.00  0.00    +0.000 C 
ATOM     29  N   UNL     1       2.975   5.020  18.720  0.00  0.00    +0.000 N 
ATOM     30  C   UNL     1       4.236   4.776  18.176  0.00  0.00    +0.000 C 
ATOM     31  O   UNL     1       4.352   4.397  17.012  0.00  0.00    +0.000 OA
BRANCH  30  32
ATOM     32  C   UNL     1       5.439   5.017  19.086  0.00  0.00    +0.000 C 
ATOM     33 CL   UNL     1       6.967   4.940  18.181  0.00  0.00    +0.000 Cl
ENDBRANCH  30  32
ENDBRANCH  27  29
ENDBRANCH  25  27
ENDBRANCH  19  26
ENDBRANCH   1  22
BRANCH   5  34
ATOM     34  O   UNL     1      -4.560  12.475  22.934  0.00  0.00    +0.000 OA
ATOM     35  H   UNL     1      -4.325  11.754  22.328  0.00  0.00    +0.000 HD
ENDBRANCH   5  34
BRANCH  14  36
ATOM     36  O   UNL     1       5.022  14.313  17.892  0.00  0.00    +0.000 OA
ATOM     37  H   UNL     1       5.630  14.940  18.315  0.00  0.00    +0.000 HD
ENDBRANCH  14  36
TORSDOF 7
ENDMDL
MODEL 7
REMARK VINA RESULT:      -7.3      1.241      1.659
REMARK  Name = 
REMARK  9 active torsions:
REMARK  status: ('A' for Active; 'I' for Inactive)
REMARK    1  A    between atoms: C_1  and  N_2
REMARK    2  A    between atoms: N_2  and  C_3
REMARK    3  A    between atoms: C_3  and  C_4
REMARK    4  A    between atoms: C_5  and  C_6
REMARK    5  A    between atoms: C_9  and  C_10
REMARK    6  A    between atoms: C_12  and  C_13
REMARK    7  A    between atoms: C_14  and  O_15
REMARK    8  A    between atoms: C_24  and  O_25
REMARK    9  A    between atoms: C_32  and  C_34
REMARK                            x       y       z     vdW  Elec       q    Type
REMARK                         _______ _______ _______ _____ _____    ______ ____
ROOT
ATOM      1  C   UNL     1      10.523  13.267  20.183  0.00  0.00    +0.000 C 
ATOM      2  C   UNL     1      11.443  14.018  19.172  0.00  0.00    +0.000 C 
ATOM      3  C   UNL     1      10.694  15.014  18.275  0.00  0.00    +0.000 C 
ATOM      4  C   UNL     1      10.001  14.223  17.133  0.00  0.00    +0.000 C 
ATOM      5  C   UNL     1      11.546  16.117  17.595  0.00  0.00    +0.000 C 
ATOM      6  C   UNL     1      10.483  17.172  17.193  0.00  0.00    +0.000 C 
ATOM      7  C   UNL     1       9.297  16.963  18.160  0.00  0.00    +0.000 C 
ATOM      8  C   UNL     1       9.846  15.965  19.176  0.00  0.00    +0.000 C 
ATOM      9  C   UNL     1       8.880  15.284  20.142  0.00  0.00    +0.000 C 
ATOM     10  C   UNL     1       8.088  16.209  21.074  0.00  0.00    +0.000 C 
ATOM     11  C   UNL     1       7.016  15.394  21.820  0.00  0.00    +0.000 C 
ATOM     12  C   UNL     1       7.506  14.089  22.404  0.00  0.00    +0.000 A 
ATOM     13  C   UNL     1       6.644  13.348  23.237  0.00  0.00    +0.000 A 
ATOM     14  C   UNL     1       7.056  12.131  23.780  0.00  0.00    +0.000 A 
ATOM     15  C   UNL     1       8.335  11.659  23.552  0.00  0.00    +0.000 A 
ATOM     16  C   UNL     1       9.196  12.387  22.732  0.00  0.00    +0.000 A 
ATOM     17  C   UNL     1       8.774  13.571  22.088  0.00  0.00    +0.000 A 
ATOM     18  C   UNL     1       9.659  14.258  21.038  0.00  0.00    +0.000 C 
ENDROOT
BRANCH   1  22
ATOM     19  C   UNL     1       8.430   9.913  18.405  0.00  0.00    +0.000 A 
ATOM     20  C   UNL     1       8.192  11.209  17.947  0.00  0.00    +0.000 A 
ATOM     21  C   UNL     1       8.822  12.298  18.561  0.00  0.00    +0.000 A 
ATOM     22  C   UNL     1       9.715  12.091  19.619  0.00  0.00    +0.000 A 
ATOM     23  C   UNL     1       9.923  10.764  20.030  0.00  0.00    +0.000 A 
ATOM     24  C   UNL     1       9.287   9.684  19.456  0.00  0.00    +0.000 A 
BRANCH  19  26
ATOM     25  C   UNL     1       7.195   7.845  17.409  0.00  0.00    +0.000 C 
ATOM     26  C   UNL     1       7.790   8.786  17.833  0.00  0.00    +0.000 C 
BRANCH  25  27
ATOM     27  C   UNL     1       6.303   6.849  16.836  0.00  0.00    +0.000 C 
BRANCH  27  29
ATOM     28  C   UNL     1       7.260   5.156  15.295  0.00  0.00    +0.000 C 
ATOM     29  N   UNL     1       7.075   5.626  16.664  0.00  0.00    +0.000 N 
ATOM     30  C   UNL     1       7.492   4.788  17.698  0.00  0.00    +0.000 C 
ATOM     31  O   UNL     1       8.218   3.823  17.466  0.00  0.00    +0.000 OA
BRANCH  30  32
ATOM     32  C   UNL     1       7.018   5.142  19.107  0.00  0.00    +0.000 C 
ATOM     33 CL   UNL     1       5.342   4.616  19.382  0.00  0.00    +0.000 Cl
ENDBRANCH  30  32
ENDBRANCH  27  29
ENDBRANCH  25  27
ENDBRANCH  19  26
ENDBRANCH   1  22
BRANCH   5  34
ATOM     34  O   UNL     1      12.325  15.684  16.497  0.00  0.00    +0.000 OA
ATOM     35  H   UNL     1      11.746  15.258  15.844  0.00  0.00    +0.000 HD
ENDBRANCH   5  34
BRANCH  14  36
ATOM     36  O   UNL     1       6.230  11.367  24.550  0.00  0.00    +0.000 OA
ATOM     37  H   UNL     1       6.546  10.450  24.530  0.00  0.00    +0.000 HD
ENDBRANCH  14  36
TORSDOF 7
ENDMDL
MODEL 8
REMARK VINA RESULT:      -7.2      1.094      1.373
REMARK  Name = 
REMARK  9 active torsions:
REMARK  status: ('A' for Active; 'I' for Inactive)
REMARK    1  A    between atoms: C_1  and  N_2
REMARK    2  A    between atoms: N_2  and  C_3
REMARK    3  A    between atoms: C_3  and  C_4
REMARK    4  A    between atoms: C_5  and  C_6
REMARK    5  A    between atoms: C_9  and  C_10
REMARK    6  A    between atoms: C_12  and  C_13
REMARK    7  A    between atoms: C_14  and  O_15
REMARK    8  A    between atoms: C_24  and  O_25
REMARK    9  A    between atoms: C_32  and  C_34
REMARK                            x       y       z     vdW  Elec       q    Type
REMARK                         _______ _______ _______ _____ _____    ______ ____
ROOT
ATOM      1  C   UNL     1      10.567  14.133  20.514  0.00  0.00    +0.000 C 
ATOM      2  C   UNL     1      11.461  14.943  19.526  0.00  0.00    +0.000 C 
ATOM      3  C   UNL     1      10.666  15.826  18.554  0.00  0.00    +0.000 C 
ATOM      4  C   UNL     1      10.121  14.932  17.408  0.00  0.00    +0.000 C 
ATOM      5  C   UNL     1      11.438  16.990  17.878  0.00  0.00    +0.000 C 
ATOM      6  C   UNL     1      10.297  17.916  17.383  0.00  0.00    +0.000 C 
ATOM      7  C   UNL     1       9.086  17.615  18.294  0.00  0.00    +0.000 C 
ATOM      8  C   UNL     1       9.676  16.713  19.373  0.00  0.00    +0.000 C 
ATOM      9  C   UNL     1       8.732  15.967  20.313  0.00  0.00    +0.000 C 
ATOM     10  C   UNL     1       7.800  16.834  21.167  0.00  0.00    +0.000 C 
ATOM     11  C   UNL     1       6.776  15.937  21.885  0.00  0.00    +0.000 C 
ATOM     12  C   UNL     1       7.363  14.708  22.543  0.00  0.00    +0.000 A 
ATOM     13  C   UNL     1       6.535  13.908  23.357  0.00  0.00    +0.000 A 
ATOM     14  C   UNL     1       7.038  12.759  23.965  0.00  0.00    +0.000 A 
ATOM     15  C   UNL     1       8.369  12.415  23.822  0.00  0.00    +0.000 A 
ATOM     16  C   UNL     1       9.196  13.202  23.021  0.00  0.00    +0.000 A 
ATOM     17  C   UNL     1       8.692  14.315  22.312  0.00  0.00    +0.000 A 
ATOM     18  C   UNL     1       9.561  15.056  21.285  0.00  0.00    +0.000 C 
ENDROOT
BRANCH   1  22
ATOM     19  C   UNL     1       8.906  10.547  18.733  0.00  0.00    +0.000 A 
ATOM     20  C   UNL     1       8.443  11.803  18.340  0.00  0.00    +0.000 A 
ATOM     21  C   UNL     1       8.936  12.959  18.958  0.00  0.00    +0.000 A 
ATOM     22  C   UNL     1       9.915  12.863  19.954  0.00  0.00    +0.000 A 
ATOM     23  C   UNL     1      10.351  11.572  20.300  0.00  0.00    +0.000 A 
ATOM     24  C   UNL     1       9.854  10.424  19.722  0.00  0.00    +0.000 A 
BRANCH  19  26
ATOM     25  C   UNL     1       7.924   8.381  17.667  0.00  0.00    +0.000 C 
ATOM     26  C   UNL     1       8.412   9.351  18.155  0.00  0.00    +0.000 C 
BRANCH  25  27
ATOM     27  C   UNL     1       7.296   7.328  16.884  0.00  0.00    +0.000 C 
BRANCH  27  29
ATOM     28  C   UNL     1       7.919   6.210  19.009  0.00  0.00    +0.000 C 
ATOM     29  N   UNL     1       7.424   6.091  17.642  0.00  0.00    +0.000 N 
ATOM     30  C   UNL     1       7.280   4.808  17.115  0.00  0.00    +0.000 C 
ATOM     31  O   UNL     1       7.317   3.823  17.850  0.00  0.00    +0.000 OA
BRANCH  30  32
ATOM     32  C   UNL     1       7.065   4.702  15.606  0.00  0.00    +0.000 C 
ATOM     33 CL   UNL     1       5.341   4.531  15.205  0.00  0.00    +0.000 Cl
ENDBRANCH  30  32
ENDBRANCH  27  29
ENDBRANCH  25  27
ENDBRANCH  19  26
ENDBRANCH   1  22
BRANCH   5  34
ATOM     34  O   UNL     1      12.317  16.605  16.840  0.00  0.00    +0.000 OA
ATOM     35  H   UNL     1      13.233  16.712  17.144  0.00  0.00    +0.000 HD
ENDBRANCH   5  34
BRANCH  14  36
ATOM     36  O   UNL     1       6.253  11.938  24.719  0.00  0.00    +0.000 OA
ATOM     37  H   UNL     1       6.132  11.101  24.245  0.00  0.00    +0.000 HD
ENDBRANCH  14  36
TORSDOF 7
ENDMDL
MODEL 9
REMARK VINA RESULT:      -7.1      6.624      9.783
REMARK  Name = 
REMARK  9 active torsions:
REMARK  status: ('A' for Active; 'I' for Inactive)
REMARK    1  A    between atoms: C_1  and  N_2
REMARK    2  A    between atoms: N_2  and  C_3
REMARK    3  A    between atoms: C_3  and  C_4
REMARK    4  A    between atoms: C_5  and  C_6
REMARK    5  A    between atoms: C_9  and  C_10
REMARK    6  A    between atoms: C_12  and  C_13
REMARK    7  A    between atoms: C_14  and  O_15
REMARK    8  A    between atoms: C_24  and  O_25
REMARK    9  A    between atoms: C_32  and  C_34
REMARK                            x       y       z     vdW  Elec       q    Type
REMARK                         _______ _______ _______ _____ _____    ______ ____
ROOT
ATOM      1  C   UNL     1      -1.555  13.385  20.526  0.00  0.00    +0.000 C 
ATOM      2  C   UNL     1      -2.886  13.487  21.331  0.00  0.00    +0.000 C 
ATOM      3  C   UNL     1      -2.685  13.623  22.846  0.00  0.00    +0.000 C 
ATOM      4  C   UNL     1      -2.380  12.218  23.432  0.00  0.00    +0.000 C 
ATOM      5  C   UNL     1      -3.877  14.192  23.660  0.00  0.00    +0.000 C 
ATOM      6  C   UNL     1      -3.208  14.633  24.987  0.00  0.00    +0.000 C 
ATOM      7  C   UNL     1      -1.725  14.894  24.643  0.00  0.00    +0.000 C 
ATOM      8  C   UNL     1      -1.698  14.800  23.120  0.00  0.00    +0.000 C 
ATOM      9  C   UNL     1      -0.350  14.721  22.406  0.00  0.00    +0.000 C 
ATOM     10  C   UNL     1       0.601  15.905  22.621  0.00  0.00    +0.000 C 
ATOM     11  C   UNL     1       1.979  15.572  22.021  0.00  0.00    +0.000 C 
ATOM     12  C   UNL     1       1.937  14.968  20.635  0.00  0.00    +0.000 A 
ATOM     13  C   UNL     1       3.147  14.775  19.938  0.00  0.00    +0.000 A 
ATOM     14  C   UNL     1       3.148  14.205  18.665  0.00  0.00    +0.000 A 
ATOM     15  C   UNL     1       1.959  13.869  18.047  0.00  0.00    +0.000 A 
ATOM     16  C   UNL     1       0.756  14.060  18.727  0.00  0.00    +0.000 A 
ATOM     17  C   UNL     1       0.730  14.542  20.055  0.00  0.00    +0.000 A 
ATOM     18  C   UNL     1      -0.576  14.564  20.861  0.00  0.00    +0.000 C 
ENDROOT
BRANCH   1  22
ATOM     19  C   UNL     1       0.569   9.611  20.344  0.00  0.00    +0.000 A 
ATOM     20  C   UNL     1      -0.423   9.902  19.406  0.00  0.00    +0.000 A 
ATOM     21  C   UNL     1      -1.151  11.095  19.501  0.00  0.00    +0.000 A 
ATOM     22  C   UNL     1      -0.869  12.013  20.519  0.00  0.00    +0.000 A 
ATOM     23  C   UNL     1       0.147  11.671  21.427  0.00  0.00    +0.000 A 
ATOM     24  C   UNL     1       0.851  10.488  21.365  0.00  0.00    +0.000 A 
BRANCH  19  26
ATOM     25  C   UNL     1       1.902   7.376  20.192  0.00  0.00    +0.000 C 
ATOM     26  C   UNL     1       1.308   8.402  20.303  0.00  0.00    +0.000 C 
BRANCH  25  27
ATOM     27  C   UNL     1       2.755   6.235  19.901  0.00  0.00    +0.000 C 
BRANCH  27  29
ATOM     28  C   UNL     1       2.520   7.124  17.597  0.00  0.00    +0.000 C 
ATOM     29  N   UNL     1       3.357   6.468  18.596  0.00  0.00    +0.000 N 
ATOM     30  C   UNL     1       4.588   5.962  18.178  0.00  0.00    +0.000 C 
ATOM     31  O   UNL     1       5.059   6.285  17.089  0.00  0.00    +0.000 OA
BRANCH  30  32
ATOM     32  C   UNL     1       5.308   5.017  19.138  0.00  0.00    +0.000 C 
ATOM     33 CL   UNL     1       6.971   5.557  19.460  0.00  0.00    +0.000 Cl
ENDBRANCH  30  32
ENDBRANCH  27  29
ENDBRANCH  25  27
ENDBRANCH  19  26
ENDBRANCH   1  22
BRANCH   5  34
ATOM     34  O   UNL     1      -4.949  13.292  23.863  0.00  0.00    +0.000 OA
ATOM     35  H   UNL     1      -5.727  13.609  23.375  0.00  0.00    +0.000 HD
ENDBRANCH   5  34
BRANCH  14  36
ATOM     36  O   UNL     1       4.303  13.961  17.984  0.00  0.00    +0.000 OA
ATOM     37  H   UNL     1       4.554  13.034  18.118  0.00  0.00    +0.000 HD
ENDBRANCH  14  36
TORSDOF 7
ENDMDL
