MODEL 1
REMARK VINA RESULT:      -8.2      0.000      0.000
REMARK  Name = 
REMARK  6 active torsions:
REMARK  status: ('A' for Active; 'I' for Inactive)
REMARK    1  A    between atoms: C_2  and  C_20
REMARK    2  A    between atoms: N_3  and  N_4
REMARK    3  A    between atoms: C_5  and  C_6
REMARK    4  A    between atoms: C_10  and  O_11
REMARK    5  A    between atoms: O_11  and  C_12
REMARK    6  A    between atoms: C_12  and  C_13
REMARK                            x       y       z     vdW  Elec       q    Type
REMARK                         _______ _______ _______ _____ _____    ______ ____
ROOT
ATOM      1  C   UNL     1       7.418   7.465  17.873  0.00  0.00    +0.000 A 
ATOM      2  C   UNL     1       8.105   6.508  18.630  0.00  0.00    +0.000 A 
ATOM      3  C   UNL     1       7.597   5.220  18.755  0.00  0.00    +0.000 A 
ATOM      4  C   UNL     1       6.392   4.887  18.138  0.00  0.00    +0.000 A 
ATOM      5  C   UNL     1       5.679   5.850  17.417  0.00  0.00    +0.000 A 
ATOM      6  C   UNL     1       6.207   7.137  17.261  0.00  0.00    +0.000 A 
ENDROOT
BRANCH   1   8
ATOM      7  N   UNL     1       8.758   9.294  18.657  0.00  0.00    +0.000 NA
ATOM      8  C   UNL     1       7.983   8.826  17.734  0.00  0.00    +0.000 C 
BRANCH   7  11
ATOM      9  O   UNL     1       9.403  10.898  20.781  0.00  0.00    +0.000 OA
ATOM     10  C   UNL     1       9.546  11.307  19.630  0.00  0.00    +0.000 C 
ATOM     11  N   UNL     1       9.253  10.549  18.500  0.00  0.00    +0.000 N 
ATOM     12  H   UNL     1       9.403  10.943  17.577  0.00  0.00    +0.000 HD
BRANCH  10  13
ATOM     13  C   UNL     1      10.048  12.634  19.344  0.00  0.00    +0.000 A 
ATOM     14  C   UNL     1      11.265  13.213  19.657  0.00  0.00    +0.000 A 
ATOM     15  C   UNL     1      11.228  14.535  19.156  0.00  0.00    +0.000 A 
ATOM     16  C   UNL     1       9.994  14.687  18.571  0.00  0.00    +0.000 A 
ATOM     17 BR   UNL     1       9.385  16.251  17.756  0.00  0.00    +0.000 Br
ATOM     18  O   UNL     1       9.270  13.539  18.671  0.00  0.00    +0.000 OA
ENDBRANCH  10  13
ENDBRANCH   7  11
ENDBRANCH   1   8
BRANCH   5  19
ATOM     19  O   UNL     1       4.462   5.632  16.827  0.00  0.00    +0.000 OA
BRANCH  19  20
ATOM     20  C   UNL     1       3.326   5.919  17.650  0.00  0.00    +0.000 C 
BRANCH  20  21
ATOM     21  C   UNL     1       2.682   4.629  18.087  0.00  0.00    +0.000 A 
ATOM     22  C   UNL     1       1.782   4.603  19.161  0.00  0.00    +0.000 A 
ATOM     23  C   UNL     1       1.159   3.410  19.530  0.00  0.00    +0.000 A 
ATOM     24  C   UNL     1       1.425   2.237  18.825  0.00  0.00    +0.000 A 
ATOM     25  C   UNL     1       2.312   2.254  17.751  0.00  0.00    +0.000 A 
ATOM     26  C   UNL     1       2.934   3.444  17.381  0.00  0.00    +0.000 A 
ENDBRANCH  20  21
ENDBRANCH  19  20
ENDBRANCH   5  19
TORSDOF 6
ENDMDL
MODEL 2
REMARK VINA RESULT:      -8.1      1.462      1.794
REMARK  Name = 
REMARK  6 active torsions:
REMARK  status: ('A' for Active; 'I' for Inactive)
REMARK    1  A    between atoms: C_2  and  C_20
REMARK    2  A    between atoms: N_3  and  N_4
REMARK    3  A    between atoms: C_5  and  C_6
REMARK    4  A    between atoms: C_10  and  O_11
REMARK    5  A    between atoms: O_11  and  C_12
REMARK    6  A    between atoms: C_12  and  C_13
REMARK                            x       y       z     vdW  Elec       q    Type
REMARK                         _______ _______ _______ _____ _____    ______ ____
ROOT
ATOM      1  C   UNL     1       6.989   6.558  17.577  0.00  0.00    +0.000 A 
ATOM      2  C   UNL     1       7.398   5.361  16.975  0.00  0.00    +0.000 A 
ATOM      3  C   UNL     1       6.457   4.506  16.411  0.00  0.00    +0.000 A 
ATOM      4  C   UNL     1       5.103   4.834  16.461  0.00  0.00    +0.000 A 
ATOM      5  C   UNL     1       4.685   6.007  17.099  0.00  0.00    +0.000 A 
ATOM      6  C   UNL     1       5.633   6.886  17.635  0.00  0.00    +0.000 A 
ENDROOT
BRANCH   1   8
ATOM      7  N   UNL     1       7.957   8.730  17.893  0.00  0.00    +0.000 NA
ATOM      8  C   UNL     1       8.005   7.465  18.156  0.00  0.00    +0.000 C 
BRANCH   7  11
ATOM      9  O   UNL     1       8.025  11.434  17.460  0.00  0.00    +0.000 OA
ATOM     10  C   UNL     1       8.882  10.896  18.160  0.00  0.00    +0.000 C 
ATOM     11  N   UNL     1       8.909   9.532  18.436  0.00  0.00    +0.000 N 
ATOM     12  H   UNL     1       9.639   9.153  19.030  0.00  0.00    +0.000 HD
BRANCH  10  13
ATOM     13  C   UNL     1       9.955  11.649  18.774  0.00  0.00    +0.000 A 
ATOM     14  C   UNL     1      10.825  11.294  19.789  0.00  0.00    +0.000 A 
ATOM     15  C   UNL     1      11.665  12.409  20.015  0.00  0.00    +0.000 A 
ATOM     16  C   UNL     1      11.258  13.379  19.130  0.00  0.00    +0.000 A 
ATOM     17 BR   UNL     1      12.007  15.082  18.994  0.00  0.00    +0.000 Br
ATOM     18  O   UNL     1      10.225  12.929  18.365  0.00  0.00    +0.000 OA
ENDBRANCH  10  13
ENDBRANCH   7  11
ENDBRANCH   1   8
BRANCH   5  19
ATOM     19  O   UNL     1       3.376   6.383  17.247  0.00  0.00    +0.000 OA
BRANCH  19  20
ATOM     20  C   UNL     1       2.930   6.515  18.601  0.00  0.00    +0.000 C 
BRANCH  20  21
ATOM     21  C   UNL     1       2.240   5.246  19.031  0.00  0.00    +0.000 A 
ATOM     22  C   UNL     1       1.987   4.989  20.385  0.00  0.00    +0.000 A 
ATOM     23  C   UNL     1       1.309   3.830  20.767  0.00  0.00    +0.000 A 
ATOM     24  C   UNL     1       0.875   2.924  19.801  0.00  0.00    +0.000 A 
ATOM     25  C   UNL     1       1.116   3.175  18.451  0.00  0.00    +0.000 A 
ATOM     26  C   UNL     1       1.791   4.331  18.067  0.00  0.00    +0.000 A 
ENDBRANCH  20  21
ENDBRANCH  19  20
ENDBRANCH   5  19
TORSDOF 6
ENDMDL
MODEL 3
REMARK VINA RESULT:      -8.1      0.894      1.097
REMARK  Name = 
REMARK  6 active torsions:
REMARK  status: ('A' for Active; 'I' for Inactive)
REMARK    1  A    between atoms: C_2  and  C_20
REMARK    2  A    between atoms: N_3  and  N_4
REMARK    3  A    between atoms: C_5  and  C_6
REMARK    4  A    between atoms: C_10  and  O_11
REMARK    5  A    between atoms: O_11  and  C_12
REMARK    6  A    between atoms: C_12  and  C_13
REMARK                            x       y       z     vdW  Elec       q    Type
REMARK                         _______ _______ _______ _____ _____    ______ ____
ROOT
ATOM      1  C   UNL     1       7.319   7.365  17.812  0.00  0.00    +0.000 A 
ATOM      2  C   UNL     1       8.005   6.561  18.732  0.00  0.00    +0.000 A 
ATOM      3  C   UNL     1       7.481   5.330  19.110  0.00  0.00    +0.000 A 
ATOM      4  C   UNL     1       6.262   4.904  18.586  0.00  0.00    +0.000 A 
ATOM      5  C   UNL     1       5.551   5.721  17.701  0.00  0.00    +0.000 A 
ATOM      6  C   UNL     1       6.093   6.945  17.292  0.00  0.00    +0.000 A 
ENDROOT
BRANCH   1   8
ATOM      7  N   UNL     1       8.473   9.414  18.290  0.00  0.00    +0.000 NA
ATOM      8  C   UNL     1       7.900   8.664  17.406  0.00  0.00    +0.000 C 
BRANCH   7  11
ATOM      9  O   UNL     1      10.163  10.898  19.853  0.00  0.00    +0.000 OA
ATOM     10  C   UNL     1       9.833  11.302  18.739  0.00  0.00    +0.000 C 
ATOM     11  N   UNL     1       8.989  10.602  17.882  0.00  0.00    +0.000 N 
ATOM     12  H   UNL     1       8.764  10.988  16.971  0.00  0.00    +0.000 HD
BRANCH  10  13
ATOM     13  C   UNL     1      10.307  12.563  18.209  0.00  0.00    +0.000 A 
ATOM     14  C   UNL     1      11.471  12.859  17.522  0.00  0.00    +0.000 A 
ATOM     15  C   UNL     1      11.443  14.247  17.253  0.00  0.00    +0.000 A 
ATOM     16  C   UNL     1      10.270  14.717  17.792  0.00  0.00    +0.000 A 
ATOM     17 BR   UNL     1       9.714  16.498  17.749  0.00  0.00    +0.000 Br
ATOM     18  O   UNL     1       9.567  13.705  18.370  0.00  0.00    +0.000 OA
ENDBRANCH  10  13
ENDBRANCH   7  11
ENDBRANCH   1   8
BRANCH   5  19
ATOM     19  O   UNL     1       4.322   5.414  17.181  0.00  0.00    +0.000 OA
BRANCH  19  20
ATOM     20  C   UNL     1       3.987   4.022  17.191  0.00  0.00    +0.000 C 
BRANCH  20  21
ATOM     21  C   UNL     1       2.870   3.780  18.174  0.00  0.00    +0.000 A 
ATOM     22  C   UNL     1       2.621   4.683  19.216  0.00  0.00    +0.000 A 
ATOM     23  C   UNL     1       1.557   4.469  20.094  0.00  0.00    +0.000 A 
ATOM     24  C   UNL     1       0.732   3.358  19.933  0.00  0.00    +0.000 A 
ATOM     25  C   UNL     1       0.967   2.459  18.895  0.00  0.00    +0.000 A 
ATOM     26  C   UNL     1       2.027   2.670  18.017  0.00  0.00    +0.000 A 
ENDBRANCH  20  21
ENDBRANCH  19  20
ENDBRANCH   5  19
TORSDOF 6
ENDMDL
MODEL 4
REMARK VINA RESULT:      -8.0      1.099      1.289
REMARK  Name = 
REMARK  6 active torsions:
REMARK  status: ('A' for Active; 'I' for Inactive)
REMARK    1  A    between atoms: C_2  and  C_20
REMARK    2  A    between atoms: N_3  and  N_4
REMARK    3  A    between atoms: C_5  and  C_6
REMARK    4  A    between atoms: C_10  and  O_11
REMARK    5  A    between atoms: O_11  and  C_12
REMARK    6  A    between atoms: C_12  and  C_13
REMARK                            x       y       z     vdW  Elec       q    Type
REMARK                         _______ _______ _______ _____ _____    ______ ____
ROOT
ATOM      1  C   UNL     1       7.433   7.541  17.854  0.00  0.00    +0.000 A 
ATOM      2  C   UNL     1       8.135   6.656  18.682  0.00  0.00    +0.000 A 
ATOM      3  C   UNL     1       7.685   5.351  18.850  0.00  0.00    +0.000 A 
ATOM      4  C   UNL     1       6.523   4.930  18.205  0.00  0.00    +0.000 A 
ATOM      5  C   UNL     1       5.793   5.822  17.412  0.00  0.00    +0.000 A 
ATOM      6  C   UNL     1       6.264   7.125  17.214  0.00  0.00    +0.000 A 
ENDROOT
BRANCH   1   8
ATOM      7  N   UNL     1       8.760   9.421  18.533  0.00  0.00    +0.000 NA
ATOM      8  C   UNL     1       7.936   8.921  17.672  0.00  0.00    +0.000 C 
BRANCH   7  11
ATOM      9  O   UNL     1       9.516  11.052  20.600  0.00  0.00    +0.000 OA
ATOM     10  C   UNL     1       9.552  11.462  19.441  0.00  0.00    +0.000 C 
ATOM     11  N   UNL     1       9.196  10.692  18.337  0.00  0.00    +0.000 N 
ATOM     12  H   UNL     1       9.258  11.089  17.405  0.00  0.00    +0.000 HD
BRANCH  10  13
ATOM     13  C   UNL     1       9.982  12.806  19.115  0.00  0.00    +0.000 A 
ATOM     14  C   UNL     1       9.808  13.541  17.956  0.00  0.00    +0.000 A 
ATOM     15  C   UNL     1      10.441  14.788  18.166  0.00  0.00    +0.000 A 
ATOM     16  C   UNL     1      10.965  14.742  19.435  0.00  0.00    +0.000 A 
ATOM     17 BR   UNL     1      11.931  16.119  20.242  0.00  0.00    +0.000 Br
ATOM     18  O   UNL     1      10.688  13.547  20.026  0.00  0.00    +0.000 OA
ENDBRANCH  10  13
ENDBRANCH   7  11
ENDBRANCH   1   8
BRANCH   5  19
ATOM     19  O   UNL     1       4.613   5.516  16.788  0.00  0.00    +0.000 OA
BRANCH  19  20
ATOM     20  C   UNL     1       4.433   4.132  16.469  0.00  0.00    +0.000 C 
BRANCH  20  21
ATOM     21  C   UNL     1       3.370   3.543  17.359  0.00  0.00    +0.000 A 
ATOM     22  C   UNL     1       2.132   4.179  17.518  0.00  0.00    +0.000 A 
ATOM     23  C   UNL     1       1.140   3.601  18.312  0.00  0.00    +0.000 A 
ATOM     24  C   UNL     1       1.375   2.383  18.947  0.00  0.00    +0.000 A 
ATOM     25  C   UNL     1       2.600   1.739  18.788  0.00  0.00    +0.000 A 
ATOM     26  C   UNL     1       3.591   2.313  17.996  0.00  0.00    +0.000 A 
ENDBRANCH  20  21
ENDBRANCH  19  20
ENDBRANCH   5  19
TORSDOF 6
ENDMDL
MODEL 5
REMARK VINA RESULT:      -7.9      1.152      1.270
REMARK  Name = 
REMARK  6 active torsions:
REMARK  status: ('A' for Active; 'I' for Inactive)
REMARK    1  A    between atoms: C_2  and  C_20
REMARK    2  A    between atoms: N_3  and  N_4
REMARK    3  A    between atoms: C_5  and  C_6
REMARK    4  A    between atoms: C_10  and  O_11
REMARK    5  A    between atoms: O_11  and  C_12
REMARK    6  A    between atoms: C_12  and  C_13
REMARK                            x       y       z     vdW  Elec       q    Type
REMARK                         _______ _______ _______ _____ _____    ______ ____
ROOT
ATOM      1  C   UNL     1       7.494   7.071  18.054  0.00  0.00    +0.000 A 
ATOM      2  C   UNL     1       7.854   5.820  18.570  0.00  0.00    +0.000 A 
ATOM      3  C   UNL     1       6.951   4.763  18.536  0.00  0.00    +0.000 A 
ATOM      4  C   UNL     1       5.678   4.956  18.001  0.00  0.00    +0.000 A 
ATOM      5  C   UNL     1       5.297   6.214  17.524  0.00  0.00    +0.000 A 
ATOM      6  C   UNL     1       6.216   7.269  17.525  0.00  0.00    +0.000 A 
ENDROOT
BRANCH   1   8
ATOM      7  N   UNL     1       8.057   9.403  18.059  0.00  0.00    +0.000 NA
ATOM      8  C   UNL     1       8.474   8.179  18.081  0.00  0.00    +0.000 C 
BRANCH   7  11
ATOM      9  O   UNL     1       9.165  10.334  20.384  0.00  0.00    +0.000 OA
ATOM     10  C   UNL     1       9.493  10.820  19.303  0.00  0.00    +0.000 C 
ATOM     11  N   UNL     1       8.985  10.394  18.079  0.00  0.00    +0.000 N 
ATOM     12  H   UNL     1       9.305  10.832  17.222  0.00  0.00    +0.000 HD
BRANCH  10  13
ATOM     13  C   UNL     1      10.459  11.894  19.206  0.00  0.00    +0.000 A 
ATOM     14  C   UNL     1      11.526  12.210  20.028  0.00  0.00    +0.000 A 
ATOM     15  C   UNL     1      12.132  13.366  19.484  0.00  0.00    +0.000 A 
ATOM     16  C   UNL     1      11.401  13.690  18.366  0.00  0.00    +0.000 A 
ATOM     17 BR   UNL     1      11.741  15.149  17.254  0.00  0.00    +0.000 Br
ATOM     18  O   UNL     1      10.386  12.800  18.181  0.00  0.00    +0.000 OA
ENDBRANCH  10  13
ENDBRANCH   7  11
ENDBRANCH   1   8
BRANCH   5  19
ATOM     19  O   UNL     1       4.053   6.512  17.035  0.00  0.00    +0.000 OA
BRANCH  19  20
ATOM     20  C   UNL     1       3.113   6.982  18.008  0.00  0.00    +0.000 C 
BRANCH  20  21
ATOM     21  C   UNL     1       2.425   5.806  18.652  0.00  0.00    +0.000 A 
ATOM     22  C   UNL     1       2.195   5.777  20.035  0.00  0.00    +0.000 A 
ATOM     23  C   UNL     1       1.519   4.702  20.614  0.00  0.00    +0.000 A 
ATOM     24  C   UNL     1       1.063   3.653  19.818  0.00  0.00    +0.000 A 
ATOM     25  C   UNL     1       1.280   3.677  18.442  0.00  0.00    +0.000 A 
ATOM     26  C   UNL     1       1.954   4.749  17.861  0.00  0.00    +0.000 A 
ENDBRANCH  20  21
ENDBRANCH  19  20
ENDBRANCH   5  19
TORSDOF 6
ENDMDL
MODEL 6
REMARK VINA RESULT:      -7.8      1.105      1.246
REMARK  Name = 
REMARK  6 active torsions:
REMARK  status: ('A' for Active; 'I' for Inactive)
REMARK    1  A    between atoms: C_2  and  C_20
REMARK    2  A    between atoms: N_3  and  N_4
REMARK    3  A    between atoms: C_5  and  C_6
REMARK    4  A    between atoms: C_10  and  O_11
REMARK    5  A    between atoms: O_11  and  C_12
REMARK    6  A    between atoms: C_12  and  C_13
REMARK                            x       y       z     vdW  Elec       q    Type
REMARK                         _______ _______ _______ _____ _____    ______ ____
ROOT
ATOM      1  C   UNL     1       7.534   7.497  17.828  0.00  0.00    +0.000 A 
ATOM      2  C   UNL     1       8.261   6.826  18.819  0.00  0.00    +0.000 A 
ATOM      3  C   UNL     1       8.005   5.486  19.086  0.00  0.00    +0.000 A 
ATOM      4  C   UNL     1       7.010   4.815  18.376  0.00  0.00    +0.000 A 
ATOM      5  C   UNL     1       6.251   5.491  17.415  0.00  0.00    +0.000 A 
ATOM      6  C   UNL     1       6.531   6.830  17.121  0.00  0.00    +0.000 A 
ENDROOT
BRANCH   1   8
ATOM      7  N   UNL     1       8.562   9.597  18.367  0.00  0.00    +0.000 NA
ATOM      8  C   UNL     1       7.832   8.919  17.543  0.00  0.00    +0.000 C 
BRANCH   7  11
ATOM      9  O   UNL     1      10.228  11.151  19.886  0.00  0.00    +0.000 OA
ATOM     10  C   UNL     1       9.661  11.627  18.904  0.00  0.00    +0.000 C 
ATOM     11  N   UNL     1       8.810  10.900  18.077  0.00  0.00    +0.000 N 
ATOM     12  H   UNL     1       8.380  11.352  17.276  0.00  0.00    +0.000 HD
BRANCH  10  13
ATOM     13  C   UNL     1       9.836  13.009  18.512  0.00  0.00    +0.000 A 
ATOM     14  C   UNL     1       8.901  14.017  18.358  0.00  0.00    +0.000 A 
ATOM     15  C   UNL     1       9.608  15.169  17.943  0.00  0.00    +0.000 A 
ATOM     16  C   UNL     1      10.929  14.799  17.866  0.00  0.00    +0.000 A 
ATOM     17 BR   UNL     1      12.324  15.924  17.347  0.00  0.00    +0.000 Br
ATOM     18  O   UNL     1      11.083  13.492  18.216  0.00  0.00    +0.000 OA
ENDBRANCH  10  13
ENDBRANCH   7  11
ENDBRANCH   1   8
BRANCH   5  19
ATOM     19  O   UNL     1       5.218   4.932  16.712  0.00  0.00    +0.000 OA
BRANCH  19  20
ATOM     20  C   UNL     1       3.909   5.347  17.117  0.00  0.00    +0.000 C 
BRANCH  20  21
ATOM     21  C   UNL     1       3.169   4.175  17.708  0.00  0.00    +0.000 A 
ATOM     22  C   UNL     1       1.840   4.305  18.134  0.00  0.00    +0.000 A 
ATOM     23  C   UNL     1       1.151   3.202  18.640  0.00  0.00    +0.000 A 
ATOM     24  C   UNL     1       1.781   1.961  18.718  0.00  0.00    +0.000 A 
ATOM     25  C   UNL     1       3.100   1.820  18.290  0.00  0.00    +0.000 A 
ATOM     26  C   UNL     1       3.789   2.919  17.784  0.00  0.00    +0.000 A 
ENDBRANCH  20  21
ENDBRANCH  19  20
ENDBRANCH   5  19
TORSDOF 6
ENDMDL
MODEL 7
REMARK VINA RESULT:      -7.8      5.894      6.729
REMARK  Name = 
REMARK  6 active torsions:
REMARK  status: ('A' for Active; 'I' for Inactive)
REMARK    1  A    between atoms: C_2  and  C_20
REMARK    2  A    between atoms: N_3  and  N_4
REMARK    3  A    between atoms: C_5  and  C_6
REMARK    4  A    between atoms: C_10  and  O_11
REMARK    5  A    between atoms: O_11  and  C_12
REMARK    6  A    between atoms: C_12  and  C_13
REMARK                            x       y       z     vdW  Elec       q    Type
REMARK                         _______ _______ _______ _____ _____    ______ ____
ROOT
ATOM      1  C   UNL     1       4.037   6.427  17.148  0.00  0.00    +0.000 A 
ATOM      2  C   UNL     1       4.941   6.717  16.118  0.00  0.00    +0.000 A 
ATOM      3  C   UNL     1       5.572   5.685  15.431  0.00  0.00    +0.000 A 
ATOM      4  C   UNL     1       5.316   4.360  15.782  0.00  0.00    +0.000 A 
ATOM      5  C   UNL     1       4.447   4.065  16.838  0.00  0.00    +0.000 A 
ATOM      6  C   UNL     1       3.785   5.101  17.507  0.00  0.00    +0.000 A 
ENDROOT
BRANCH   1   8
ATOM      7  N   UNL     1       2.537   7.275  18.817  0.00  0.00    +0.000 NA
ATOM      8  C   UNL     1       3.361   7.537  17.856  0.00  0.00    +0.000 C 
BRANCH   7  11
ATOM      9  O   UNL     1       1.279   7.014  21.236  0.00  0.00    +0.000 OA
ATOM     10  C   UNL     1       1.302   8.102  20.663  0.00  0.00    +0.000 C 
ATOM     11  N   UNL     1       1.929   8.317  19.440  0.00  0.00    +0.000 N 
ATOM     12  H   UNL     1       1.919   9.244  19.025  0.00  0.00    +0.000 HD
BRANCH  10  13
ATOM     13  C   UNL     1       0.671   9.277  21.224  0.00  0.00    +0.000 A 
ATOM     14  C   UNL     1      -0.254   9.389  22.247  0.00  0.00    +0.000 A 
ATOM     15  C   UNL     1      -0.549  10.766  22.381  0.00  0.00    +0.000 A 
ATOM     16  C   UNL     1       0.209  11.413  21.434  0.00  0.00    +0.000 A 
ATOM     17 BR   UNL     1       0.209  13.255  21.143  0.00  0.00    +0.000 Br
ATOM     18  O   UNL     1       0.960  10.522  20.729  0.00  0.00    +0.000 OA
ENDBRANCH  10  13
ENDBRANCH   7  11
ENDBRANCH   1   8
BRANCH   5  19
ATOM     19  O   UNL     1       4.180   2.801  17.290  0.00  0.00    +0.000 OA
BRANCH  19  20
ATOM     20  C   UNL     1       2.792   2.495  17.460  0.00  0.00    +0.000 C 
BRANCH  20  21
ATOM     21  C   UNL     1       2.403   2.702  18.902  0.00  0.00    +0.000 A 
ATOM     22  C   UNL     1       1.118   3.144  19.243  0.00  0.00    +0.000 A 
ATOM     23  C   UNL     1       0.757   3.291  20.583  0.00  0.00    +0.000 A 
ATOM     24  C   UNL     1       1.672   2.991  21.590  0.00  0.00    +0.000 A 
ATOM     25  C   UNL     1       2.949   2.542  21.261  0.00  0.00    +0.000 A 
ATOM     26  C   UNL     1       3.313   2.394  19.924  0.00  0.00    +0.000 A 
ENDBRANCH  20  21
ENDBRANCH  19  20
ENDBRANCH   5  19
TORSDOF 6
ENDMDL
MODEL 8
REMARK VINA RESULT:      -7.8      1.146      1.471
REMARK  Name = 
REMARK  6 active torsions:
REMARK  status: ('A' for Active; 'I' for Inactive)
REMARK    1  A    between atoms: C_2  and  C_20
REMARK    2  A    between atoms: N_3  and  N_4
REMARK    3  A    between atoms: C_5  and  C_6
REMARK    4  A    between atoms: C_10  and  O_11
REMARK    5  A    between atoms: O_11  and  C_12
REMARK    6  A    between atoms: C_12  and  C_13
REMARK                            x       y       z     vdW  Elec       q    Type
REMARK                         _______ _______ _______ _____ _____    ______ ____
ROOT
ATOM      1  C   UNL     1       7.693   7.842  17.918  0.00  0.00    +0.000 A 
ATOM      2  C   UNL     1       8.409   7.171  18.916  0.00  0.00    +0.000 A 
ATOM      3  C   UNL     1       8.110   5.848  19.221  0.00  0.00    +0.000 A 
ATOM      4  C   UNL     1       7.082   5.195  18.542  0.00  0.00    +0.000 A 
ATOM      5  C   UNL     1       6.333   5.874  17.574  0.00  0.00    +0.000 A 
ATOM      6  C   UNL     1       6.657   7.194  17.241  0.00  0.00    +0.000 A 
ENDROOT
BRANCH   1   8
ATOM      7  N   UNL     1       8.656   9.971  18.466  0.00  0.00    +0.000 NA
ATOM      8  C   UNL     1       8.037   9.245  17.593  0.00  0.00    +0.000 C 
BRANCH   7  11
ATOM      9  O   UNL     1      11.198  10.980  18.605  0.00  0.00    +0.000 OA
ATOM     10  C   UNL     1      10.266  11.696  18.243  0.00  0.00    +0.000 C 
ATOM     11  N   UNL     1       8.950  11.255  18.135  0.00  0.00    +0.000 N 
ATOM     12  H   UNL     1       8.229  11.895  17.821  0.00  0.00    +0.000 HD
BRANCH  10  13
ATOM     13  C   UNL     1      10.459  13.085  17.885  0.00  0.00    +0.000 A 
ATOM     14  C   UNL     1      11.476  13.685  17.164  0.00  0.00    +0.000 A 
ATOM     15  C   UNL     1      11.184  15.068  17.122  0.00  0.00    +0.000 A 
ATOM     16  C   UNL     1      10.012  15.232  17.820  0.00  0.00    +0.000 A 
ATOM     17 BR   UNL     1       9.159  16.867  18.105  0.00  0.00    +0.000 Br
ATOM     18  O   UNL     1       9.556  14.035  18.283  0.00  0.00    +0.000 OA
ENDBRANCH  10  13
ENDBRANCH   7  11
ENDBRANCH   1   8
BRANCH   5  19
ATOM     19  O   UNL     1       5.271   5.335  16.899  0.00  0.00    +0.000 OA
BRANCH  19  20
ATOM     20  C   UNL     1       3.982   5.688  17.410  0.00  0.00    +0.000 C 
BRANCH  20  21
ATOM     21  C   UNL     1       3.210   4.436  17.740  0.00  0.00    +0.000 A 
ATOM     22  C   UNL     1       3.849   3.189  17.786  0.00  0.00    +0.000 A 
ATOM     23  C   UNL     1       3.132   2.043  18.134  0.00  0.00    +0.000 A 
ATOM     24  C   UNL     1       1.777   2.135  18.444  0.00  0.00    +0.000 A 
ATOM     25  C   UNL     1       1.135   3.371  18.408  0.00  0.00    +0.000 A 
ATOM     26  C   UNL     1       1.848   4.516  18.062  0.00  0.00    +0.000 A 
ENDBRANCH  20  21
ENDBRANCH  19  20
ENDBRANCH   5  19
TORSDOF 6
ENDMDL
MODEL 9
REMARK VINA RESULT:      -7.7      6.126      6.795
REMARK  Name = 
REMARK  6 active torsions:
REMARK  status: ('A' for Active; 'I' for Inactive)
REMARK    1  A    between atoms: C_2  and  C_20
REMARK    2  A    between atoms: N_3  and  N_4
REMARK    3  A    between atoms: C_5  and  C_6
REMARK    4  A    between atoms: C_10  and  O_11
REMARK    5  A    between atoms: O_11  and  C_12
REMARK    6  A    between atoms: C_12  and  C_13
REMARK                            x       y       z     vdW  Elec       q    Type
REMARK                         _______ _______ _______ _____ _____    ______ ____
ROOT
ATOM      1  C   UNL     1       4.264   6.533  17.069  0.00  0.00    +0.000 A 
ATOM      2  C   UNL     1       5.002   6.655  15.885  0.00  0.00    +0.000 A 
ATOM      3  C   UNL     1       5.650   5.548  15.349  0.00  0.00    +0.000 A 
ATOM      4  C   UNL     1       5.580   4.319  16.003  0.00  0.00    +0.000 A 
ATOM      5  C   UNL     1       4.881   4.201  17.209  0.00  0.00    +0.000 A 
ATOM      6  C   UNL     1       4.198   5.305  17.731  0.00  0.00    +0.000 A 
ENDROOT
BRANCH   1   8
ATOM      7  N   UNL     1       2.376   7.588  18.108  0.00  0.00    +0.000 NA
ATOM      8  C   UNL     1       3.564   7.718  17.616  0.00  0.00    +0.000 C 
BRANCH   7  11
ATOM      9  O   UNL     1       1.451   7.748  20.681  0.00  0.00    +0.000 OA
ATOM     10  C   UNL     1       1.309   8.696  19.911  0.00  0.00    +0.000 C 
ATOM     11  N   UNL     1       1.761   8.697  18.594  0.00  0.00    +0.000 N 
ATOM     12  H   UNL     1       1.620   9.517  18.014  0.00  0.00    +0.000 HD
BRANCH  10  13
ATOM     13  C   UNL     1       0.653   9.921  20.315  0.00  0.00    +0.000 A 
ATOM     14  C   UNL     1       0.621  11.160  19.700  0.00  0.00    +0.000 A 
ATOM     15  C   UNL     1      -0.151  12.007  20.529  0.00  0.00    +0.000 A 
ATOM     16  C   UNL     1      -0.542  11.240  21.600  0.00  0.00    +0.000 A 
ATOM     17 BR   UNL     1      -1.575  11.850  23.029  0.00  0.00    +0.000 Br
ATOM     18  O   UNL     1      -0.068   9.969  21.480  0.00  0.00    +0.000 OA
ENDBRANCH  10  13
ENDBRANCH   7  11
ENDBRANCH   1   8
BRANCH   5  19
ATOM     19  O   UNL     1       4.805   3.052  17.950  0.00  0.00    +0.000 OA
BRANCH  19  20
ATOM     20  C   UNL     1       3.568   2.339  17.844  0.00  0.00    +0.000 C 
BRANCH  20  21
ATOM     21  C   UNL     1       2.748   2.564  19.088  0.00  0.00    +0.000 A 
ATOM     22  C   UNL     1       3.340   2.522  20.357  0.00  0.00    +0.000 A 
ATOM     23  C   UNL     1       2.578   2.775  21.499  0.00  0.00    +0.000 A 
ATOM     24  C   UNL     1       1.223   3.077  21.381  0.00  0.00    +0.000 A 
ATOM     25  C   UNL     1       0.627   3.129  20.122  0.00  0.00    +0.000 A 
ATOM     26  C   UNL     1       1.385   2.878  18.981  0.00  0.00    +0.000 A 
ENDBRANCH  20  21
ENDBRANCH  19  20
ENDBRANCH   5  19
TORSDOF 6
ENDMDL
