MODEL 1
REMARK VINA RESULT:      -7.2      0.000      0.000
REMARK  Name = 
REMARK  5 active torsions:
REMARK  status: ('A' for Active; 'I' for Inactive)
REMARK    1  A    between atoms: C_2  and  C_3
REMARK    2  A    between atoms: C_3  and  N_4
REMARK    3  A    between atoms: C_7  and  C_8
REMARK    4  A    between atoms: C_9  and  C_10
REMARK    5  A    between atoms: C_13  and  C_14
REMARK                            x       y       z     vdW  Elec       q    Type
REMARK                         _______ _______ _______ _____ _____    ______ ____
ROOT
ATOM      1  C   UNL     1       4.226   5.786  18.295  0.00  0.00    +0.000 C 
ATOM      2  C   UNL     1       3.216   6.043  19.149  0.00  0.00    +0.000 C 
ENDROOT
BRANCH   1   6
ATOM      3  N   UNL     1       6.487   4.357  15.745  0.00  0.00    +0.000 NA
ATOM      4  C   UNL     1       6.924   5.263  16.831  0.00  0.00    +0.000 C 
ATOM      5  C   UNL     1       6.533   4.683  18.194  0.00  0.00    +0.000 C 
ATOM      6  C   UNL     1       5.009   4.484  18.293  0.00  0.00    +0.000 C 
ATOM      7  C   UNL     1       4.565   3.587  17.117  0.00  0.00    +0.000 C 
ATOM      8  C   UNL     1       5.015   4.191  15.772  0.00  0.00    +0.000 C 
BRANCH   3   9
ATOM      9  C   UNL     1       6.916   4.859  14.423  0.00  0.00    +0.000 C 
BRANCH   9  11
ATOM     10  C   UNL     1       5.968   3.312  12.453  0.00  0.00    +0.000 C 
ATOM     11  C   UNL     1       6.387   4.012  13.340  0.00  0.00    +0.000 C 
ENDBRANCH   9  11
ENDBRANCH   3   9
ENDBRANCH   1   6
BRANCH   2  12
ATOM     12  C   UNL     1       2.440   7.313  19.128  0.00  0.00    +0.000 A 
ATOM     13  C   UNL     1       1.787   7.809  20.274  0.00  0.00    +0.000 A 
ATOM     14  C   UNL     1       1.068   9.004  20.226  0.00  0.00    +0.000 A 
ATOM     15  C   UNL     1       0.969   9.728  19.027  0.00  0.00    +0.000 A 
ATOM     16  C   UNL     1       1.620   9.238  17.882  0.00  0.00    +0.000 A 
ATOM     17  C   UNL     1       2.360   8.049  17.936  0.00  0.00    +0.000 A 
BRANCH  15  18
ATOM     18  C   UNL     1       0.180  11.010  18.949  0.00  0.00    +0.000 C 
ATOM     19  F   UNL     1      -0.458  11.291  20.145  0.00  0.00    +0.000 F 
ATOM     20  F   UNL     1       1.029  12.058  18.645  0.00  0.00    +0.000 F 
ATOM     21  F   UNL     1      -0.779  10.899  17.958  0.00  0.00    +0.000 F 
ENDBRANCH  15  18
ENDBRANCH   2  12
TORSDOF 5
ENDMDL
MODEL 2
REMARK VINA RESULT:      -7.1      0.306      1.418
REMARK  Name = 
REMARK  5 active torsions:
REMARK  status: ('A' for Active; 'I' for Inactive)
REMARK    1  A    between atoms: C_2  and  C_3
REMARK    2  A    between atoms: C_3  and  N_4
REMARK    3  A    between atoms: C_7  and  C_8
REMARK    4  A    between atoms: C_9  and  C_10
REMARK    5  A    between atoms: C_13  and  C_14
REMARK                            x       y       z     vdW  Elec       q    Type
REMARK                         _______ _______ _______ _____ _____    ______ ____
ROOT
ATOM      1  C   UNL     1       4.527   5.848  18.483  0.00  0.00    +0.000 C 
ATOM      2  C   UNL     1       3.219   5.960  18.788  0.00  0.00    +0.000 C 
ENDROOT
BRANCH   1   6
ATOM      3  N   UNL     1       6.503   4.375  15.729  0.00  0.00    +0.000 NA
ATOM      4  C   UNL     1       7.067   5.246  16.786  0.00  0.00    +0.000 C 
ATOM      5  C   UNL     1       6.772   4.659  18.169  0.00  0.00    +0.000 C 
ATOM      6  C   UNL     1       5.255   4.517  18.397  0.00  0.00    +0.000 C 
ATOM      7  C   UNL     1       4.677   3.657  17.252  0.00  0.00    +0.000 C 
ATOM      8  C   UNL     1       5.033   4.265  15.882  0.00  0.00    +0.000 C 
BRANCH   3   9
ATOM      9  C   UNL     1       6.837   4.881  14.382  0.00  0.00    +0.000 C 
BRANCH   9  11
ATOM     10  C   UNL     1       5.849   3.270  12.484  0.00  0.00    +0.000 C 
ATOM     11  C   UNL     1       6.301   3.991  13.337  0.00  0.00    +0.000 C 
ENDBRANCH   9  11
ENDBRANCH   3   9
ENDBRANCH   1   6
BRANCH   2  12
ATOM     12  C   UNL     1       2.510   7.268  18.847  0.00  0.00    +0.000 A 
ATOM     13  C   UNL     1       2.447   8.134  17.737  0.00  0.00    +0.000 A 
ATOM     14  C   UNL     1       1.774   9.353  17.819  0.00  0.00    +0.000 A 
ATOM     15  C   UNL     1       1.159   9.748  19.019  0.00  0.00    +0.000 A 
ATOM     16  C   UNL     1       1.218   8.887  20.127  0.00  0.00    +0.000 A 
ATOM     17  C   UNL     1       1.875   7.652  20.038  0.00  0.00    +0.000 A 
BRANCH  15  18
ATOM     18  C   UNL     1       0.446  11.070  19.135  0.00  0.00    +0.000 C 
ATOM     19  F   UNL     1       1.165  12.093  18.540  0.00  0.00    +0.000 F 
ATOM     20  F   UNL     1      -0.789  10.985  18.520  0.00  0.00    +0.000 F 
ATOM     21  F   UNL     1       0.267  11.380  20.471  0.00  0.00    +0.000 F 
ENDBRANCH  15  18
ENDBRANCH   2  12
TORSDOF 5
ENDMDL
MODEL 3
REMARK VINA RESULT:      -7.1      2.065      3.761
REMARK  Name = 
REMARK  5 active torsions:
REMARK  status: ('A' for Active; 'I' for Inactive)
REMARK    1  A    between atoms: C_2  and  C_3
REMARK    2  A    between atoms: C_3  and  N_4
REMARK    3  A    between atoms: C_7  and  C_8
REMARK    4  A    between atoms: C_9  and  C_10
REMARK    5  A    between atoms: C_13  and  C_14
REMARK                            x       y       z     vdW  Elec       q    Type
REMARK                         _______ _______ _______ _____ _____    ______ ____
ROOT
ATOM      1  C   UNL     1       4.067   6.366  18.516  0.00  0.00    +0.000 C 
ATOM      2  C   UNL     1       3.172   7.110  17.838  0.00  0.00    +0.000 C 
ENDROOT
BRANCH   1   6
ATOM      3  N   UNL     1       3.903   2.692  18.155  0.00  0.00    +0.000 NA
ATOM      4  C   UNL     1       3.319   3.650  17.189  0.00  0.00    +0.000 C 
ATOM      5  C   UNL     1       4.397   4.612  16.681  0.00  0.00    +0.000 C 
ATOM      6  C   UNL     1       5.029   5.399  17.845  0.00  0.00    +0.000 C 
ATOM      7  C   UNL     1       5.576   4.382  18.870  0.00  0.00    +0.000 C 
ATOM      8  C   UNL     1       4.467   3.412  19.320  0.00  0.00    +0.000 C 
BRANCH   3   9
ATOM      9  C   UNL     1       2.899   1.706  18.606  0.00  0.00    +0.000 C 
BRANCH   9  11
ATOM     10  C   UNL     1       0.859   2.928  19.839  0.00  0.00    +0.000 C 
ATOM     11  C   UNL     1       1.776   2.371  19.290  0.00  0.00    +0.000 C 
ENDBRANCH   9  11
ENDBRANCH   3   9
ENDBRANCH   1   6
BRANCH   2  12
ATOM     12  C   UNL     1       2.249   8.071  18.504  0.00  0.00    +0.000 A 
ATOM     13  C   UNL     1       1.725   9.193  17.829  0.00  0.00    +0.000 A 
ATOM     14  C   UNL     1       0.861  10.076  18.476  0.00  0.00    +0.000 A 
ATOM     15  C   UNL     1       0.508   9.871  19.821  0.00  0.00    +0.000 A 
ATOM     16  C   UNL     1       1.027   8.754  20.496  0.00  0.00    +0.000 A 
ATOM     17  C   UNL     1       1.878   7.855  19.839  0.00  0.00    +0.000 A 
BRANCH  15  18
ATOM     18  C   UNL     1      -0.406  10.826  20.544  0.00  0.00    +0.000 C 
ATOM     19  F   UNL     1       0.231  12.019  20.841  0.00  0.00    +0.000 F 
ATOM     20  F   UNL     1      -1.507  11.100  19.754  0.00  0.00    +0.000 F 
ATOM     21  F   UNL     1      -0.829  10.249  21.728  0.00  0.00    +0.000 F 
ENDBRANCH  15  18
ENDBRANCH   2  12
TORSDOF 5
ENDMDL
MODEL 4
REMARK VINA RESULT:      -7.1      2.050      3.523
REMARK  Name = 
REMARK  5 active torsions:
REMARK  status: ('A' for Active; 'I' for Inactive)
REMARK    1  A    between atoms: C_2  and  C_3
REMARK    2  A    between atoms: C_3  and  N_4
REMARK    3  A    between atoms: C_7  and  C_8
REMARK    4  A    between atoms: C_9  and  C_10
REMARK    5  A    between atoms: C_13  and  C_14
REMARK                            x       y       z     vdW  Elec       q    Type
REMARK                         _______ _______ _______ _____ _____    ______ ____
ROOT
ATOM      1  C   UNL     1       3.928   6.350  18.478  0.00  0.00    +0.000 C 
ATOM      2  C   UNL     1       3.248   7.317  17.830  0.00  0.00    +0.000 C 
ENDROOT
BRANCH   1   6
ATOM      3  N   UNL     1       3.958   2.672  18.125  0.00  0.00    +0.000 NA
ATOM      4  C   UNL     1       3.312   3.595  17.165  0.00  0.00    +0.000 C 
ATOM      5  C   UNL     1       4.330   4.612  16.642  0.00  0.00    +0.000 C 
ATOM      6  C   UNL     1       4.932   5.436  17.797  0.00  0.00    +0.000 C 
ATOM      7  C   UNL     1       5.546   4.452  18.817  0.00  0.00    +0.000 C 
ATOM      8  C   UNL     1       4.496   3.425  19.283  0.00  0.00    +0.000 C 
BRANCH   3   9
ATOM      9  C   UNL     1       3.014   1.634  18.591  0.00  0.00    +0.000 C 
BRANCH   9  11
ATOM     10  C   UNL     1       0.818   2.753  19.639  0.00  0.00    +0.000 C 
ATOM     11  C   UNL     1       1.806   2.243  19.173  0.00  0.00    +0.000 C 
ENDBRANCH   9  11
ENDBRANCH   3   9
ENDBRANCH   1   6
BRANCH   2  12
ATOM     12  C   UNL     1       2.282   8.223  18.511  0.00  0.00    +0.000 A 
ATOM     13  C   UNL     1       1.885   8.021  19.849  0.00  0.00    +0.000 A 
ATOM     14  C   UNL     1       0.980   8.887  20.464  0.00  0.00    +0.000 A 
ATOM     15  C   UNL     1       0.435   9.969  19.753  0.00  0.00    +0.000 A 
ATOM     16  C   UNL     1       0.829  10.174  18.421  0.00  0.00    +0.000 A 
ATOM     17  C   UNL     1       1.755   9.317  17.810  0.00  0.00    +0.000 A 
BRANCH  15  18
ATOM     18  C   UNL     1      -0.560  10.903  20.392  0.00  0.00    +0.000 C 
ATOM     19  F   UNL     1      -0.949  10.457  21.645  0.00  0.00    +0.000 F 
ATOM     20  F   UNL     1       0.004  12.157  20.528  0.00  0.00    +0.000 F 
ATOM     21  F   UNL     1      -1.684  10.994  19.592  0.00  0.00    +0.000 F 
ENDBRANCH  15  18
ENDBRANCH   2  12
TORSDOF 5
ENDMDL
MODEL 5
REMARK VINA RESULT:      -7.1      1.767      2.525
REMARK  Name = 
REMARK  5 active torsions:
REMARK  status: ('A' for Active; 'I' for Inactive)
REMARK    1  A    between atoms: C_2  and  C_3
REMARK    2  A    between atoms: C_3  and  N_4
REMARK    3  A    between atoms: C_7  and  C_8
REMARK    4  A    between atoms: C_9  and  C_10
REMARK    5  A    between atoms: C_13  and  C_14
REMARK                            x       y       z     vdW  Elec       q    Type
REMARK                         _______ _______ _______ _____ _____    ______ ____
ROOT
ATOM      1  C   UNL     1       2.900   5.734  18.094  0.00  0.00    +0.000 C 
ATOM      2  C   UNL     1       2.567   6.442  19.191  0.00  0.00    +0.000 C 
ENDROOT
BRANCH   1   6
ATOM      3  N   UNL     1       6.320   4.337  18.027  0.00  0.00    +0.000 NA
ATOM      4  C   UNL     1       5.603   4.724  19.263  0.00  0.00    +0.000 C 
ATOM      5  C   UNL     1       4.269   3.978  19.357  0.00  0.00    +0.000 C 
ATOM      6  C   UNL     1       3.374   4.291  18.142  0.00  0.00    +0.000 C 
ATOM      7  C   UNL     1       4.163   3.938  16.863  0.00  0.00    +0.000 C 
ATOM      8  C   UNL     1       5.513   4.680  16.833  0.00  0.00    +0.000 C 
BRANCH   3   9
ATOM      9  C   UNL     1       7.644   4.988  17.949  0.00  0.00    +0.000 C 
BRANCH   9  11
ATOM     10  C   UNL     1       7.410   7.632  17.591  0.00  0.00    +0.000 C 
ATOM     11  C   UNL     1       7.507   6.441  17.752  0.00  0.00    +0.000 C 
ENDBRANCH   9  11
ENDBRANCH   3   9
ENDBRANCH   1   6
BRANCH   2  12
ATOM     12  C   UNL     1       2.082   7.849  19.131  0.00  0.00    +0.000 A 
ATOM     13  C   UNL     1       1.379   8.443  20.198  0.00  0.00    +0.000 A 
ATOM     14  C   UNL     1       0.937   9.763  20.115  0.00  0.00    +0.000 A 
ATOM     15  C   UNL     1       1.173  10.522  18.957  0.00  0.00    +0.000 A 
ATOM     16  C   UNL     1       1.875   9.935  17.892  0.00  0.00    +0.000 A 
ATOM     17  C   UNL     1       2.337   8.615  17.983  0.00  0.00    +0.000 A 
BRANCH  15  18
ATOM     18  C   UNL     1       0.686  11.944  18.840  0.00  0.00    +0.000 C 
ATOM     19  F   UNL     1      -0.543  12.012  18.206  0.00  0.00    +0.000 F 
ATOM     20  F   UNL     1       0.562  12.495  20.101  0.00  0.00    +0.000 F 
ATOM     21  F   UNL     1       1.598  12.683  18.108  0.00  0.00    +0.000 F 
ENDBRANCH  15  18
ENDBRANCH   2  12
TORSDOF 5
ENDMDL
MODEL 6
REMARK VINA RESULT:      -7.0      1.644      2.598
REMARK  Name = 
REMARK  5 active torsions:
REMARK  status: ('A' for Active; 'I' for Inactive)
REMARK    1  A    between atoms: C_2  and  C_3
REMARK    2  A    between atoms: C_3  and  N_4
REMARK    3  A    between atoms: C_7  and  C_8
REMARK    4  A    between atoms: C_9  and  C_10
REMARK    5  A    between atoms: C_13  and  C_14
REMARK                            x       y       z     vdW  Elec       q    Type
REMARK                         _______ _______ _______ _____ _____    ______ ____
ROOT
ATOM      1  C   UNL     1       2.749   5.497  18.158  0.00  0.00    +0.000 C 
ATOM      2  C   UNL     1       2.663   6.328  19.215  0.00  0.00    +0.000 C 
ENDROOT
BRANCH   1   6
ATOM      3  N   UNL     1       6.181   4.191  17.745  0.00  0.00    +0.000 NA
ATOM      4  C   UNL     1       5.617   4.658  19.032  0.00  0.00    +0.000 C 
ATOM      5  C   UNL     1       4.335   3.887  19.359  0.00  0.00    +0.000 C 
ATOM      6  C   UNL     1       3.279   4.076  18.254  0.00  0.00    +0.000 C 
ATOM      7  C   UNL     1       3.906   3.641  16.912  0.00  0.00    +0.000 C 
ATOM      8  C   UNL     1       5.213   4.414  16.646  0.00  0.00    +0.000 C 
BRANCH   3   9
ATOM      9  C   UNL     1       7.458   4.869  17.441  0.00  0.00    +0.000 C 
BRANCH   9  11
ATOM     10  C   UNL     1       7.172   7.532  17.450  0.00  0.00    +0.000 C 
ATOM     11  C   UNL     1       7.292   6.332  17.443  0.00  0.00    +0.000 C 
ENDBRANCH   9  11
ENDBRANCH   3   9
ENDBRANCH   1   6
BRANCH   2  12
ATOM     12  C   UNL     1       2.121   7.712  19.115  0.00  0.00    +0.000 A 
ATOM     13  C   UNL     1       2.244   8.479  17.938  0.00  0.00    +0.000 A 
ATOM     14  C   UNL     1       1.726   9.772  17.871  0.00  0.00    +0.000 A 
ATOM     15  C   UNL     1       1.083  10.341  18.983  0.00  0.00    +0.000 A 
ATOM     16  C   UNL     1       0.956   9.579  20.157  0.00  0.00    +0.000 A 
ATOM     17  C   UNL     1       1.459   8.272  20.217  0.00  0.00    +0.000 A 
BRANCH  15  18
ATOM     18  C   UNL     1       0.535  11.744  18.938  0.00  0.00    +0.000 C 
ATOM     19  F   UNL     1      -0.698  11.791  18.309  0.00  0.00    +0.000 F 
ATOM     20  F   UNL     1       0.391  12.226  20.225  0.00  0.00    +0.000 F 
ATOM     21  F   UNL     1       1.412  12.557  18.243  0.00  0.00    +0.000 F 
ENDBRANCH  15  18
ENDBRANCH   2  12
TORSDOF 5
ENDMDL
MODEL 7
REMARK VINA RESULT:      -7.0      2.362      4.068
REMARK  Name = 
REMARK  5 active torsions:
REMARK  status: ('A' for Active; 'I' for Inactive)
REMARK    1  A    between atoms: C_2  and  C_3
REMARK    2  A    between atoms: C_3  and  N_4
REMARK    3  A    between atoms: C_7  and  C_8
REMARK    4  A    between atoms: C_9  and  C_10
REMARK    5  A    between atoms: C_13  and  C_14
REMARK                            x       y       z     vdW  Elec       q    Type
REMARK                         _______ _______ _______ _____ _____    ______ ____
ROOT
ATOM      1  C   UNL     1       2.818   5.791  17.777  0.00  0.00    +0.000 C 
ATOM      2  C   UNL     1       3.175   7.054  18.081  0.00  0.00    +0.000 C 
ENDROOT
BRANCH   1   6
ATOM      3  N   UNL     1       4.261   2.733  19.269  0.00  0.00    +0.000 NA
ATOM      4  C   UNL     1       2.980   2.774  18.529  0.00  0.00    +0.000 C 
ATOM      5  C   UNL     1       3.197   3.345  17.124  0.00  0.00    +0.000 C 
ATOM      6  C   UNL     1       3.779   4.770  17.191  0.00  0.00    +0.000 C 
ATOM      7  C   UNL     1       5.082   4.717  18.018  0.00  0.00    +0.000 C 
ATOM      8  C   UNL     1       4.821   4.099  19.406  0.00  0.00    +0.000 C 
BRANCH   3   9
ATOM      9  C   UNL     1       4.092   2.119  20.602  0.00  0.00    +0.000 C 
BRANCH   9  11
ATOM     10  C   UNL     1       1.812   2.933  21.747  0.00  0.00    +0.000 C 
ATOM     11  C   UNL     1       2.843   2.572  21.237  0.00  0.00    +0.000 C 
ENDBRANCH   9  11
ENDBRANCH   3   9
ENDBRANCH   1   6
BRANCH   2  12
ATOM     12  C   UNL     1       2.231   8.041  18.676  0.00  0.00    +0.000 A 
ATOM     13  C   UNL     1       1.842   7.980  20.029  0.00  0.00    +0.000 A 
ATOM     14  C   UNL     1       0.957   8.919  20.561  0.00  0.00    +0.000 A 
ATOM     15  C   UNL     1       0.425   9.935  19.750  0.00  0.00    +0.000 A 
ATOM     16  C   UNL     1       0.811  10.000  18.401  0.00  0.00    +0.000 A 
ATOM     17  C   UNL     1       1.716   9.070  17.873  0.00  0.00    +0.000 A 
BRANCH  15  18
ATOM     18  C   UNL     1      -0.549  10.945  20.300  0.00  0.00    +0.000 C 
ATOM     19  F   UNL     1      -1.707  11.005  19.542  0.00  0.00    +0.000 F 
ATOM     20  F   UNL     1      -0.888  10.603  21.596  0.00  0.00    +0.000 F 
ATOM     21  F   UNL     1       0.039  12.197  20.300  0.00  0.00    +0.000 F 
ENDBRANCH  15  18
ENDBRANCH   2  12
TORSDOF 5
ENDMDL
MODEL 8
REMARK VINA RESULT:      -7.0      0.611      1.374
REMARK  Name = 
REMARK  5 active torsions:
REMARK  status: ('A' for Active; 'I' for Inactive)
REMARK    1  A    between atoms: C_2  and  C_3
REMARK    2  A    between atoms: C_3  and  N_4
REMARK    3  A    between atoms: C_7  and  C_8
REMARK    4  A    between atoms: C_9  and  C_10
REMARK    5  A    between atoms: C_13  and  C_14
REMARK                            x       y       z     vdW  Elec       q    Type
REMARK                         _______ _______ _______ _____ _____    ______ ____
ROOT
ATOM      1  C   UNL     1       3.526   5.599  18.443  0.00  0.00    +0.000 C 
ATOM      2  C   UNL     1       2.996   6.219  19.515  0.00  0.00    +0.000 C 
ENDROOT
BRANCH   1   6
ATOM      3  N   UNL     1       6.237   4.276  16.308  0.00  0.00    +0.000 NA
ATOM      4  C   UNL     1       6.456   5.128  17.499  0.00  0.00    +0.000 C 
ATOM      5  C   UNL     1       5.814   4.487  18.733  0.00  0.00    +0.000 C 
ATOM      6  C   UNL     1       4.299   4.293  18.530  0.00  0.00    +0.000 C 
ATOM      7  C   UNL     1       4.090   3.455  17.249  0.00  0.00    +0.000 C 
ATOM      8  C   UNL     1       4.788   4.118  16.045  0.00  0.00    +0.000 C 
BRANCH   3   9
ATOM      9  C   UNL     1       6.910   4.836  15.117  0.00  0.00    +0.000 C 
BRANCH   9  11
ATOM     10  C   UNL     1       6.095   3.598  12.886  0.00  0.00    +0.000 C 
ATOM     11  C   UNL     1       6.469   4.150  13.891  0.00  0.00    +0.000 C 
ENDBRANCH   9  11
ENDBRANCH   3   9
ENDBRANCH   1   6
BRANCH   2  12
ATOM     12  C   UNL     1       2.221   7.487  19.416  0.00  0.00    +0.000 A 
ATOM     13  C   UNL     1       2.130   8.214  18.212  0.00  0.00    +0.000 A 
ATOM     14  C   UNL     1       1.396   9.398  18.147  0.00  0.00    +0.000 A 
ATOM     15  C   UNL     1       0.745   9.897  19.288  0.00  0.00    +0.000 A 
ATOM     16  C   UNL     1       0.833   9.174  20.489  0.00  0.00    +0.000 A 
ATOM     17  C   UNL     1       1.553   7.974  20.549  0.00  0.00    +0.000 A 
BRANCH  15  18
ATOM     18  C   UNL     1      -0.035  11.185  19.243  0.00  0.00    +0.000 C 
ATOM     19  F   UNL     1      -1.349  10.975  18.859  0.00  0.00    +0.000 F 
ATOM     20  F   UNL     1      -0.031  11.771  20.495  0.00  0.00    +0.000 F 
ATOM     21  F   UNL     1       0.554  12.048  18.336  0.00  0.00    +0.000 F 
ENDBRANCH  15  18
ENDBRANCH   2  12
TORSDOF 5
ENDMDL
MODEL 9
REMARK VINA RESULT:      -7.0      2.389      4.175
REMARK  Name = 
REMARK  5 active torsions:
REMARK  status: ('A' for Active; 'I' for Inactive)
REMARK    1  A    between atoms: C_2  and  C_3
REMARK    2  A    between atoms: C_3  and  N_4
REMARK    3  A    between atoms: C_7  and  C_8
REMARK    4  A    between atoms: C_9  and  C_10
REMARK    5  A    between atoms: C_13  and  C_14
REMARK                            x       y       z     vdW  Elec       q    Type
REMARK                         _______ _______ _______ _____ _____    ______ ____
ROOT
ATOM      1  C   UNL     1       2.957   6.150  17.996  0.00  0.00    +0.000 C 
ATOM      2  C   UNL     1       3.020   7.489  17.859  0.00  0.00    +0.000 C 
ENDROOT
BRANCH   1   6
ATOM      3  N   UNL     1       4.349   2.912  19.108  0.00  0.00    +0.000 NA
ATOM      4  C   UNL     1       3.070   3.062  18.378  0.00  0.00    +0.000 C 
ATOM      5  C   UNL     1       3.300   3.795  17.053  0.00  0.00    +0.000 C 
ATOM      6  C   UNL     1       3.904   5.192  17.292  0.00  0.00    +0.000 C 
ATOM      7  C   UNL     1       5.203   5.019  18.108  0.00  0.00    +0.000 C 
ATOM      8  C   UNL     1       4.929   4.241  19.410  0.00  0.00    +0.000 C 
BRANCH   3   9
ATOM      9  C   UNL     1       4.167   2.143  20.357  0.00  0.00    +0.000 C 
BRANCH   9  11
ATOM     10  C   UNL     1       2.025   3.015  21.708  0.00  0.00    +0.000 C 
ATOM     11  C   UNL     1       2.985   2.614  21.099  0.00  0.00    +0.000 C 
ENDBRANCH   9  11
ENDBRANCH   3   9
ENDBRANCH   1   6
BRANCH   2  12
ATOM     12  C   UNL     1       2.101   8.420  18.571  0.00  0.00    +0.000 A 
ATOM     13  C   UNL     1       1.553   9.555  17.941  0.00  0.00    +0.000 A 
ATOM     14  C   UNL     1       0.693  10.410  18.632  0.00  0.00    +0.000 A 
ATOM     15  C   UNL     1       0.370  10.162  19.976  0.00  0.00    +0.000 A 
ATOM     16  C   UNL     1       0.914   9.030  20.607  0.00  0.00    +0.000 A 
ATOM     17  C   UNL     1       1.760   8.161  19.907  0.00  0.00    +0.000 A 
BRANCH  15  18
ATOM     18  C   UNL     1      -0.539  11.084  20.746  0.00  0.00    +0.000 C 
ATOM     19  F   UNL     1      -1.651  11.443  20.003  0.00  0.00    +0.000 F 
ATOM     20  F   UNL     1      -0.965  10.456  21.901  0.00  0.00    +0.000 F 
ATOM     21  F   UNL     1       0.152  12.235  21.082  0.00  0.00    +0.000 F 
ENDBRANCH  15  18
ENDBRANCH   2  12
TORSDOF 5
ENDMDL
