MODEL 1
REMARK VINA RESULT:      -7.0      0.000      0.000
REMARK  Name = 
REMARK  7 active torsions:
REMARK  status: ('A' for Active; 'I' for Inactive)
REMARK    1  A    between atoms: C_1  and  C_2
REMARK    2  A    between atoms: C_2  and  C_3
REMARK    3  A    between atoms: C_3  and  C_4
REMARK    4  A    between atoms: C_3  and  C_5
REMARK    5  A    between atoms: C_8  and  N_9
REMARK    6  A    between atoms: N_9  and  C_10
REMARK    7  A    between atoms: C_15  and  C_16
REMARK                            x       y       z     vdW  Elec       q    Type
REMARK                         _______ _______ _______ _____ _____    ______ ____
ROOT
ATOM      1  C   UNL     1       6.102   4.306  15.341  0.00  0.00    +0.000 A 
ATOM      2  C   UNL     1       6.994   4.708  16.344  0.00  0.00    +0.000 A 
ATOM      3  C   UNL     1       6.553   4.912  17.661  0.00  0.00    +0.000 A 
ATOM      4  C   UNL     1       5.207   4.745  17.994  0.00  0.00    +0.000 A 
ATOM      5  C   UNL     1       4.327   4.328  16.986  0.00  0.00    +0.000 A 
ATOM      6  C   UNL     1       4.757   4.131  15.676  0.00  0.00    +0.000 A 
ENDROOT
BRANCH   1   7
ATOM      7  C   UNL     1       6.600   3.989  13.942  0.00  0.00    +0.000 C 
ATOM      8  C   UNL     1       7.602   5.048  13.464  0.00  0.00    +0.000 C 
BRANCH   7  10
ATOM      9  C   UNL     1       5.672   2.793  11.867  0.00  0.00    +0.000 C 
ATOM     10  C   UNL     1       5.439   3.861  12.931  0.00  0.00    +0.000 C 
ENDBRANCH   7  10
ENDBRANCH   1   7
BRANCH   4  11
ATOM     11  N   UNL     1       4.766   4.874  19.332  0.00  0.00    +0.000 N 
ATOM     12  H   UNL     1       4.981   5.773  19.748  0.00  0.00    +0.000 HD
BRANCH  11  13
ATOM     13  C   UNL     1       3.553   4.347  19.825  0.00  0.00    +0.000 A 
ATOM     14  N   UNL     1       3.543   3.045  20.207  0.00  0.00    +0.000 NA
ATOM     15  C   UNL     1       2.435   2.538  20.779  0.00  0.00    +0.000 A 
ATOM     16  C   UNL     1       1.293   3.277  21.004  0.00  0.00    +0.000 A 
ATOM     17  C   UNL     1       1.283   4.602  20.580  0.00  0.00    +0.000 A 
ATOM     18  C   UNL     1       2.417   5.148  19.962  0.00  0.00    +0.000 A 
BRANCH  18  19
ATOM     19  C   UNL     1       2.400   6.515  19.545  0.00  0.00    +0.000 C 
ATOM     20  N   UNL     1       2.422   7.620  19.189  0.00  0.00    +0.000 NA
ENDBRANCH  18  19
ENDBRANCH  11  13
ENDBRANCH   4  11
TORSDOF 5
ENDMDL
MODEL 2
REMARK VINA RESULT:      -6.9      0.924      2.218
REMARK  Name = 
REMARK  7 active torsions:
REMARK  status: ('A' for Active; 'I' for Inactive)
REMARK    1  A    between atoms: C_1  and  C_2
REMARK    2  A    between atoms: C_2  and  C_3
REMARK    3  A    between atoms: C_3  and  C_4
REMARK    4  A    between atoms: C_3  and  C_5
REMARK    5  A    between atoms: C_8  and  N_9
REMARK    6  A    between atoms: N_9  and  C_10
REMARK    7  A    between atoms: C_15  and  C_16
REMARK                            x       y       z     vdW  Elec       q    Type
REMARK                         _______ _______ _______ _____ _____    ______ ____
ROOT
ATOM      1  C   UNL     1       6.244   4.336  15.291  0.00  0.00    +0.000 A 
ATOM      2  C   UNL     1       7.203   4.530  16.295  0.00  0.00    +0.000 A 
ATOM      3  C   UNL     1       6.817   4.770  17.623  0.00  0.00    +0.000 A 
ATOM      4  C   UNL     1       5.466   4.848  17.968  0.00  0.00    +0.000 A 
ATOM      5  C   UNL     1       4.516   4.637  16.959  0.00  0.00    +0.000 A 
ATOM      6  C   UNL     1       4.893   4.406  15.638  0.00  0.00    +0.000 A 
ENDROOT
BRANCH   1   7
ATOM      7  C   UNL     1       6.664   3.976  13.877  0.00  0.00    +0.000 C 
ATOM      8  C   UNL     1       7.539   5.079  13.268  0.00  0.00    +0.000 C 
BRANCH   7  10
ATOM      9  C   UNL     1       5.760   2.770  11.798  0.00  0.00    +0.000 C 
ATOM     10  C   UNL     1       5.448   3.698  12.967  0.00  0.00    +0.000 C 
ENDBRANCH   7  10
ENDBRANCH   1   7
BRANCH   4  11
ATOM     11  N   UNL     1       5.066   5.014  19.314  0.00  0.00    +0.000 N 
ATOM     12  H   UNL     1       5.473   5.827  19.764  0.00  0.00    +0.000 HD
BRANCH  11  13
ATOM     13  C   UNL     1       3.768   4.746  19.799  0.00  0.00    +0.000 A 
ATOM     14  N   UNL     1       2.881   5.772  19.822  0.00  0.00    +0.000 NA
ATOM     15  C   UNL     1       1.606   5.529  20.179  0.00  0.00    +0.000 A 
ATOM     16  C   UNL     1       1.143   4.278  20.528  0.00  0.00    +0.000 A 
ATOM     17  C   UNL     1       2.056   3.229  20.544  0.00  0.00    +0.000 A 
ATOM     18  C   UNL     1       3.395   3.460  20.197  0.00  0.00    +0.000 A 
BRANCH  18  19
ATOM     19  C   UNL     1       4.320   2.371  20.203  0.00  0.00    +0.000 C 
ATOM     20  N   UNL     1       5.089   1.502  20.240  0.00  0.00    +0.000 NA
ENDBRANCH  18  19
ENDBRANCH  11  13
ENDBRANCH   4  11
TORSDOF 5
ENDMDL
MODEL 3
REMARK VINA RESULT:      -6.9      0.966      2.478
REMARK  Name = 
REMARK  7 active torsions:
REMARK  status: ('A' for Active; 'I' for Inactive)
REMARK    1  A    between atoms: C_1  and  C_2
REMARK    2  A    between atoms: C_2  and  C_3
REMARK    3  A    between atoms: C_3  and  C_4
REMARK    4  A    between atoms: C_3  and  C_5
REMARK    5  A    between atoms: C_8  and  N_9
REMARK    6  A    between atoms: N_9  and  C_10
REMARK    7  A    between atoms: C_15  and  C_16
REMARK                            x       y       z     vdW  Elec       q    Type
REMARK                         _______ _______ _______ _____ _____    ______ ____
ROOT
ATOM      1  C   UNL     1       6.231   4.226  15.482  0.00  0.00    +0.000 A 
ATOM      2  C   UNL     1       4.854   4.210  15.744  0.00  0.00    +0.000 A 
ATOM      3  C   UNL     1       4.365   4.431  17.042  0.00  0.00    +0.000 A 
ATOM      4  C   UNL     1       5.245   4.643  18.106  0.00  0.00    +0.000 A 
ATOM      5  C   UNL     1       6.618   4.672  17.829  0.00  0.00    +0.000 A 
ATOM      6  C   UNL     1       7.109   4.447  16.545  0.00  0.00    +0.000 A 
ENDROOT
BRANCH   1   7
ATOM      7  C   UNL     1       6.751   4.088  14.062  0.00  0.00    +0.000 C 
ATOM      8  C   UNL     1       7.534   5.339  13.642  0.00  0.00    +0.000 C 
BRANCH   7  10
ATOM      9  C   UNL     1       6.013   2.866  11.927  0.00  0.00    +0.000 C 
ATOM     10  C   UNL     1       5.613   3.810  13.055  0.00  0.00    +0.000 C 
ENDBRANCH   7  10
ENDBRANCH   1   7
BRANCH   4  11
ATOM     11  N   UNL     1       4.762   4.941  19.401  0.00  0.00    +0.000 N 
ATOM     12  H   UNL     1       5.005   5.870  19.725  0.00  0.00    +0.000 HD
BRANCH  11  13
ATOM     13  C   UNL     1       3.506   4.529  19.897  0.00  0.00    +0.000 A 
ATOM     14  N   UNL     1       2.489   5.426  19.857  0.00  0.00    +0.000 NA
ATOM     15  C   UNL     1       1.254   5.035  20.223  0.00  0.00    +0.000 A 
ATOM     16  C   UNL     1       0.959   3.756  20.643  0.00  0.00    +0.000 A 
ATOM     17  C   UNL     1       2.004   2.841  20.724  0.00  0.00    +0.000 A 
ATOM     18  C   UNL     1       3.303   3.230  20.369  0.00  0.00    +0.000 A 
BRANCH  18  19
ATOM     19  C   UNL     1       4.365   2.276  20.441  0.00  0.00    +0.000 C 
ATOM     20  N   UNL     1       5.234   1.506  20.460  0.00  0.00    +0.000 NA
ENDBRANCH  18  19
ENDBRANCH  11  13
ENDBRANCH   4  11
TORSDOF 5
ENDMDL
MODEL 4
REMARK VINA RESULT:      -6.8      0.906      1.483
REMARK  Name = 
REMARK  7 active torsions:
REMARK  status: ('A' for Active; 'I' for Inactive)
REMARK    1  A    between atoms: C_1  and  C_2
REMARK    2  A    between atoms: C_2  and  C_3
REMARK    3  A    between atoms: C_3  and  C_4
REMARK    4  A    between atoms: C_3  and  C_5
REMARK    5  A    between atoms: C_8  and  N_9
REMARK    6  A    between atoms: N_9  and  C_10
REMARK    7  A    between atoms: C_15  and  C_16
REMARK                            x       y       z     vdW  Elec       q    Type
REMARK                         _______ _______ _______ _____ _____    ______ ____
ROOT
ATOM      1  C   UNL     1       6.460   4.141  14.501  0.00  0.00    +0.000 A 
ATOM      2  C   UNL     1       5.220   3.732  15.010  0.00  0.00    +0.000 A 
ATOM      3  C   UNL     1       4.843   4.042  16.326  0.00  0.00    +0.000 A 
ATOM      4  C   UNL     1       5.710   4.744  17.167  0.00  0.00    +0.000 A 
ATOM      5  C   UNL     1       6.940   5.162  16.642  0.00  0.00    +0.000 A 
ATOM      6  C   UNL     1       7.323   4.851  15.339  0.00  0.00    +0.000 A 
ENDROOT
BRANCH   1   7
ATOM      7  C   UNL     1       6.822   3.893  13.047  0.00  0.00    +0.000 C 
ATOM      8  C   UNL     1       7.515   5.118  12.438  0.00  0.00    +0.000 C 
BRANCH   7  10
ATOM      9  C   UNL     1       5.682   2.115  11.584  0.00  0.00    +0.000 C 
ATOM     10  C   UNL     1       5.588   3.506  12.203  0.00  0.00    +0.000 C 
ENDBRANCH   7  10
ENDBRANCH   1   7
BRANCH   4  11
ATOM     11  N   UNL     1       5.311   5.127  18.468  0.00  0.00    +0.000 N 
ATOM     12  H   UNL     1       5.210   6.129  18.587  0.00  0.00    +0.000 HD
BRANCH  11  13
ATOM     13  C   UNL     1       4.385   4.413  19.260  0.00  0.00    +0.000 A 
ATOM     14  N   UNL     1       4.714   3.147  19.622  0.00  0.00    +0.000 NA
ATOM     15  C   UNL     1       3.905   2.475  20.462  0.00  0.00    +0.000 A 
ATOM     16  C   UNL     1       2.745   3.006  20.984  0.00  0.00    +0.000 A 
ATOM     17  C   UNL     1       2.382   4.289  20.586  0.00  0.00    +0.000 A 
ATOM     18  C   UNL     1       3.196   5.002  19.695  0.00  0.00    +0.000 A 
BRANCH  18  19
ATOM     19  C   UNL     1       2.820   6.325  19.306  0.00  0.00    +0.000 C 
ATOM     20  N   UNL     1       2.528   7.413  19.026  0.00  0.00    +0.000 NA
ENDBRANCH  18  19
ENDBRANCH  11  13
ENDBRANCH   4  11
TORSDOF 5
ENDMDL
MODEL 5
REMARK VINA RESULT:      -6.7      3.277      6.770
REMARK  Name = 
REMARK  7 active torsions:
REMARK  status: ('A' for Active; 'I' for Inactive)
REMARK    1  A    between atoms: C_1  and  C_2
REMARK    2  A    between atoms: C_2  and  C_3
REMARK    3  A    between atoms: C_3  and  C_4
REMARK    4  A    between atoms: C_3  and  C_5
REMARK    5  A    between atoms: C_8  and  N_9
REMARK    6  A    between atoms: N_9  and  C_10
REMARK    7  A    between atoms: C_15  and  C_16
REMARK                            x       y       z     vdW  Elec       q    Type
REMARK                         _______ _______ _______ _____ _____    ______ ____
ROOT
ATOM      1  C   UNL     1       0.798   9.739  19.004  0.00  0.00    +0.000 A 
ATOM      2  C   UNL     1       1.567   9.113  18.013  0.00  0.00    +0.000 A 
ATOM      3  C   UNL     1       2.307   7.955  18.299  0.00  0.00    +0.000 A 
ATOM      4  C   UNL     1       2.314   7.416  19.588  0.00  0.00    +0.000 A 
ATOM      5  C   UNL     1       1.528   8.041  20.566  0.00  0.00    +0.000 A 
ATOM      6  C   UNL     1       0.798   9.194  20.290  0.00  0.00    +0.000 A 
ENDROOT
BRANCH   1   7
ATOM      7  C   UNL     1      -0.080  10.930  18.666  0.00  0.00    +0.000 C 
ATOM      8  C   UNL     1       0.064  12.033  19.722  0.00  0.00    +0.000 C 
BRANCH   7  10
ATOM      9  C   UNL     1      -1.910   9.978  17.136  0.00  0.00    +0.000 C 
ATOM     10  C   UNL     1      -1.564  10.530  18.515  0.00  0.00    +0.000 C 
ENDBRANCH   7  10
ENDBRANCH   1   7
BRANCH   4  11
ATOM     11  N   UNL     1       2.994   6.208  19.869  0.00  0.00    +0.000 N 
ATOM     12  H   UNL     1       3.075   6.005  20.859  0.00  0.00    +0.000 HD
BRANCH  11  13
ATOM     13  C   UNL     1       2.872   5.029  19.103  0.00  0.00    +0.000 A 
ATOM     14  N   UNL     1       1.731   4.308  19.237  0.00  0.00    +0.000 NA
ATOM     15  C   UNL     1       1.536   3.236  18.446  0.00  0.00    +0.000 A 
ATOM     16  C   UNL     1       2.443   2.823  17.493  0.00  0.00    +0.000 A 
ATOM     17  C   UNL     1       3.632   3.535  17.377  0.00  0.00    +0.000 A 
ATOM     18  C   UNL     1       3.869   4.642  18.204  0.00  0.00    +0.000 A 
BRANCH  18  19
ATOM     19  C   UNL     1       5.088   5.375  18.064  0.00  0.00    +0.000 C 
ATOM     20  N   UNL     1       6.076   5.966  17.910  0.00  0.00    +0.000 NA
ENDBRANCH  18  19
ENDBRANCH  11  13
ENDBRANCH   4  11
TORSDOF 5
ENDMDL
MODEL 6
REMARK VINA RESULT:      -6.7      3.435      6.934
REMARK  Name = 
REMARK  7 active torsions:
REMARK  status: ('A' for Active; 'I' for Inactive)
REMARK    1  A    between atoms: C_1  and  C_2
REMARK    2  A    between atoms: C_2  and  C_3
REMARK    3  A    between atoms: C_3  and  C_4
REMARK    4  A    between atoms: C_3  and  C_5
REMARK    5  A    between atoms: C_8  and  N_9
REMARK    6  A    between atoms: N_9  and  C_10
REMARK    7  A    between atoms: C_15  and  C_16
REMARK                            x       y       z     vdW  Elec       q    Type
REMARK                         _______ _______ _______ _____ _____    ______ ____
ROOT
ATOM      1  C   UNL     1       0.759   9.799  19.158  0.00  0.00    +0.000 A 
ATOM      2  C   UNL     1       1.491   9.192  18.128  0.00  0.00    +0.000 A 
ATOM      3  C   UNL     1       2.214   8.011  18.358  0.00  0.00    +0.000 A 
ATOM      4  C   UNL     1       2.244   7.431  19.629  0.00  0.00    +0.000 A 
ATOM      5  C   UNL     1       1.496   8.039  20.646  0.00  0.00    +0.000 A 
ATOM      6  C   UNL     1       0.782   9.214  20.426  0.00  0.00    +0.000 A 
ENDROOT
BRANCH   1   7
ATOM      7  C   UNL     1      -0.104  11.018  18.881  0.00  0.00    +0.000 C 
ATOM      8  C   UNL     1      -0.516  11.705  20.189  0.00  0.00    +0.000 C 
BRANCH   7  10
ATOM      9  C   UNL     1      -2.533  11.602  18.285  0.00  0.00    +0.000 C 
ATOM     10  C   UNL     1      -1.356  10.661  18.051  0.00  0.00    +0.000 C 
ENDBRANCH   7  10
ENDBRANCH   1   7
BRANCH   4  11
ATOM     11  N   UNL     1       2.908   6.203  19.853  0.00  0.00    +0.000 N 
ATOM     12  H   UNL     1       3.439   6.177  20.716  0.00  0.00    +0.000 HD
BRANCH  11  13
ATOM     13  C   UNL     1       2.371   4.937  19.532  0.00  0.00    +0.000 A 
ATOM     14  N   UNL     1       1.437   4.421  20.369  0.00  0.00    +0.000 NA
ATOM     15  C   UNL     1       0.828   3.266  20.040  0.00  0.00    +0.000 A 
ATOM     16  C   UNL     1       1.103   2.568  18.884  0.00  0.00    +0.000 A 
ATOM     17  C   UNL     1       2.088   3.072  18.040  0.00  0.00    +0.000 A 
ATOM     18  C   UNL     1       2.752   4.261  18.371  0.00  0.00    +0.000 A 
BRANCH  18  19
ATOM     19  C   UNL     1       3.750   4.777  17.488  0.00  0.00    +0.000 C 
ATOM     20  N   UNL     1       4.540   5.182  16.739  0.00  0.00    +0.000 NA
ENDBRANCH  18  19
ENDBRANCH  11  13
ENDBRANCH   4  11
TORSDOF 5
ENDMDL
MODEL 7
REMARK VINA RESULT:      -6.6      3.511      7.159
REMARK  Name = 
REMARK  7 active torsions:
REMARK  status: ('A' for Active; 'I' for Inactive)
REMARK    1  A    between atoms: C_1  and  C_2
REMARK    2  A    between atoms: C_2  and  C_3
REMARK    3  A    between atoms: C_3  and  C_4
REMARK    4  A    between atoms: C_3  and  C_5
REMARK    5  A    between atoms: C_8  and  N_9
REMARK    6  A    between atoms: N_9  and  C_10
REMARK    7  A    between atoms: C_15  and  C_16
REMARK                            x       y       z     vdW  Elec       q    Type
REMARK                         _______ _______ _______ _____ _____    ______ ____
ROOT
ATOM      1  C   UNL     1       1.074   9.105  20.022  0.00  0.00    +0.000 A 
ATOM      2  C   UNL     1       1.478   7.919  20.650  0.00  0.00    +0.000 A 
ATOM      3  C   UNL     1       2.212   6.948  19.952  0.00  0.00    +0.000 A 
ATOM      4  C   UNL     1       2.533   7.131  18.605  0.00  0.00    +0.000 A 
ATOM      5  C   UNL     1       2.139   8.328  17.992  0.00  0.00    +0.000 A 
ATOM      6  C   UNL     1       1.403   9.292  18.677  0.00  0.00    +0.000 A 
ENDROOT
BRANCH   1   7
ATOM      7  C   UNL     1       0.369  10.197  20.806  0.00  0.00    +0.000 C 
ATOM      8  C   UNL     1       1.029  11.560  20.562  0.00  0.00    +0.000 C 
BRANCH   7  10
ATOM      9  C   UNL     1      -0.908  10.430  23.023  0.00  0.00    +0.000 C 
ATOM     10  C   UNL     1       0.332   9.888  22.319  0.00  0.00    +0.000 C 
ENDBRANCH   7  10
ENDBRANCH   1   7
BRANCH   4  11
ATOM     11  N   UNL     1       3.337   6.194  17.914  0.00  0.00    +0.000 N 
ATOM     12  H   UNL     1       4.286   6.510  17.753  0.00  0.00    +0.000 HD
BRANCH  11  13
ATOM     13  C   UNL     1       3.278   4.798  18.109  0.00  0.00    +0.000 A 
ATOM     14  N   UNL     1       2.179   4.146  17.653  0.00  0.00    +0.000 NA
ATOM     15  C   UNL     1       2.136   2.802  17.727  0.00  0.00    +0.000 A 
ATOM     16  C   UNL     1       3.159   2.040  18.247  0.00  0.00    +0.000 A 
ATOM     17  C   UNL     1       4.272   2.704  18.752  0.00  0.00    +0.000 A 
ATOM     18  C   UNL     1       4.332   4.104  18.706  0.00  0.00    +0.000 A 
BRANCH  18  19
ATOM     19  C   UNL     1       5.488   4.774  19.214  0.00  0.00    +0.000 C 
ATOM     20  N   UNL     1       6.435   5.332  19.589  0.00  0.00    +0.000 NA
ENDBRANCH  18  19
ENDBRANCH  11  13
ENDBRANCH   4  11
TORSDOF 5
ENDMDL
MODEL 8
REMARK VINA RESULT:      -6.6      3.313      6.814
REMARK  Name = 
REMARK  7 active torsions:
REMARK  status: ('A' for Active; 'I' for Inactive)
REMARK    1  A    between atoms: C_1  and  C_2
REMARK    2  A    between atoms: C_2  and  C_3
REMARK    3  A    between atoms: C_3  and  C_4
REMARK    4  A    between atoms: C_3  and  C_5
REMARK    5  A    between atoms: C_8  and  N_9
REMARK    6  A    between atoms: N_9  and  C_10
REMARK    7  A    between atoms: C_15  and  C_16
REMARK                            x       y       z     vdW  Elec       q    Type
REMARK                         _______ _______ _______ _____ _____    ______ ____
ROOT
ATOM      1  C   UNL     1       1.122   9.507  19.032  0.00  0.00    +0.000 A 
ATOM      2  C   UNL     1       1.048   8.964  20.322  0.00  0.00    +0.000 A 
ATOM      3  C   UNL     1       1.676   7.747  20.628  0.00  0.00    +0.000 A 
ATOM      4  C   UNL     1       2.367   7.036  19.644  0.00  0.00    +0.000 A 
ATOM      5  C   UNL     1       2.449   7.597  18.363  0.00  0.00    +0.000 A 
ATOM      6  C   UNL     1       1.821   8.800  18.051  0.00  0.00    +0.000 A 
ENDROOT
BRANCH   1   7
ATOM      7  C   UNL     1       0.529  10.872  18.730  0.00  0.00    +0.000 C 
ATOM      8  C   UNL     1       0.687  11.815  19.928  0.00  0.00    +0.000 C 
BRANCH   7  10
ATOM      9  C   UNL     1      -1.876  11.673  19.144  0.00  0.00    +0.000 C 
ATOM     10  C   UNL     1      -0.958  10.777  18.321  0.00  0.00    +0.000 C 
ENDBRANCH   7  10
ENDBRANCH   1   7
BRANCH   4  11
ATOM     11  N   UNL     1       3.066   5.848  19.961  0.00  0.00    +0.000 N 
ATOM     12  H   UNL     1       3.226   5.720  20.953  0.00  0.00    +0.000 HD
BRANCH  11  13
ATOM     13  C   UNL     1       2.882   4.615  19.299  0.00  0.00    +0.000 A 
ATOM     14  N   UNL     1       1.609   4.177  19.129  0.00  0.00    +0.000 NA
ATOM     15  C   UNL     1       1.390   3.059  18.411  0.00  0.00    +0.000 A 
ATOM     16  C   UNL     1       2.401   2.323  17.831  0.00  0.00    +0.000 A 
ATOM     17  C   UNL     1       3.711   2.744  18.033  0.00  0.00    +0.000 A 
ATOM     18  C   UNL     1       3.966   3.893  18.795  0.00  0.00    +0.000 A 
BRANCH  18  19
ATOM     19  C   UNL     1       5.316   4.324  18.983  0.00  0.00    +0.000 C 
ATOM     20  N   UNL     1       6.405   4.707  19.113  0.00  0.00    +0.000 NA
ENDBRANCH  18  19
ENDBRANCH  11  13
ENDBRANCH   4  11
TORSDOF 5
ENDMDL
MODEL 9
REMARK VINA RESULT:      -6.6      3.542      7.126
REMARK  Name = 
REMARK  7 active torsions:
REMARK  status: ('A' for Active; 'I' for Inactive)
REMARK    1  A    between atoms: C_1  and  C_2
REMARK    2  A    between atoms: C_2  and  C_3
REMARK    3  A    between atoms: C_3  and  C_4
REMARK    4  A    between atoms: C_3  and  C_5
REMARK    5  A    between atoms: C_8  and  N_9
REMARK    6  A    between atoms: N_9  and  C_10
REMARK    7  A    between atoms: C_15  and  C_16
REMARK                            x       y       z     vdW  Elec       q    Type
REMARK                         _______ _______ _______ _____ _____    ______ ____
ROOT
ATOM      1  C   UNL     1       1.010   9.163  19.835  0.00  0.00    +0.000 A 
ATOM      2  C   UNL     1       1.342   9.300  18.480  0.00  0.00    +0.000 A 
ATOM      3  C   UNL     1       2.134   8.340  17.832  0.00  0.00    +0.000 A 
ATOM      4  C   UNL     1       2.634   7.240  18.533  0.00  0.00    +0.000 A 
ATOM      5  C   UNL     1       2.283   7.105  19.883  0.00  0.00    +0.000 A 
ATOM      6  C   UNL     1       1.502   8.058  20.533  0.00  0.00    +0.000 A 
ENDROOT
BRANCH   1   7
ATOM      7  C   UNL     1       0.069  10.148  20.506  0.00  0.00    +0.000 C 
ATOM      8  C   UNL     1       0.042  11.482  19.749  0.00  0.00    +0.000 C 
BRANCH   7  10
ATOM      9  C   UNL     1      -0.727  10.196  22.947  0.00  0.00    +0.000 C 
ATOM     10  C   UNL     1       0.441  10.384  21.986  0.00  0.00    +0.000 C 
ENDBRANCH   7  10
ENDBRANCH   1   7
BRANCH   4  11
ATOM     11  N   UNL     1       3.370   6.229  17.872  0.00  0.00    +0.000 N 
ATOM     12  H   UNL     1       4.334   6.482  17.684  0.00  0.00    +0.000 HD
BRANCH  11  13
ATOM     13  C   UNL     1       3.234   4.848  18.128  0.00  0.00    +0.000 A 
ATOM     14  N   UNL     1       2.091   4.243  17.717  0.00  0.00    +0.000 NA
ATOM     15  C   UNL     1       1.971   2.909  17.850  0.00  0.00    +0.000 A 
ATOM     16  C   UNL     1       2.957   2.110  18.388  0.00  0.00    +0.000 A 
ATOM     17  C   UNL     1       4.116   2.728  18.847  0.00  0.00    +0.000 A 
ATOM     18  C   UNL     1       4.256   4.119  18.739  0.00  0.00    +0.000 A 
BRANCH  18  19
ATOM     19  C   UNL     1       5.458   4.741  19.200  0.00  0.00    +0.000 C 
ATOM     20  N   UNL     1       6.414   5.280  19.580  0.00  0.00    +0.000 NA
ENDBRANCH  18  19
ENDBRANCH  11  13
ENDBRANCH   4  11
TORSDOF 5
ENDMDL
