MODEL 1
REMARK VINA RESULT:      -7.2      0.000      0.000
REMARK  Name = 
REMARK  4 active torsions:
REMARK  status: ('A' for Active; 'I' for Inactive)
REMARK    1  A    between atoms: C_1  and  N_2
REMARK    2  A    between atoms: N_2  and  C_19
REMARK    3  A    between atoms: C_3  and  C_5
REMARK    4  A    between atoms: C_6  and  O_7
REMARK                            x       y       z     vdW  Elec       q    Type
REMARK                         _______ _______ _______ _____ _____    ______ ____
ROOT
ATOM      1  C   UNL     1       5.913   5.053  17.972  0.00  0.00    +0.000 C 
ATOM      2  C   UNL     1       6.912   5.769  18.540  0.00  0.00    +0.000 C 
ATOM      3  C   UNL     1       7.739   6.779  17.787  0.00  0.00    +0.000 C 
ATOM      4  C   UNL     1       7.876   6.508  16.301  0.00  0.00    +0.000 C 
ATOM      5  N   UNL     1       6.913   5.578  15.791  0.00  0.00    +0.000 N 
ATOM      6  C   UNL     1       5.942   4.912  16.525  0.00  0.00    +0.000 A 
ATOM      7  N   UNL     1       5.286   4.103  15.706  0.00  0.00    +0.000 NA
ATOM      8  C   UNL     1       5.905   4.163  14.479  0.00  0.00    +0.000 A 
ATOM      9  C   UNL     1       5.676   3.441  13.290  0.00  0.00    +0.000 A 
ATOM     10  C   UNL     1       6.480   3.703  12.172  0.00  0.00    +0.000 A 
ATOM     11  C   UNL     1       7.488   4.668  12.218  0.00  0.00    +0.000 A 
ATOM     12  C   UNL     1       7.731   5.391  13.394  0.00  0.00    +0.000 A 
ATOM     13  C   UNL     1       6.921   5.110  14.500  0.00  0.00    +0.000 A 
ENDROOT
BRANCH   1  16
ATOM     14  C   UNL     1       2.908   5.704  18.075  0.00  0.00    +0.000 C 
ATOM     15  N   UNL     1       3.531   4.644  18.891  0.00  0.00    +0.000 N 
ATOM     16  C   UNL     1       4.886   4.226  18.758  0.00  0.00    +0.000 C 
ATOM     17  O   UNL     1       5.289   3.168  19.245  0.00  0.00    +0.000 OA
BRANCH  15  18
ATOM     18  C   UNL     1       2.604   3.930  19.786  0.00  0.00    +0.000 A 
ATOM     19  C   UNL     1       2.788   3.871  21.174  0.00  0.00    +0.000 A 
ATOM     20  C   UNL     1       1.937   3.137  22.019  0.00  0.00    +0.000 A 
ATOM     21  C   UNL     1       0.849   2.451  21.485  0.00  0.00    +0.000 A 
ATOM     22  C   UNL     1       0.604   2.529  20.120  0.00  0.00    +0.000 A 
ATOM     23  C   UNL     1       1.460   3.269  19.290  0.00  0.00    +0.000 A 
ENDBRANCH  15  18
ENDBRANCH   1  16
BRANCH   2  24
ATOM     24  O   UNL     1       7.296   5.678  19.866  0.00  0.00    +0.000 OA
ATOM     25  H   UNL     1       8.107   6.206  19.997  0.00  0.00    +0.000 HD
ENDBRANCH   2  24
TORSDOF 3
ENDMDL
MODEL 2
REMARK VINA RESULT:      -7.1      2.148      7.082
REMARK  Name = 
REMARK  4 active torsions:
REMARK  status: ('A' for Active; 'I' for Inactive)
REMARK    1  A    between atoms: C_1  and  N_2
REMARK    2  A    between atoms: N_2  and  C_19
REMARK    3  A    between atoms: C_3  and  C_5
REMARK    4  A    between atoms: C_6  and  O_7
REMARK                            x       y       z     vdW  Elec       q    Type
REMARK                         _______ _______ _______ _____ _____    ______ ____
ROOT
ATOM      1  C   UNL     1       3.618   4.138  18.463  0.00  0.00    +0.000 C 
ATOM      2  C   UNL     1       3.841   3.350  19.542  0.00  0.00    +0.000 C 
ATOM      3  C   UNL     1       2.999   3.398  20.791  0.00  0.00    +0.000 C 
ATOM      4  C   UNL     1       2.351   4.740  21.070  0.00  0.00    +0.000 C 
ATOM      5  N   UNL     1       2.327   5.619  19.939  0.00  0.00    +0.000 N 
ATOM      6  C   UNL     1       2.861   5.360  18.684  0.00  0.00    +0.000 A 
ATOM      7  N   UNL     1       2.685   6.435  17.929  0.00  0.00    +0.000 NA
ATOM      8  C   UNL     1       2.145   7.418  18.727  0.00  0.00    +0.000 A 
ATOM      9  C   UNL     1       1.851   8.770  18.457  0.00  0.00    +0.000 A 
ATOM     10  C   UNL     1       1.307   9.562  19.479  0.00  0.00    +0.000 A 
ATOM     11  C   UNL     1       1.045   9.029  20.743  0.00  0.00    +0.000 A 
ATOM     12  C   UNL     1       1.336   7.688  21.027  0.00  0.00    +0.000 A 
ATOM     13  C   UNL     1       1.884   6.917  19.996  0.00  0.00    +0.000 A 
ENDROOT
BRANCH   1  16
ATOM     14  C   UNL     1       6.475   5.050  17.779  0.00  0.00    +0.000 C 
ATOM     15  N   UNL     1       5.545   4.495  16.778  0.00  0.00    +0.000 N 
ATOM     16  C   UNL     1       4.274   3.932  17.091  0.00  0.00    +0.000 C 
ATOM     17  O   UNL     1       3.657   3.234  16.285  0.00  0.00    +0.000 OA
BRANCH  15  18
ATOM     18  C   UNL     1       6.081   4.432  15.407  0.00  0.00    +0.000 A 
ATOM     19  C   UNL     1       7.210   5.157  15.001  0.00  0.00    +0.000 A 
ATOM     20  C   UNL     1       7.681   5.143  13.677  0.00  0.00    +0.000 A 
ATOM     21  C   UNL     1       7.035   4.370  12.715  0.00  0.00    +0.000 A 
ATOM     22  C   UNL     1       5.944   3.598  13.091  0.00  0.00    +0.000 A 
ATOM     23  C   UNL     1       5.487   3.618  14.418  0.00  0.00    +0.000 A 
ENDBRANCH  15  18
ENDBRANCH   1  16
BRANCH   2  24
ATOM     24  O   UNL     1       4.847   2.406  19.637  0.00  0.00    +0.000 OA
ATOM     25  H   UNL     1       5.107   2.314  20.574  0.00  0.00    +0.000 HD
ENDBRANCH   2  24
TORSDOF 3
ENDMDL
MODEL 3
REMARK VINA RESULT:      -6.6      8.611     10.935
REMARK  Name = 
REMARK  4 active torsions:
REMARK  status: ('A' for Active; 'I' for Inactive)
REMARK    1  A    between atoms: C_1  and  N_2
REMARK    2  A    between atoms: N_2  and  C_19
REMARK    3  A    between atoms: C_3  and  C_5
REMARK    4  A    between atoms: C_6  and  O_7
REMARK                            x       y       z     vdW  Elec       q    Type
REMARK                         _______ _______ _______ _____ _____    ______ ____
ROOT
ATOM      1  C   UNL     1      -0.521  11.720  21.094  0.00  0.00    +0.000 C 
ATOM      2  C   UNL     1      -1.118  11.322  22.242  0.00  0.00    +0.000 C 
ATOM      3  C   UNL     1      -0.572  10.231  23.126  0.00  0.00    +0.000 C 
ATOM      4  C   UNL     1       0.248   9.179  22.404  0.00  0.00    +0.000 C 
ATOM      5  N   UNL     1       0.683   9.578  21.099  0.00  0.00    +0.000 N 
ATOM      6  C   UNL     1       0.392  10.778  20.466  0.00  0.00    +0.000 A 
ATOM      7  N   UNL     1       0.930  10.749  19.255  0.00  0.00    +0.000 NA
ATOM      8  C   UNL     1       1.466   9.495  19.069  0.00  0.00    +0.000 A 
ATOM      9  C   UNL     1       2.065   8.903  17.939  0.00  0.00    +0.000 A 
ATOM     10  C   UNL     1       2.519   7.579  18.028  0.00  0.00    +0.000 A 
ATOM     11  C   UNL     1       2.396   6.851  19.214  0.00  0.00    +0.000 A 
ATOM     12  C   UNL     1       1.797   7.425  20.344  0.00  0.00    +0.000 A 
ATOM     13  C   UNL     1       1.345   8.744  20.232  0.00  0.00    +0.000 A 
ENDROOT
BRANCH   1  16
ATOM     14  C   UNL     1       1.041  14.363  21.290  0.00  0.00    +0.000 C 
ATOM     15  N   UNL     1      -0.227  14.230  20.548  0.00  0.00    +0.000 N 
ATOM     16  C   UNL     1      -0.894  12.991  20.320  0.00  0.00    +0.000 C 
ATOM     17  O   UNL     1      -1.781  12.879  19.472  0.00  0.00    +0.000 OA
BRANCH  15  18
ATOM     18  C   UNL     1      -0.709  15.473  19.922  0.00  0.00    +0.000 A 
ATOM     19  C   UNL     1      -1.753  16.236  20.461  0.00  0.00    +0.000 A 
ATOM     20  C   UNL     1      -2.253  17.388  19.828  0.00  0.00    +0.000 A 
ATOM     21  C   UNL     1      -1.691  17.824  18.631  0.00  0.00    +0.000 A 
ATOM     22  C   UNL     1      -0.620  17.123  18.093  0.00  0.00    +0.000 A 
ATOM     23  C   UNL     1      -0.129  15.977  18.738  0.00  0.00    +0.000 A 
ENDBRANCH  15  18
ENDBRANCH   1  16
BRANCH   2  24
ATOM     24  O   UNL     1      -2.284  11.862  22.755  0.00  0.00    +0.000 OA
ATOM     25  H   UNL     1      -2.158  12.039  23.708  0.00  0.00    +0.000 HD
ENDBRANCH   2  24
TORSDOF 3
ENDMDL
MODEL 4
REMARK VINA RESULT:      -6.6      2.536      7.252
REMARK  Name = 
REMARK  4 active torsions:
REMARK  status: ('A' for Active; 'I' for Inactive)
REMARK    1  A    between atoms: C_1  and  N_2
REMARK    2  A    between atoms: N_2  and  C_19
REMARK    3  A    between atoms: C_3  and  C_5
REMARK    4  A    between atoms: C_6  and  O_7
REMARK                            x       y       z     vdW  Elec       q    Type
REMARK                         _______ _______ _______ _____ _____    ______ ____
ROOT
ATOM      1  C   UNL     1       4.279   5.561  17.844  0.00  0.00    +0.000 C 
ATOM      2  C   UNL     1       4.621   4.751  18.874  0.00  0.00    +0.000 C 
ATOM      3  C   UNL     1       3.755   4.545  20.089  0.00  0.00    +0.000 C 
ATOM      4  C   UNL     1       2.855   5.716  20.435  0.00  0.00    +0.000 C 
ATOM      5  N   UNL     1       2.693   6.657  19.367  0.00  0.00    +0.000 N 
ATOM      6  C   UNL     1       3.298   6.598  18.119  0.00  0.00    +0.000 A 
ATOM      7  N   UNL     1       2.939   7.674  17.434  0.00  0.00    +0.000 NA
ATOM      8  C   UNL     1       2.201   8.475  18.276  0.00  0.00    +0.000 A 
ATOM      9  C   UNL     1       1.661   9.764  18.089  0.00  0.00    +0.000 A 
ATOM     10  C   UNL     1       0.950  10.360  19.141  0.00  0.00    +0.000 A 
ATOM     11  C   UNL     1       0.763   9.694  20.354  0.00  0.00    +0.000 A 
ATOM     12  C   UNL     1       1.297   8.414  20.556  0.00  0.00    +0.000 A 
ATOM     13  C   UNL     1       2.009   7.840  19.497  0.00  0.00    +0.000 A 
ENDROOT
BRANCH   1  16
ATOM     14  C   UNL     1       4.378   3.168  15.914  0.00  0.00    +0.000 C 
ATOM     15  N   UNL     1       5.135   4.414  15.691  0.00  0.00    +0.000 N 
ATOM     16  C   UNL     1       4.997   5.587  16.488  0.00  0.00    +0.000 C 
ATOM     17  O   UNL     1       5.424   6.680  16.112  0.00  0.00    +0.000 OA
BRANCH  15  18
ATOM     18  C   UNL     1       5.971   4.419  14.478  0.00  0.00    +0.000 A 
ATOM     19  C   UNL     1       7.157   5.159  14.379  0.00  0.00    +0.000 A 
ATOM     20  C   UNL     1       7.919   5.211  13.199  0.00  0.00    +0.000 A 
ATOM     21  C   UNL     1       7.516   4.492  12.077  0.00  0.00    +0.000 A 
ATOM     22  C   UNL     1       6.373   3.706  12.153  0.00  0.00    +0.000 A 
ATOM     23  C   UNL     1       5.625   3.660  13.340  0.00  0.00    +0.000 A 
ENDBRANCH  15  18
ENDBRANCH   1  16
BRANCH   2  24
ATOM     24  O   UNL     1       5.787   4.009  18.943  0.00  0.00    +0.000 OA
ATOM     25  H   UNL     1       6.127   4.038  19.858  0.00  0.00    +0.000 HD
ENDBRANCH   2  24
TORSDOF 3
ENDMDL
MODEL 5
REMARK VINA RESULT:      -6.4      9.906     11.843
REMARK  Name = 
REMARK  4 active torsions:
REMARK  status: ('A' for Active; 'I' for Inactive)
REMARK    1  A    between atoms: C_1  and  N_2
REMARK    2  A    between atoms: N_2  and  C_19
REMARK    3  A    between atoms: C_3  and  C_5
REMARK    4  A    between atoms: C_6  and  O_7
REMARK                            x       y       z     vdW  Elec       q    Type
REMARK                         _______ _______ _______ _____ _____    ______ ____
ROOT
ATOM      1  C   UNL     1      -1.138  11.661  21.402  0.00  0.00    +0.000 C 
ATOM      2  C   UNL     1      -0.181  10.767  21.744  0.00  0.00    +0.000 C 
ATOM      3  C   UNL     1       0.682  10.050  20.738  0.00  0.00    +0.000 C 
ATOM      4  C   UNL     1       0.042   9.850  19.379  0.00  0.00    +0.000 C 
ATOM      5  N   UNL     1      -1.101  10.683  19.148  0.00  0.00    +0.000 N 
ATOM      6  C   UNL     1      -1.657  11.583  20.046  0.00  0.00    +0.000 A 
ATOM      7  N   UNL     1      -2.730  12.121  19.482  0.00  0.00    +0.000 NA
ATOM      8  C   UNL     1      -2.927  11.487  18.276  0.00  0.00    +0.000 A 
ATOM      9  C   UNL     1      -3.964  11.602  17.328  0.00  0.00    +0.000 A 
ATOM     10  C   UNL     1      -3.916  10.810  16.172  0.00  0.00    +0.000 A 
ATOM     11  C   UNL     1      -2.859   9.926  15.945  0.00  0.00    +0.000 A 
ATOM     12  C   UNL     1      -1.824   9.797  16.880  0.00  0.00    +0.000 A 
ATOM     13  C   UNL     1      -1.893  10.591  18.030  0.00  0.00    +0.000 A 
ENDROOT
BRANCH   1  16
ATOM     14  C   UNL     1      -0.914  14.728  21.310  0.00  0.00    +0.000 C 
ATOM     15  N   UNL     1      -1.598  14.002  22.398  0.00  0.00    +0.000 N 
ATOM     16  C   UNL     1      -1.842  12.598  22.392  0.00  0.00    +0.000 C 
ATOM     17  O   UNL     1      -2.648  12.078  23.165  0.00  0.00    +0.000 OA
BRANCH  15  18
ATOM     18  C   UNL     1      -2.149  14.860  23.461  0.00  0.00    +0.000 A 
ATOM     19  C   UNL     1      -3.392  15.498  23.351  0.00  0.00    +0.000 A 
ATOM     20  C   UNL     1      -3.886  16.366  24.340  0.00  0.00    +0.000 A 
ATOM     21  C   UNL     1      -3.144  16.601  25.494  0.00  0.00    +0.000 A 
ATOM     22  C   UNL     1      -1.930  15.946  25.663  0.00  0.00    +0.000 A 
ATOM     23  C   UNL     1      -1.452  15.079  24.668  0.00  0.00    +0.000 A 
ENDBRANCH  15  18
ENDBRANCH   1  16
BRANCH   2  24
ATOM     24  O   UNL     1       0.135  10.404  23.042  0.00  0.00    +0.000 OA
ATOM     25  H   UNL     1      -0.011   9.444  23.146  0.00  0.00    +0.000 HD
ENDBRANCH   2  24
TORSDOF 3
ENDMDL
MODEL 6
REMARK VINA RESULT:      -6.4     10.489     12.352
REMARK  Name = 
REMARK  4 active torsions:
REMARK  status: ('A' for Active; 'I' for Inactive)
REMARK    1  A    between atoms: C_1  and  N_2
REMARK    2  A    between atoms: N_2  and  C_19
REMARK    3  A    between atoms: C_3  and  C_5
REMARK    4  A    between atoms: C_6  and  O_7
REMARK                            x       y       z     vdW  Elec       q    Type
REMARK                         _______ _______ _______ _____ _____    ______ ____
ROOT
ATOM      1  C   UNL     1      -1.761  12.158  21.389  0.00  0.00    +0.000 C 
ATOM      2  C   UNL     1      -0.753  11.400  21.882  0.00  0.00    +0.000 C 
ATOM      3  C   UNL     1       0.270  10.714  21.014  0.00  0.00    +0.000 C 
ATOM      4  C   UNL     1      -0.217  10.351  19.624  0.00  0.00    +0.000 C 
ATOM      5  N   UNL     1      -1.412  11.036  19.232  0.00  0.00    +0.000 N 
ATOM      6  C   UNL     1      -2.140  11.930  20.004  0.00  0.00    +0.000 A 
ATOM      7  N   UNL     1      -3.204  12.306  19.309  0.00  0.00    +0.000 NA
ATOM      8  C   UNL     1      -3.221  11.572  18.145  0.00  0.00    +0.000 A 
ATOM      9  C   UNL     1      -4.171  11.507  17.106  0.00  0.00    +0.000 A 
ATOM     10  C   UNL     1      -3.934  10.647  16.024  0.00  0.00    +0.000 A 
ATOM     11  C   UNL     1      -2.775   9.870  15.959  0.00  0.00    +0.000 A 
ATOM     12  C   UNL     1      -1.824   9.921  16.987  0.00  0.00    +0.000 A 
ATOM     13  C   UNL     1      -2.082  10.780  18.061  0.00  0.00    +0.000 A 
ENDROOT
BRANCH   1  16
ATOM     14  C   UNL     1      -1.847  15.218  21.074  0.00  0.00    +0.000 C 
ATOM     15  N   UNL     1      -2.551  14.499  22.153  0.00  0.00    +0.000 N 
ATOM     16  C   UNL     1      -2.647  13.079  22.239  0.00  0.00    +0.000 C 
ATOM     17  O   UNL     1      -3.464  12.528  22.978  0.00  0.00    +0.000 OA
BRANCH  15  18
ATOM     18  C   UNL     1      -3.284  15.363  23.094  0.00  0.00    +0.000 A 
ATOM     19  C   UNL     1      -2.714  15.848  24.278  0.00  0.00    +0.000 A 
ATOM     20  C   UNL     1      -3.436  16.621  25.204  0.00  0.00    +0.000 A 
ATOM     21  C   UNL     1      -4.765  16.951  24.949  0.00  0.00    +0.000 A 
ATOM     22  C   UNL     1      -5.349  16.532  23.761  0.00  0.00    +0.000 A 
ATOM     23  C   UNL     1      -4.614  15.765  22.845  0.00  0.00    +0.000 A 
ENDBRANCH  15  18
ENDBRANCH   1  16
BRANCH   2  24
ATOM     24  O   UNL     1      -0.525  11.165  23.227  0.00  0.00    +0.000 OA
ATOM     25  H   UNL     1      -0.281  10.227  23.347  0.00  0.00    +0.000 HD
ENDBRANCH   2  24
TORSDOF 3
ENDMDL
MODEL 7
REMARK VINA RESULT:      -6.3      2.515      7.314
REMARK  Name = 
REMARK  4 active torsions:
REMARK  status: ('A' for Active; 'I' for Inactive)
REMARK    1  A    between atoms: C_1  and  N_2
REMARK    2  A    between atoms: N_2  and  C_19
REMARK    3  A    between atoms: C_3  and  C_5
REMARK    4  A    between atoms: C_6  and  O_7
REMARK                            x       y       z     vdW  Elec       q    Type
REMARK                         _______ _______ _______ _____ _____    ______ ____
ROOT
ATOM      1  C   UNL     1       4.161   5.438  17.965  0.00  0.00    +0.000 C 
ATOM      2  C   UNL     1       4.513   4.605  18.973  0.00  0.00    +0.000 C 
ATOM      3  C   UNL     1       3.665   4.380  20.197  0.00  0.00    +0.000 C 
ATOM      4  C   UNL     1       2.780   5.549  20.581  0.00  0.00    +0.000 C 
ATOM      5  N   UNL     1       2.608   6.513  19.536  0.00  0.00    +0.000 N 
ATOM      6  C   UNL     1       3.192   6.476  18.277  0.00  0.00    +0.000 A 
ATOM      7  N   UNL     1       2.830   7.569  17.620  0.00  0.00    +0.000 NA
ATOM      8  C   UNL     1       2.112   8.357  18.490  0.00  0.00    +0.000 A 
ATOM      9  C   UNL     1       1.579   9.654  18.339  0.00  0.00    +0.000 A 
ATOM     10  C   UNL     1       0.889  10.233  19.414  0.00  0.00    +0.000 A 
ATOM     11  C   UNL     1       0.716   9.543  20.616  0.00  0.00    +0.000 A 
ATOM     12  C   UNL     1       1.244   8.256  20.783  0.00  0.00    +0.000 A 
ATOM     13  C   UNL     1       1.934   7.699  19.701  0.00  0.00    +0.000 A 
ENDROOT
BRANCH   1  16
ATOM     14  C   UNL     1       4.212   3.084  15.985  0.00  0.00    +0.000 C 
ATOM     15  N   UNL     1       4.975   4.329  15.776  0.00  0.00    +0.000 N 
ATOM     16  C   UNL     1       4.858   5.487  16.599  0.00  0.00    +0.000 C 
ATOM     17  O   UNL     1       5.286   6.585  16.238  0.00  0.00    +0.000 OA
BRANCH  15  18
ATOM     18  C   UNL     1       5.791   4.354  14.550  0.00  0.00    +0.000 A 
ATOM     19  C   UNL     1       5.428   3.665  13.385  0.00  0.00    +0.000 A 
ATOM     20  C   UNL     1       6.240   3.639  12.238  0.00  0.00    +0.000 A 
ATOM     21  C   UNL     1       7.447   4.334  12.223  0.00  0.00    +0.000 A 
ATOM     22  C   UNL     1       7.816   5.071  13.341  0.00  0.00    +0.000 A 
ATOM     23  C   UNL     1       6.992   5.091  14.477  0.00  0.00    +0.000 A 
ENDBRANCH  15  18
ENDBRANCH   1  16
BRANCH   2  24
ATOM     24  O   UNL     1       5.675   3.853  19.007  0.00  0.00    +0.000 OA
ATOM     25  H   UNL     1       6.388   4.392  19.400  0.00  0.00    +0.000 HD
ENDBRANCH   2  24
TORSDOF 3
ENDMDL
MODEL 8
REMARK VINA RESULT:      -6.2      8.765     11.383
REMARK  Name = 
REMARK  4 active torsions:
REMARK  status: ('A' for Active; 'I' for Inactive)
REMARK    1  A    between atoms: C_1  and  N_2
REMARK    2  A    between atoms: N_2  and  C_19
REMARK    3  A    between atoms: C_3  and  C_5
REMARK    4  A    between atoms: C_6  and  O_7
REMARK                            x       y       z     vdW  Elec       q    Type
REMARK                         _______ _______ _______ _____ _____    ______ ____
ROOT
ATOM      1  C   UNL     1      -0.709  12.052  21.289  0.00  0.00    +0.000 C 
ATOM      2  C   UNL     1      -1.344  11.897  22.475  0.00  0.00    +0.000 C 
ATOM      3  C   UNL     1      -2.574  12.675  22.865  0.00  0.00    +0.000 C 
ATOM      4  C   UNL     1      -2.692  14.043  22.222  0.00  0.00    +0.000 C 
ATOM      5  N   UNL     1      -1.839  14.224  21.085  0.00  0.00    +0.000 N 
ATOM      6  C   UNL     1      -0.933  13.302  20.581  0.00  0.00    +0.000 A 
ATOM      7  N   UNL     1      -0.300  13.861  19.559  0.00  0.00    +0.000 NA
ATOM      8  C   UNL     1      -0.714  15.171  19.480  0.00  0.00    +0.000 A 
ATOM      9  C   UNL     1      -0.291  16.226  18.646  0.00  0.00    +0.000 A 
ATOM     10  C   UNL     1      -0.888  17.486  18.793  0.00  0.00    +0.000 A 
ATOM     11  C   UNL     1      -1.894  17.704  19.738  0.00  0.00    +0.000 A 
ATOM     12  C   UNL     1      -2.321  16.665  20.576  0.00  0.00    +0.000 A 
ATOM     13  C   UNL     1      -1.708  15.418  20.419  0.00  0.00    +0.000 A 
ENDROOT
BRANCH   1  16
ATOM     14  C   UNL     1      -1.049  10.325  18.766  0.00  0.00    +0.000 C 
ATOM     15  N   UNL     1       0.117  10.219  19.664  0.00  0.00    +0.000 N 
ATOM     16  C   UNL     1       0.370  11.102  20.754  0.00  0.00    +0.000 C 
ATOM     17  O   UNL     1       1.474  11.160  21.298  0.00  0.00    +0.000 OA
BRANCH  15  18
ATOM     18  C   UNL     1       1.104   9.197  19.275  0.00  0.00    +0.000 A 
ATOM     19  C   UNL     1       1.763   9.214  18.038  0.00  0.00    +0.000 A 
ATOM     20  C   UNL     1       2.658   8.203  17.645  0.00  0.00    +0.000 A 
ATOM     21  C   UNL     1       2.935   7.145  18.506  0.00  0.00    +0.000 A 
ATOM     22  C   UNL     1       2.340   7.121  19.761  0.00  0.00    +0.000 A 
ATOM     23  C   UNL     1       1.453   8.140  20.141  0.00  0.00    +0.000 A 
ENDBRANCH  15  18
ENDBRANCH   1  16
BRANCH   2  24
ATOM     24  O   UNL     1      -0.960  11.013  23.468  0.00  0.00    +0.000 OA
ATOM     25  H   UNL     1      -1.657  10.337  23.575  0.00  0.00    +0.000 HD
ENDBRANCH   2  24
TORSDOF 3
ENDMDL
MODEL 9
REMARK VINA RESULT:      -6.2      8.849     10.611
REMARK  Name = 
REMARK  4 active torsions:
REMARK  status: ('A' for Active; 'I' for Inactive)
REMARK    1  A    between atoms: C_1  and  N_2
REMARK    2  A    between atoms: N_2  and  C_19
REMARK    3  A    between atoms: C_3  and  C_5
REMARK    4  A    between atoms: C_6  and  O_7
REMARK                            x       y       z     vdW  Elec       q    Type
REMARK                         _______ _______ _______ _____ _____    ______ ____
ROOT
ATOM      1  C   UNL     1       6.183  15.849  18.275  0.00  0.00    +0.000 C 
ATOM      2  C   UNL     1       6.594  17.041  18.769  0.00  0.00    +0.000 C 
ATOM      3  C   UNL     1       7.994  17.571  18.600  0.00  0.00    +0.000 C 
ATOM      4  C   UNL     1       9.064  16.505  18.460  0.00  0.00    +0.000 C 
ATOM      5  N   UNL     1       8.550  15.208  18.136  0.00  0.00    +0.000 N 
ATOM      6  C   UNL     1       7.214  14.865  17.987  0.00  0.00    +0.000 A 
ATOM      7  N   UNL     1       7.145  13.564  17.741  0.00  0.00    +0.000 NA
ATOM      8  C   UNL     1       8.419  13.054  17.843  0.00  0.00    +0.000 A 
ATOM      9  C   UNL     1       8.894  11.729  17.771  0.00  0.00    +0.000 A 
ATOM     10  C   UNL     1      10.267  11.491  17.926  0.00  0.00    +0.000 A 
ATOM     11  C   UNL     1      11.162  12.542  18.138  0.00  0.00    +0.000 A 
ATOM     12  C   UNL     1      10.704  13.864  18.217  0.00  0.00    +0.000 A 
ATOM     13  C   UNL     1       9.330  14.079  18.066  0.00  0.00    +0.000 A 
ENDROOT
BRANCH   1  16
ATOM     14  C   UNL     1       4.576  14.803  20.680  0.00  0.00    +0.000 C 
ATOM     15  N   UNL     1       4.055  14.797  19.300  0.00  0.00    +0.000 N 
ATOM     16  C   UNL     1       4.717  15.405  18.193  0.00  0.00    +0.000 C 
ATOM     17  O   UNL     1       4.133  15.626  17.131  0.00  0.00    +0.000 OA
BRANCH  15  18
ATOM     18  C   UNL     1       2.706  14.225  19.152  0.00  0.00    +0.000 A 
ATOM     19  C   UNL     1       1.541  14.949  19.438  0.00  0.00    +0.000 A 
ATOM     20  C   UNL     1       0.258  14.379  19.356  0.00  0.00    +0.000 A 
ATOM     21  C   UNL     1       0.109  13.054  18.955  0.00  0.00    +0.000 A 
ATOM     22  C   UNL     1       1.237  12.320  18.614  0.00  0.00    +0.000 A 
ATOM     23  C   UNL     1       2.511  12.903  18.696  0.00  0.00    +0.000 A 
ENDBRANCH  15  18
ENDBRANCH   1  16
BRANCH   2  24
ATOM     24  O   UNL     1       5.793  17.922  19.475  0.00  0.00    +0.000 OA
ATOM     25  H   UNL     1       4.861  17.644  19.384  0.00  0.00    +0.000 HD
ENDBRANCH   2  24
TORSDOF 3
ENDMDL
