MODEL 1
REMARK VINA RESULT:      -8.3      0.000      0.000
REMARK  Name = 
REMARK  4 active torsions:
REMARK  status: ('A' for Active; 'I' for Inactive)
REMARK    1  A    between atoms: C_1  and  N_2
REMARK    2  A    between atoms: N_2  and  C_3
REMARK    3  A    between atoms: N_2  and  C_9
REMARK    4  A    between atoms: N_12  and  C_13
REMARK                            x       y       z     vdW  Elec       q    Type
REMARK                         _______ _______ _______ _____ _____    ______ ____
ROOT
ATOM      1  C   UNL     1       4.032   4.529  18.134  0.00  0.00    +0.000 A 
ATOM      2  N   UNL     1       3.492   5.583  17.501  0.00  0.00    +0.000 NA
ATOM      3  C   UNL     1       2.428   6.149  18.011  0.00  0.00    +0.000 A 
ATOM      4  N   UNL     1       2.727   7.355  18.676  0.00  0.00    +0.000 N 
ATOM      5  N   UNL     1       1.483   5.405  18.545  0.00  0.00    +0.000 NA
ATOM      6  C   UNL     1       1.949   4.440  19.279  0.00  0.00    +0.000 A 
ATOM      7  C   UNL     1       1.095   4.148  20.335  0.00  0.00    +0.000 A 
ATOM      8  C   UNL     1       1.478   3.280  21.339  0.00  0.00    +0.000 A 
ATOM      9  C   UNL     1       2.697   2.615  21.204  0.00  0.00    +0.000 A 
ATOM     10  C   UNL     1       3.575   2.902  20.131  0.00  0.00    +0.000 A 
ATOM     11  C   UNL     1       3.258   3.888  19.164  0.00  0.00    +0.000 A 
ATOM     12  H   UNL     1       3.636   7.180  19.103  0.00  0.00    +0.000 HD
ENDROOT
BRANCH   4  13
ATOM     13  C   UNL     1       1.836   8.052  19.507  0.00  0.00    +0.000 A 
ATOM     14  C   UNL     1       1.160   9.169  19.006  0.00  0.00    +0.000 A 
ATOM     15  C   UNL     1       0.501  10.039  19.869  0.00  0.00    +0.000 A 
ATOM     16  C   UNL     1       0.483   9.767  21.231  0.00  0.00    +0.000 A 
ATOM     17  C   UNL     1       1.063   8.601  21.724  0.00  0.00    +0.000 A 
ATOM     18  C   UNL     1       1.738   7.738  20.863  0.00  0.00    +0.000 A 
ENDBRANCH   4  13
BRANCH   1  20
ATOM     19  C   UNL     1       6.281   4.995  18.862  0.00  0.00    +0.000 C 
ATOM     20  N   UNL     1       5.402   4.392  17.805  0.00  0.00    +0.000 N 
BRANCH  20  21
ATOM     21  C   UNL     1       6.132   4.319  16.595  0.00  0.00    +0.000 A 
ATOM     22  C   UNL     1       7.129   5.264  16.324  0.00  0.00    +0.000 A 
ATOM     23  C   UNL     1       7.583   5.465  15.012  0.00  0.00    +0.000 A 
ATOM     24  C   UNL     1       7.035   4.738  13.955  0.00  0.00    +0.000 A 
ATOM     25  C   UNL     1       6.052   3.787  14.205  0.00  0.00    +0.000 A 
ATOM     26  C   UNL     1       5.623   3.566  15.515  0.00  0.00    +0.000 A 
ENDBRANCH  20  21
ENDBRANCH   1  20
TORSDOF 3
ENDMDL
MODEL 2
REMARK VINA RESULT:      -8.1      1.506      6.962
REMARK  Name = 
REMARK  4 active torsions:
REMARK  status: ('A' for Active; 'I' for Inactive)
REMARK    1  A    between atoms: C_1  and  N_2
REMARK    2  A    between atoms: N_2  and  C_3
REMARK    3  A    between atoms: N_2  and  C_9
REMARK    4  A    between atoms: N_12  and  C_13
REMARK                            x       y       z     vdW  Elec       q    Type
REMARK                         _______ _______ _______ _____ _____    ______ ____
ROOT
ATOM      1  C   UNL     1       3.121   6.457  18.442  0.00  0.00    +0.000 A 
ATOM      2  N   UNL     1       4.358   6.821  18.067  0.00  0.00    +0.000 NA
ATOM      3  C   UNL     1       5.112   5.951  17.447  0.00  0.00    +0.000 A 
ATOM      4  N   UNL     1       5.179   6.190  16.060  0.00  0.00    +0.000 N 
ATOM      5  N   UNL     1       5.103   4.690  17.823  0.00  0.00    +0.000 NA
ATOM      6  C   UNL     1       3.910   4.243  18.076  0.00  0.00    +0.000 A 
ATOM      7  C   UNL     1       3.799   2.893  17.770  0.00  0.00    +0.000 A 
ATOM      8  C   UNL     1       2.572   2.258  17.792  0.00  0.00    +0.000 A 
ATOM      9  C   UNL     1       1.466   2.980  18.243  0.00  0.00    +0.000 A 
ATOM     10  C   UNL     1       1.567   4.356  18.560  0.00  0.00    +0.000 A 
ATOM     11  C   UNL     1       2.790   5.057  18.415  0.00  0.00    +0.000 A 
ATOM     12  H   UNL     1       4.245   6.523  15.823  0.00  0.00    +0.000 HD
ENDROOT
BRANCH   4  13
ATOM     13  C   UNL     1       5.716   5.296  15.119  0.00  0.00    +0.000 A 
ATOM     14  C   UNL     1       7.054   5.425  14.733  0.00  0.00    +0.000 A 
ATOM     15  C   UNL     1       7.532   4.753  13.614  0.00  0.00    +0.000 A 
ATOM     16  C   UNL     1       6.680   3.917  12.903  0.00  0.00    +0.000 A 
ATOM     17  C   UNL     1       5.377   3.700  13.343  0.00  0.00    +0.000 A 
ATOM     18  C   UNL     1       4.892   4.386  14.455  0.00  0.00    +0.000 A 
ENDBRANCH   4  13
BRANCH   1  20
ATOM     19  C   UNL     1       2.499   8.568  17.460  0.00  0.00    +0.000 C 
ATOM     20  N   UNL     1       2.282   7.589  18.577  0.00  0.00    +0.000 N 
BRANCH  20  21
ATOM     21  C   UNL     1       1.703   8.272  19.673  0.00  0.00    +0.000 A 
ATOM     22  C   UNL     1       1.420   7.579  20.856  0.00  0.00    +0.000 A 
ATOM     23  C   UNL     1       0.511   8.100  21.789  0.00  0.00    +0.000 A 
ATOM     24  C   UNL     1      -0.139   9.309  21.542  0.00  0.00    +0.000 A 
ATOM     25  C   UNL     1       0.135  10.018  20.378  0.00  0.00    +0.000 A 
ATOM     26  C   UNL     1       1.064   9.513  19.466  0.00  0.00    +0.000 A 
ENDBRANCH  20  21
ENDBRANCH   1  20
TORSDOF 3
ENDMDL
MODEL 3
REMARK VINA RESULT:      -8.0      1.376      6.295
REMARK  Name = 
REMARK  4 active torsions:
REMARK  status: ('A' for Active; 'I' for Inactive)
REMARK    1  A    between atoms: C_1  and  N_2
REMARK    2  A    between atoms: N_2  and  C_3
REMARK    3  A    between atoms: N_2  and  C_9
REMARK    4  A    between atoms: N_12  and  C_13
REMARK                            x       y       z     vdW  Elec       q    Type
REMARK                         _______ _______ _______ _____ _____    ______ ____
ROOT
ATOM      1  C   UNL     1       3.120   5.506  19.748  0.00  0.00    +0.000 A 
ATOM      2  N   UNL     1       4.397   5.848  19.512  0.00  0.00    +0.000 NA
ATOM      3  C   UNL     1       5.100   5.126  18.678  0.00  0.00    +0.000 A 
ATOM      4  N   UNL     1       5.242   5.744  17.419  0.00  0.00    +0.000 N 
ATOM      5  N   UNL     1       4.972   3.817  18.675  0.00  0.00    +0.000 NA
ATOM      6  C   UNL     1       3.737   3.426  18.771  0.00  0.00    +0.000 A 
ATOM      7  C   UNL     1       3.526   2.236  18.088  0.00  0.00    +0.000 A 
ATOM      8  C   UNL     1       2.251   1.735  17.909  0.00  0.00    +0.000 A 
ATOM      9  C   UNL     1       1.192   2.395  18.534  0.00  0.00    +0.000 A 
ATOM     10  C   UNL     1       1.394   3.608  19.235  0.00  0.00    +0.000 A 
ATOM     11  C   UNL     1       2.676   4.208  19.315  0.00  0.00    +0.000 A 
ATOM     12  H   UNL     1       4.349   6.215  17.275  0.00  0.00    +0.000 HD
ENDROOT
BRANCH   4  13
ATOM     13  C   UNL     1       5.739   5.112  16.269  0.00  0.00    +0.000 A 
ATOM     14  C   UNL     1       7.084   5.273  15.922  0.00  0.00    +0.000 A 
ATOM     15  C   UNL     1       7.535   4.904  14.659  0.00  0.00    +0.000 A 
ATOM     16  C   UNL     1       6.648   4.334  13.756  0.00  0.00    +0.000 A 
ATOM     17  C   UNL     1       5.332   4.072  14.131  0.00  0.00    +0.000 A 
ATOM     18  C   UNL     1       4.876   4.456  15.390  0.00  0.00    +0.000 A 
ENDBRANCH   4  13
BRANCH   1  20
ATOM     19  C   UNL     1       1.281   6.212  21.136  0.00  0.00    +0.000 C 
ATOM     20  N   UNL     1       2.374   6.623  20.192  0.00  0.00    +0.000 N 
BRANCH  20  21
ATOM     21  C   UNL     1       2.043   7.883  19.638  0.00  0.00    +0.000 A 
ATOM     22  C   UNL     1       1.212   8.760  20.345  0.00  0.00    +0.000 A 
ATOM     23  C   UNL     1       0.555   9.809  19.685  0.00  0.00    +0.000 A 
ATOM     24  C   UNL     1       0.708   9.984  18.309  0.00  0.00    +0.000 A 
ATOM     25  C   UNL     1       1.538   9.131  17.591  0.00  0.00    +0.000 A 
ATOM     26  C   UNL     1       2.215   8.106  18.255  0.00  0.00    +0.000 A 
ENDBRANCH  20  21
ENDBRANCH   1  20
TORSDOF 3
ENDMDL
MODEL 4
REMARK VINA RESULT:      -7.9      1.522      6.935
REMARK  Name = 
REMARK  4 active torsions:
REMARK  status: ('A' for Active; 'I' for Inactive)
REMARK    1  A    between atoms: C_1  and  N_2
REMARK    2  A    between atoms: N_2  and  C_3
REMARK    3  A    between atoms: N_2  and  C_9
REMARK    4  A    between atoms: N_12  and  C_13
REMARK                            x       y       z     vdW  Elec       q    Type
REMARK                         _______ _______ _______ _____ _____    ______ ____
ROOT
ATOM      1  C   UNL     1       3.073   6.569  18.357  0.00  0.00    +0.000 A 
ATOM      2  N   UNL     1       4.309   6.936  17.982  0.00  0.00    +0.000 NA
ATOM      3  C   UNL     1       5.078   6.056  17.393  0.00  0.00    +0.000 A 
ATOM      4  N   UNL     1       5.154   6.256  16.000  0.00  0.00    +0.000 N 
ATOM      5  N   UNL     1       5.080   4.807  17.806  0.00  0.00    +0.000 NA
ATOM      6  C   UNL     1       3.889   4.354  18.061  0.00  0.00    +0.000 A 
ATOM      7  C   UNL     1       3.795   2.995  17.794  0.00  0.00    +0.000 A 
ATOM      8  C   UNL     1       2.576   2.347  17.824  0.00  0.00    +0.000 A 
ATOM      9  C   UNL     1       1.458   3.069  18.245  0.00  0.00    +0.000 A 
ATOM     10  C   UNL     1       1.541   4.454  18.523  0.00  0.00    +0.000 A 
ATOM     11  C   UNL     1       2.758   5.165  18.368  0.00  0.00    +0.000 A 
ATOM     12  H   UNL     1       4.219   6.572  15.746  0.00  0.00    +0.000 HD
ENDROOT
BRANCH   4  13
ATOM     13  C   UNL     1       5.709   5.342  15.090  0.00  0.00    +0.000 A 
ATOM     14  C   UNL     1       7.050   5.471  14.717  0.00  0.00    +0.000 A 
ATOM     15  C   UNL     1       7.546   4.772  13.621  0.00  0.00    +0.000 A 
ATOM     16  C   UNL     1       6.709   3.911  12.923  0.00  0.00    +0.000 A 
ATOM     17  C   UNL     1       5.402   3.696  13.354  0.00  0.00    +0.000 A 
ATOM     18  C   UNL     1       4.900   4.408  14.442  0.00  0.00    +0.000 A 
ENDBRANCH   4  13
BRANCH   1  20
ATOM     19  C   UNL     1       2.603   8.756  17.462  0.00  0.00    +0.000 C 
ATOM     20  N   UNL     1       2.221   7.695  18.453  0.00  0.00    +0.000 N 
BRANCH  20  21
ATOM     21  C   UNL     1       1.481   8.295  19.499  0.00  0.00    +0.000 A 
ATOM     22  C   UNL     1       0.930   9.571  19.320  0.00  0.00    +0.000 A 
ATOM     23  C   UNL     1       0.548  10.344  20.426  0.00  0.00    +0.000 A 
ATOM     24  C   UNL     1       0.727   9.860  21.722  0.00  0.00    +0.000 A 
ATOM     25  C   UNL     1       1.261   8.592  21.920  0.00  0.00    +0.000 A 
ATOM     26  C   UNL     1       1.612   7.812  20.817  0.00  0.00    +0.000 A 
ENDBRANCH  20  21
ENDBRANCH   1  20
TORSDOF 3
ENDMDL
MODEL 5
REMARK VINA RESULT:      -7.9      1.370      6.299
REMARK  Name = 
REMARK  4 active torsions:
REMARK  status: ('A' for Active; 'I' for Inactive)
REMARK    1  A    between atoms: C_1  and  N_2
REMARK    2  A    between atoms: N_2  and  C_3
REMARK    3  A    between atoms: N_2  and  C_9
REMARK    4  A    between atoms: N_12  and  C_13
REMARK                            x       y       z     vdW  Elec       q    Type
REMARK                         _______ _______ _______ _____ _____    ______ ____
ROOT
ATOM      1  C   UNL     1       3.059   5.660  19.678  0.00  0.00    +0.000 A 
ATOM      2  N   UNL     1       4.336   6.000  19.445  0.00  0.00    +0.000 NA
ATOM      3  C   UNL     1       5.052   5.256  18.642  0.00  0.00    +0.000 A 
ATOM      4  N   UNL     1       5.204   5.835  17.366  0.00  0.00    +0.000 N 
ATOM      5  N   UNL     1       4.929   3.946  18.678  0.00  0.00    +0.000 NA
ATOM      6  C   UNL     1       3.694   3.554  18.773  0.00  0.00    +0.000 A 
ATOM      7  C   UNL     1       3.496   2.342  18.126  0.00  0.00    +0.000 A 
ATOM      8  C   UNL     1       2.225   1.830  17.948  0.00  0.00    +0.000 A 
ATOM      9  C   UNL     1       1.156   2.505  18.541  0.00  0.00    +0.000 A 
ATOM     10  C   UNL     1       1.346   3.740  19.206  0.00  0.00    +0.000 A 
ATOM     11  C   UNL     1       2.624   4.347  19.281  0.00  0.00    +0.000 A 
ATOM     12  H   UNL     1       4.311   6.297  17.198  0.00  0.00    +0.000 HD
ENDROOT
BRANCH   4  13
ATOM     13  C   UNL     1       5.717   5.169  16.241  0.00  0.00    +0.000 A 
ATOM     14  C   UNL     1       7.068   5.315  15.912  0.00  0.00    +0.000 A 
ATOM     15  C   UNL     1       7.537   4.910  14.667  0.00  0.00    +0.000 A 
ATOM     16  C   UNL     1       6.661   4.319  13.765  0.00  0.00    +0.000 A 
ATOM     17  C   UNL     1       5.339   4.073  14.126  0.00  0.00    +0.000 A 
ATOM     18  C   UNL     1       4.864   4.494  15.367  0.00  0.00    +0.000 A 
ENDBRANCH   4  13
BRANCH   1  20
ATOM     19  C   UNL     1       1.412   6.464  21.244  0.00  0.00    +0.000 C 
ATOM     20  N   UNL     1       2.303   6.788  20.079  0.00  0.00    +0.000 N 
BRANCH  20  21
ATOM     21  C   UNL     1       1.786   7.926  19.415  0.00  0.00    +0.000 A 
ATOM     22  C   UNL     1       2.280   8.282  18.154  0.00  0.00    +0.000 A 
ATOM     23  C   UNL     1       2.094   9.579  17.656  0.00  0.00    +0.000 A 
ATOM     24  C   UNL     1       1.428  10.540  18.417  0.00  0.00    +0.000 A 
ATOM     25  C   UNL     1       0.921  10.204  19.666  0.00  0.00    +0.000 A 
ATOM     26  C   UNL     1       1.080   8.903  20.148  0.00  0.00    +0.000 A 
ENDBRANCH  20  21
ENDBRANCH   1  20
TORSDOF 3
ENDMDL
MODEL 6
REMARK VINA RESULT:      -7.6      3.158      6.016
REMARK  Name = 
REMARK  4 active torsions:
REMARK  status: ('A' for Active; 'I' for Inactive)
REMARK    1  A    between atoms: C_1  and  N_2
REMARK    2  A    between atoms: N_2  and  C_3
REMARK    3  A    between atoms: N_2  and  C_9
REMARK    4  A    between atoms: N_12  and  C_13
REMARK                            x       y       z     vdW  Elec       q    Type
REMARK                         _______ _______ _______ _____ _____    ______ ____
ROOT
ATOM      1  C   UNL     1       1.467   8.630  19.177  0.00  0.00    +0.000 A 
ATOM      2  N   UNL     1       1.519   9.468  18.129  0.00  0.00    +0.000 NA
ATOM      3  C   UNL     1       1.188  10.721  18.307  0.00  0.00    +0.000 A 
ATOM      4  N   UNL     1       2.313  11.568  18.382  0.00  0.00    +0.000 N 
ATOM      5  N   UNL     1       0.173  11.027  19.086  0.00  0.00    +0.000 NA
ATOM      6  C   UNL     1       0.146  10.332  20.183  0.00  0.00    +0.000 A 
ATOM      7  C   UNL     1      -0.391  11.063  21.234  0.00  0.00    +0.000 A 
ATOM      8  C   UNL     1      -0.351  10.583  22.528  0.00  0.00    +0.000 A 
ATOM      9  C   UNL     1       0.138   9.292  22.735  0.00  0.00    +0.000 A 
ATOM     10  C   UNL     1       0.686   8.536  21.672  0.00  0.00    +0.000 A 
ATOM     11  C   UNL     1       0.775   9.066  20.360  0.00  0.00    +0.000 A 
ATOM     12  H   UNL     1       3.010  11.007  18.869  0.00  0.00    +0.000 HD
ENDROOT
BRANCH   4  13
ATOM     13  C   UNL     1       2.278  12.909  18.795  0.00  0.00    +0.000 A 
ATOM     14  C   UNL     1       2.298  13.926  17.835  0.00  0.00    +0.000 A 
ATOM     15  C   UNL     1       2.550  15.242  18.208  0.00  0.00    +0.000 A 
ATOM     16  C   UNL     1       2.740  15.548  19.550  0.00  0.00    +0.000 A 
ATOM     17  C   UNL     1       2.614  14.559  20.522  0.00  0.00    +0.000 A 
ATOM     18  C   UNL     1       2.378  13.238  20.148  0.00  0.00    +0.000 A 
ENDBRANCH   4  13
BRANCH   1  20
ATOM     19  C   UNL     1       3.305   7.785  17.866  0.00  0.00    +0.000 C 
ATOM     20  N   UNL     1       2.334   7.527  18.982  0.00  0.00    +0.000 N 
BRANCH  20  21
ATOM     21  C   UNL     1       2.224   6.130  19.174  0.00  0.00    +0.000 A 
ATOM     22  C   UNL     1       2.049   5.286  18.070  0.00  0.00    +0.000 A 
ATOM     23  C   UNL     1       1.549   3.986  18.239  0.00  0.00    +0.000 A 
ATOM     24  C   UNL     1       1.203   3.520  19.507  0.00  0.00    +0.000 A 
ATOM     25  C   UNL     1       1.380   4.339  20.617  0.00  0.00    +0.000 A 
ATOM     26  C   UNL     1       1.906   5.621  20.451  0.00  0.00    +0.000 A 
ENDBRANCH  20  21
ENDBRANCH   1  20
TORSDOF 3
ENDMDL
MODEL 7
REMARK VINA RESULT:      -7.6      1.405      6.330
REMARK  Name = 
REMARK  4 active torsions:
REMARK  status: ('A' for Active; 'I' for Inactive)
REMARK    1  A    between atoms: C_1  and  N_2
REMARK    2  A    between atoms: N_2  and  C_3
REMARK    3  A    between atoms: N_2  and  C_9
REMARK    4  A    between atoms: N_12  and  C_13
REMARK                            x       y       z     vdW  Elec       q    Type
REMARK                         _______ _______ _______ _____ _____    ______ ____
ROOT
ATOM      1  C   UNL     1       3.160   5.671  19.649  0.00  0.00    +0.000 A 
ATOM      2  N   UNL     1       4.401   6.108  19.382  0.00  0.00    +0.000 NA
ATOM      3  C   UNL     1       5.118   5.469  18.494  0.00  0.00    +0.000 A 
ATOM      4  N   UNL     1       5.170   6.145  17.258  0.00  0.00    +0.000 N 
ATOM      5  N   UNL     1       5.077   4.155  18.440  0.00  0.00    +0.000 NA
ATOM      6  C   UNL     1       3.875   3.678  18.563  0.00  0.00    +0.000 A 
ATOM      7  C   UNL     1       3.717   2.505  17.839  0.00  0.00    +0.000 A 
ATOM      8  C   UNL     1       2.472   1.926  17.684  0.00  0.00    +0.000 A 
ATOM      9  C   UNL     1       1.397   2.488  18.373  0.00  0.00    +0.000 A 
ATOM     10  C   UNL     1       1.544   3.683  19.117  0.00  0.00    +0.000 A 
ATOM     11  C   UNL     1       2.786   4.364  19.177  0.00  0.00    +0.000 A 
ATOM     12  H   UNL     1       4.243   6.559  17.166  0.00  0.00    +0.000 HD
ENDROOT
BRANCH   4  13
ATOM     13  C   UNL     1       5.664   5.594  16.065  0.00  0.00    +0.000 A 
ATOM     14  C   UNL     1       4.792   4.916  15.208  0.00  0.00    +0.000 A 
ATOM     15  C   UNL     1       5.290   4.124  14.178  0.00  0.00    +0.000 A 
ATOM     16  C   UNL     1       6.662   4.045  13.979  0.00  0.00    +0.000 A 
ATOM     17  C   UNL     1       7.532   4.802  14.761  0.00  0.00    +0.000 A 
ATOM     18  C   UNL     1       7.034   5.582  15.803  0.00  0.00    +0.000 A 
ENDBRANCH   4  13
BRANCH   1  20
ATOM     19  C   UNL     1       1.297   6.189  21.088  0.00  0.00    +0.000 C 
ATOM     20  N   UNL     1       2.358   6.717  20.166  0.00  0.00    +0.000 N 
BRANCH  20  21
ATOM     21  C   UNL     1       1.957   7.989  19.693  0.00  0.00    +0.000 A 
ATOM     22  C   UNL     1       1.105   8.784  20.469  0.00  0.00    +0.000 A 
ATOM     23  C   UNL     1       0.384   9.837  19.887  0.00  0.00    +0.000 A 
ATOM     24  C   UNL     1       0.493  10.096  18.520  0.00  0.00    +0.000 A 
ATOM     25  C   UNL     1       1.342   9.326  17.735  0.00  0.00    +0.000 A 
ATOM     26  C   UNL     1       2.081   8.297  18.322  0.00  0.00    +0.000 A 
ENDBRANCH  20  21
ENDBRANCH   1  20
TORSDOF 3
ENDMDL
MODEL 8
REMARK VINA RESULT:      -7.5      3.166      6.009
REMARK  Name = 
REMARK  4 active torsions:
REMARK  status: ('A' for Active; 'I' for Inactive)
REMARK    1  A    between atoms: C_1  and  N_2
REMARK    2  A    between atoms: N_2  and  C_3
REMARK    3  A    between atoms: N_2  and  C_9
REMARK    4  A    between atoms: N_12  and  C_13
REMARK                            x       y       z     vdW  Elec       q    Type
REMARK                         _______ _______ _______ _____ _____    ______ ____
ROOT
ATOM      1  C   UNL     1       1.294   8.587  19.317  0.00  0.00    +0.000 A 
ATOM      2  N   UNL     1       1.149   9.348  18.220  0.00  0.00    +0.000 NA
ATOM      3  C   UNL     1       0.708  10.572  18.355  0.00  0.00    +0.000 A 
ATOM      4  N   UNL     1       1.738  11.529  18.254  0.00  0.00    +0.000 N 
ATOM      5  N   UNL     1      -0.249  10.833  19.220  0.00  0.00    +0.000 NA
ATOM      6  C   UNL     1      -0.090  10.220  20.354  0.00  0.00    +0.000 A 
ATOM      7  C   UNL     1      -0.591  10.970  21.410  0.00  0.00    +0.000 A 
ATOM      8  C   UNL     1      -0.367  10.591  22.720  0.00  0.00    +0.000 A 
ATOM      9  C   UNL     1       0.274   9.373  22.951  0.00  0.00    +0.000 A 
ATOM     10  C   UNL     1       0.787   8.599  21.883  0.00  0.00    +0.000 A 
ATOM     11  C   UNL     1       0.685   9.038  20.540  0.00  0.00    +0.000 A 
ATOM     12  H   UNL     1       2.537  11.076  18.696  0.00  0.00    +0.000 HD
ENDROOT
BRANCH   4  13
ATOM     13  C   UNL     1       1.604  12.887  18.585  0.00  0.00    +0.000 A 
ATOM     14  C   UNL     1       2.609  13.517  19.326  0.00  0.00    +0.000 A 
ATOM     15  C   UNL     1       2.382  14.760  19.907  0.00  0.00    +0.000 A 
ATOM     16  C   UNL     1       1.161  15.393  19.710  0.00  0.00    +0.000 A 
ATOM     17  C   UNL     1       0.196  14.822  18.885  0.00  0.00    +0.000 A 
ATOM     18  C   UNL     1       0.417  13.569  18.316  0.00  0.00    +0.000 A 
ENDBRANCH   4  13
BRANCH   1  20
ATOM     19  C   UNL     1       3.191   7.924  17.985  0.00  0.00    +0.000 C 
ATOM     20  N   UNL     1       2.247   7.564  19.097  0.00  0.00    +0.000 N 
BRANCH  20  21
ATOM     21  C   UNL     1       2.253   6.158  19.259  0.00  0.00    +0.000 A 
ATOM     22  C   UNL     1       2.250   5.327  18.133  0.00  0.00    +0.000 A 
ATOM     23  C   UNL     1       1.863   3.983  18.239  0.00  0.00    +0.000 A 
ATOM     24  C   UNL     1       1.457   3.459  19.467  0.00  0.00    +0.000 A 
ATOM     25  C   UNL     1       1.464   4.266  20.599  0.00  0.00    +0.000 A 
ATOM     26  C   UNL     1       1.880   5.595  20.497  0.00  0.00    +0.000 A 
ENDBRANCH  20  21
ENDBRANCH   1  20
TORSDOF 3
ENDMDL
MODEL 9
REMARK VINA RESULT:      -7.5      1.192      2.181
REMARK  Name = 
REMARK  4 active torsions:
REMARK  status: ('A' for Active; 'I' for Inactive)
REMARK    1  A    between atoms: C_1  and  N_2
REMARK    2  A    between atoms: N_2  and  C_3
REMARK    3  A    between atoms: N_2  and  C_9
REMARK    4  A    between atoms: N_12  and  C_13
REMARK                            x       y       z     vdW  Elec       q    Type
REMARK                         _______ _______ _______ _____ _____    ______ ____
ROOT
ATOM      1  C   UNL     1       3.973   5.074  17.650  0.00  0.00    +0.000 A 
ATOM      2  N   UNL     1       3.290   6.124  17.168  0.00  0.00    +0.000 NA
ATOM      3  C   UNL     1       2.258   6.569  17.837  0.00  0.00    +0.000 A 
ATOM      4  N   UNL     1       2.550   7.745  18.558  0.00  0.00    +0.000 N 
ATOM      5  N   UNL     1       1.436   5.718  18.415  0.00  0.00    +0.000 NA
ATOM      6  C   UNL     1       2.051   4.743  19.013  0.00  0.00    +0.000 A 
ATOM      7  C   UNL     1       1.351   4.312  20.132  0.00  0.00    +0.000 A 
ATOM      8  C   UNL     1       1.909   3.408  21.015  0.00  0.00    +0.000 A 
ATOM      9  C   UNL     1       3.146   2.851  20.691  0.00  0.00    +0.000 A 
ATOM     10  C   UNL     1       3.869   3.280  19.552  0.00  0.00    +0.000 A 
ATOM     11  C   UNL     1       3.372   4.304  18.707  0.00  0.00    +0.000 A 
ATOM     12  H   UNL     1       3.513   7.612  18.864  0.00  0.00    +0.000 HD
ENDROOT
BRANCH   4  13
ATOM     13  C   UNL     1       1.718   8.311  19.536  0.00  0.00    +0.000 A 
ATOM     14  C   UNL     1       0.934   9.423  19.214  0.00  0.00    +0.000 A 
ATOM     15  C   UNL     1       0.327  10.172  20.216  0.00  0.00    +0.000 A 
ATOM     16  C   UNL     1       0.469   9.782  21.542  0.00  0.00    +0.000 A 
ATOM     17  C   UNL     1       1.158   8.614  21.862  0.00  0.00    +0.000 A 
ATOM     18  C   UNL     1       1.780   7.873  20.860  0.00  0.00    +0.000 A 
ENDBRANCH   4  13
BRANCH   1  20
ATOM     19  C   UNL     1       5.630   3.765  16.489  0.00  0.00    +0.000 C 
ATOM     20  N   UNL     1       5.300   5.067  17.159  0.00  0.00    +0.000 N 
BRANCH  20  21
ATOM     21  C   UNL     1       6.507   5.696  17.547  0.00  0.00    +0.000 A 
ATOM     22  C   UNL     1       7.166   5.283  18.712  0.00  0.00    +0.000 A 
ATOM     23  C   UNL     1       8.112   6.114  19.330  0.00  0.00    +0.000 A 
ATOM     24  C   UNL     1       8.398   7.373  18.802  0.00  0.00    +0.000 A 
ATOM     25  C   UNL     1       7.763   7.797  17.640  0.00  0.00    +0.000 A 
ATOM     26  C   UNL     1       6.844   6.956  17.009  0.00  0.00    +0.000 A 
ENDBRANCH  20  21
ENDBRANCH   1  20
TORSDOF 3
ENDMDL
