MODEL 1
REMARK VINA RESULT:      -7.1      0.000      0.000
REMARK  Name = 
REMARK  7 active torsions:
REMARK  status: ('A' for Active; 'I' for Inactive)
REMARK    1  A    between atoms: C_1  and  N_2
REMARK    2  A    between atoms: C_4  and  S_5
REMARK    3  A    between atoms: S_5  and  N_6
REMARK    4  A    between atoms: N_11  and  S_12
REMARK    5  A    between atoms: S_12  and  C_15
REMARK    6  A    between atoms: C_18  and  C_19
REMARK    7  A    between atoms: C_19  and  O_21
REMARK                            x       y       z     vdW  Elec       q    Type
REMARK                         _______ _______ _______ _____ _____    ______ ____
ROOT
ATOM      1  C   UNL     1       2.523   4.164  20.871  0.00  0.00    +0.000 C 
ATOM      2  N   UNL     1       2.319   5.511  20.369  0.00  0.00    +0.000 N 
ATOM      3  N   UNL     1       1.461   6.305  21.122  0.00  0.00    +0.000 NA
ATOM      4  C   UNL     1       1.409   7.495  20.588  0.00  0.00    +0.000 A 
ATOM      5  S   UNL     1       2.382   7.762  19.151  0.00  0.00    +0.000 S 
ATOM      6  C   UNL     1       2.939   6.080  19.267  0.00  0.00    +0.000 A 
ATOM      7  N   UNL     1       3.762   5.765  18.346  0.00  0.00    +0.000 NA
ENDROOT
BRANCH   4   8
ATOM      8  S   UNL     1       0.400   8.796  21.282  0.00  0.00    +0.000 S 
ATOM      9  O   UNL     1       0.299   9.808  20.256  0.00  0.00    +0.000 OA
ATOM     10  O   UNL     1      -0.757   8.139  21.847  0.00  0.00    +0.000 OA
BRANCH   8  11
ATOM     11  N   UNL     1       1.204   9.517  22.572  0.00  0.00    +0.000 NA
ATOM     12  H   UNL     1       1.200   8.982  23.438  0.00  0.00    +0.000 HD
ATOM     13  H   UNL     1       1.142  10.529  22.623  0.00  0.00    +0.000 HD
ENDBRANCH   8  11
ENDBRANCH   4   8
BRANCH   7  14
ATOM     14  S   UNL     1       4.405   4.308  18.206  0.00  0.00    +0.000 S 
ATOM     15  O   UNL     1       5.327   4.071  19.299  0.00  0.00    +0.000 OA
ATOM     16  O   UNL     1       3.361   3.347  17.912  0.00  0.00    +0.000 OA
BRANCH  14  17
ATOM     17  C   UNL     1       5.404   4.463  16.732  0.00  0.00    +0.000 A 
ATOM     18  C   UNL     1       4.835   4.160  15.492  0.00  0.00    +0.000 A 
ATOM     19  C   UNL     1       5.592   4.318  14.331  0.00  0.00    +0.000 A 
ATOM     20  C   UNL     1       6.915   4.780  14.403  0.00  0.00    +0.000 A 
ATOM     21  C   UNL     1       7.475   5.092  15.652  0.00  0.00    +0.000 A 
ATOM     22  C   UNL     1       6.719   4.932  16.820  0.00  0.00    +0.000 A 
BRANCH  20  23
ATOM     23  C   UNL     1       7.638   4.982  13.118  0.00  0.00    +0.000 C 
ATOM     24  O   UNL     1       7.340   4.380  12.099  0.00  0.00    +0.000 OA
BRANCH  23  25
ATOM     25  O   UNL     1       8.665   5.853  13.180  0.00  0.00    +0.000 OA
ATOM     26  H   UNL     1       8.741   6.361  14.006  0.00  0.00    +0.000 HD
ENDBRANCH  23  25
ENDBRANCH  20  23
ENDBRANCH  14  17
ENDBRANCH   7  14
TORSDOF 6
ENDMDL
MODEL 2
REMARK VINA RESULT:      -6.7      0.257      1.226
REMARK  Name = 
REMARK  7 active torsions:
REMARK  status: ('A' for Active; 'I' for Inactive)
REMARK    1  A    between atoms: C_1  and  N_2
REMARK    2  A    between atoms: C_4  and  S_5
REMARK    3  A    between atoms: S_5  and  N_6
REMARK    4  A    between atoms: N_11  and  S_12
REMARK    5  A    between atoms: S_12  and  C_15
REMARK    6  A    between atoms: C_18  and  C_19
REMARK    7  A    between atoms: C_19  and  O_21
REMARK                            x       y       z     vdW  Elec       q    Type
REMARK                         _______ _______ _______ _____ _____    ______ ____
ROOT
ATOM      1  C   UNL     1       2.470   4.195  20.706  0.00  0.00    +0.000 C 
ATOM      2  N   UNL     1       2.253   5.560  20.263  0.00  0.00    +0.000 N 
ATOM      3  N   UNL     1       1.435   6.330  21.084  0.00  0.00    +0.000 NA
ATOM      4  C   UNL     1       1.367   7.540  20.597  0.00  0.00    +0.000 A 
ATOM      5  S   UNL     1       2.275   7.855  19.127  0.00  0.00    +0.000 S 
ATOM      6  C   UNL     1       2.826   6.167  19.156  0.00  0.00    +0.000 A 
ATOM      7  N   UNL     1       3.603   5.882  18.187  0.00  0.00    +0.000 NA
ENDROOT
BRANCH   4   8
ATOM      8  S   UNL     1       0.399   8.819  21.384  0.00  0.00    +0.000 S 
ATOM      9  O   UNL     1       0.283   9.881  20.412  0.00  0.00    +0.000 OA
ATOM     10  O   UNL     1      -0.750   8.151  21.953  0.00  0.00    +0.000 OA
BRANCH   8  11
ATOM     11  N   UNL     1       1.254   9.466  22.681  0.00  0.00    +0.000 NA
ATOM     12  H   UNL     1       2.257   9.558  22.536  0.00  0.00    +0.000 HD
ATOM     13  H   UNL     1       0.916   9.213  23.604  0.00  0.00    +0.000 HD
ENDBRANCH   8  11
ENDBRANCH   4   8
BRANCH   7  14
ATOM     14  S   UNL     1       4.229   4.428  17.964  0.00  0.00    +0.000 S 
ATOM     15  O   UNL     1       5.147   4.118  19.042  0.00  0.00    +0.000 OA
ATOM     16  O   UNL     1       3.174   3.498  17.615  0.00  0.00    +0.000 OA
BRANCH  14  17
ATOM     17  C   UNL     1       5.231   4.656  16.502  0.00  0.00    +0.000 A 
ATOM     18  C   UNL     1       6.431   5.365  16.604  0.00  0.00    +0.000 A 
ATOM     19  C   UNL     1       7.241   5.512  15.478  0.00  0.00    +0.000 A 
ATOM     20  C   UNL     1       6.860   4.952  14.250  0.00  0.00    +0.000 A 
ATOM     21  C   UNL     1       5.659   4.231  14.159  0.00  0.00    +0.000 A 
ATOM     22  C   UNL     1       4.841   4.084  15.286  0.00  0.00    +0.000 A 
BRANCH  20  23
ATOM     23  C   UNL     1       7.805   5.097  13.110  0.00  0.00    +0.000 C 
ATOM     24  O   UNL     1       8.788   5.819  13.165  0.00  0.00    +0.000 OA
BRANCH  23  25
ATOM     25  O   UNL     1       7.471   4.399  12.007  0.00  0.00    +0.000 OA
ATOM     26  H   UNL     1       6.544   4.108  11.954  0.00  0.00    +0.000 HD
ENDBRANCH  23  25
ENDBRANCH  20  23
ENDBRANCH  14  17
ENDBRANCH   7  14
TORSDOF 6
ENDMDL
MODEL 3
REMARK VINA RESULT:      -6.7      2.241      2.734
REMARK  Name = 
REMARK  7 active torsions:
REMARK  status: ('A' for Active; 'I' for Inactive)
REMARK    1  A    between atoms: C_1  and  N_2
REMARK    2  A    between atoms: C_4  and  S_5
REMARK    3  A    between atoms: S_5  and  N_6
REMARK    4  A    between atoms: N_11  and  S_12
REMARK    5  A    between atoms: S_12  and  C_15
REMARK    6  A    between atoms: C_18  and  C_19
REMARK    7  A    between atoms: C_19  and  O_21
REMARK                            x       y       z     vdW  Elec       q    Type
REMARK                         _______ _______ _______ _____ _____    ______ ____
ROOT
ATOM      1  C   UNL     1       1.427   6.950  20.993  0.00  0.00    +0.000 C 
ATOM      2  N   UNL     1       1.384   8.063  20.062  0.00  0.00    +0.000 N 
ATOM      3  N   UNL     1       0.684   9.181  20.502  0.00  0.00    +0.000 NA
ATOM      4  C   UNL     1       0.767  10.117  19.594  0.00  0.00    +0.000 A 
ATOM      5  S   UNL     1       1.691   9.738  18.149  0.00  0.00    +0.000 S 
ATOM      6  C   UNL     1       2.017   8.131  18.830  0.00  0.00    +0.000 A 
ATOM      7  N   UNL     1       2.739   7.406  18.070  0.00  0.00    +0.000 NA
ENDROOT
BRANCH   4   8
ATOM      8  S   UNL     1      -0.015  11.709  19.806  0.00  0.00    +0.000 S 
ATOM      9  O   UNL     1      -1.270  11.447  20.471  0.00  0.00    +0.000 OA
ATOM     10  O   UNL     1       0.999  12.575  20.364  0.00  0.00    +0.000 OA
BRANCH   8  11
ATOM     11  N   UNL     1      -0.409  12.357  18.304  0.00  0.00    +0.000 NA
ATOM     12  H   UNL     1      -0.958  11.748  17.701  0.00  0.00    +0.000 HD
ATOM     13  H   UNL     1       0.293  12.958  17.884  0.00  0.00    +0.000 HD
ENDBRANCH   8  11
ENDBRANCH   4   8
BRANCH   7  14
ATOM     14  S   UNL     1       3.167   5.910  18.432  0.00  0.00    +0.000 S 
ATOM     15  O   UNL     1       3.995   5.911  19.622  0.00  0.00    +0.000 OA
ATOM     16  O   UNL     1       2.007   5.044  18.352  0.00  0.00    +0.000 OA
BRANCH  14  17
ATOM     17  C   UNL     1       4.242   5.472  17.073  0.00  0.00    +0.000 A 
ATOM     18  C   UNL     1       4.777   6.487  16.276  0.00  0.00    +0.000 A 
ATOM     19  C   UNL     1       5.651   6.160  15.239  0.00  0.00    +0.000 A 
ATOM     20  C   UNL     1       5.994   4.822  14.996  0.00  0.00    +0.000 A 
ATOM     21  C   UNL     1       5.461   3.808  15.808  0.00  0.00    +0.000 A 
ATOM     22  C   UNL     1       4.581   4.133  16.848  0.00  0.00    +0.000 A 
BRANCH  20  23
ATOM     23  C   UNL     1       6.980   4.556  13.913  0.00  0.00    +0.000 C 
ATOM     24  O   UNL     1       7.926   5.296  13.695  0.00  0.00    +0.000 OA
BRANCH  23  25
ATOM     25  O   UNL     1       6.724   3.458  13.175  0.00  0.00    +0.000 OA
ATOM     26  H   UNL     1       7.351   3.277  12.453  0.00  0.00    +0.000 HD
ENDBRANCH  23  25
ENDBRANCH  20  23
ENDBRANCH  14  17
ENDBRANCH   7  14
TORSDOF 6
ENDMDL
MODEL 4
REMARK VINA RESULT:      -6.6      2.178      2.668
REMARK  Name = 
REMARK  7 active torsions:
REMARK  status: ('A' for Active; 'I' for Inactive)
REMARK    1  A    between atoms: C_1  and  N_2
REMARK    2  A    between atoms: C_4  and  S_5
REMARK    3  A    between atoms: S_5  and  N_6
REMARK    4  A    between atoms: N_11  and  S_12
REMARK    5  A    between atoms: S_12  and  C_15
REMARK    6  A    between atoms: C_18  and  C_19
REMARK    7  A    between atoms: C_19  and  O_21
REMARK                            x       y       z     vdW  Elec       q    Type
REMARK                         _______ _______ _______ _____ _____    ______ ____
ROOT
ATOM      1  C   UNL     1       1.452   6.922  21.114  0.00  0.00    +0.000 C 
ATOM      2  N   UNL     1       1.425   8.073  20.229  0.00  0.00    +0.000 N 
ATOM      3  N   UNL     1       0.787   9.200  20.735  0.00  0.00    +0.000 NA
ATOM      4  C   UNL     1       0.880  10.166  19.862  0.00  0.00    +0.000 A 
ATOM      5  S   UNL     1       1.738   9.808  18.373  0.00  0.00    +0.000 S 
ATOM      6  C   UNL     1       2.020   8.164  18.979  0.00  0.00    +0.000 A 
ATOM      7  N   UNL     1       2.685   7.441  18.167  0.00  0.00    +0.000 NA
ENDROOT
BRANCH   4   8
ATOM      8  S   UNL     1       0.172  11.779  20.162  0.00  0.00    +0.000 S 
ATOM      9  O   UNL     1       0.412  12.063  21.557  0.00  0.00    +0.000 OA
ATOM     10  O   UNL     1       0.658  12.627  19.097  0.00  0.00    +0.000 OA
BRANCH   8  11
ATOM     11  N   UNL     1      -1.500  11.713  19.980  0.00  0.00    +0.000 NA
ATOM     12  H   UNL     1      -1.824  11.428  19.058  0.00  0.00    +0.000 HD
ATOM     13  H   UNL     1      -2.028  12.415  20.487  0.00  0.00    +0.000 HD
ENDBRANCH   8  11
ENDBRANCH   4   8
BRANCH   7  14
ATOM     14  S   UNL     1       3.062   5.915  18.457  0.00  0.00    +0.000 S 
ATOM     15  O   UNL     1       3.820   5.822  19.689  0.00  0.00    +0.000 OA
ATOM     16  O   UNL     1       1.892   5.083  18.256  0.00  0.00    +0.000 OA
BRANCH  14  17
ATOM     17  C   UNL     1       4.205   5.539  17.136  0.00  0.00    +0.000 A 
ATOM     18  C   UNL     1       4.479   4.202  16.836  0.00  0.00    +0.000 A 
ATOM     19  C   UNL     1       5.337   3.895  15.779  0.00  0.00    +0.000 A 
ATOM     20  C   UNL     1       5.920   4.920  15.018  0.00  0.00    +0.000 A 
ATOM     21  C   UNL     1       5.630   6.260  15.319  0.00  0.00    +0.000 A 
ATOM     22  C   UNL     1       4.772   6.571  16.381  0.00  0.00    +0.000 A 
BRANCH  20  23
ATOM     23  C   UNL     1       6.774   4.514  13.868  0.00  0.00    +0.000 C 
ATOM     24  O   UNL     1       7.650   5.236  13.419  0.00  0.00    +0.000 OA
BRANCH  23  25
ATOM     25  O   UNL     1       6.480   3.307  13.346  0.00  0.00    +0.000 OA
ATOM     26  H   UNL     1       6.784   2.538  13.858  0.00  0.00    +0.000 HD
ENDBRANCH  23  25
ENDBRANCH  20  23
ENDBRANCH  14  17
ENDBRANCH   7  14
TORSDOF 6
ENDMDL
MODEL 5
REMARK VINA RESULT:      -6.6      1.592      1.888
REMARK  Name = 
REMARK  7 active torsions:
REMARK  status: ('A' for Active; 'I' for Inactive)
REMARK    1  A    between atoms: C_1  and  N_2
REMARK    2  A    between atoms: C_4  and  S_5
REMARK    3  A    between atoms: S_5  and  N_6
REMARK    4  A    between atoms: N_11  and  S_12
REMARK    5  A    between atoms: S_12  and  C_15
REMARK    6  A    between atoms: C_18  and  C_19
REMARK    7  A    between atoms: C_19  and  O_21
REMARK                            x       y       z     vdW  Elec       q    Type
REMARK                         _______ _______ _______ _____ _____    ______ ____
ROOT
ATOM      1  C   UNL     1       1.515   5.830  21.141  0.00  0.00    +0.000 C 
ATOM      2  N   UNL     1       1.516   7.136  20.507  0.00  0.00    +0.000 N 
ATOM      3  N   UNL     1       0.876   8.146  21.218  0.00  0.00    +0.000 NA
ATOM      4  C   UNL     1       0.996   9.267  20.561  0.00  0.00    +0.000 A 
ATOM      5  S   UNL     1       1.884   9.207  19.047  0.00  0.00    +0.000 S 
ATOM      6  C   UNL     1       2.139   7.471  19.314  0.00  0.00    +0.000 A 
ATOM      7  N   UNL     1       2.816   6.919  18.386  0.00  0.00    +0.000 NA
ENDROOT
BRANCH   4   8
ATOM      8  S   UNL     1       0.295  10.795  21.167  0.00  0.00    +0.000 S 
ATOM      9  O   UNL     1       1.356  11.772  21.099  0.00  0.00    +0.000 OA
ATOM     10  O   UNL     1      -0.962  10.956  20.469  0.00  0.00    +0.000 OA
BRANCH   8  11
ATOM     11  N   UNL     1      -0.093  10.639  22.797  0.00  0.00    +0.000 NA
ATOM     12  H   UNL     1      -0.768   9.908  23.013  0.00  0.00    +0.000 HD
ATOM     13  H   UNL     1      -0.121  11.502  23.330  0.00  0.00    +0.000 HD
ENDBRANCH   8  11
ENDBRANCH   4   8
BRANCH   7  14
ATOM     14  S   UNL     1       3.175   5.362  18.368  0.00  0.00    +0.000 S 
ATOM     15  O   UNL     1       3.887   5.008  19.580  0.00  0.00    +0.000 OA
ATOM     16  O   UNL     1       2.009   4.604  17.960  0.00  0.00    +0.000 OA
BRANCH  14  17
ATOM     17  C   UNL     1       4.363   5.251  17.038  0.00  0.00    +0.000 A 
ATOM     18  C   UNL     1       4.787   3.990  16.610  0.00  0.00    +0.000 A 
ATOM     19  C   UNL     1       5.682   3.890  15.545  0.00  0.00    +0.000 A 
ATOM     20  C   UNL     1       6.155   5.045  14.903  0.00  0.00    +0.000 A 
ATOM     21  C   UNL     1       5.715   6.307  15.332  0.00  0.00    +0.000 A 
ATOM     22  C   UNL     1       4.819   6.411  16.404  0.00  0.00    +0.000 A 
BRANCH  20  23
ATOM     23  C   UNL     1       7.058   4.856  13.736  0.00  0.00    +0.000 C 
ATOM     24  O   UNL     1       8.059   5.533  13.568  0.00  0.00    +0.000 OA
BRANCH  23  25
ATOM     25  O   UNL     1       6.665   3.904  12.866  0.00  0.00    +0.000 OA
ATOM     26  H   UNL     1       7.364   3.310  12.542  0.00  0.00    +0.000 HD
ENDBRANCH  23  25
ENDBRANCH  20  23
ENDBRANCH  14  17
ENDBRANCH   7  14
TORSDOF 6
ENDMDL
MODEL 6
REMARK VINA RESULT:      -6.6      2.193      2.658
REMARK  Name = 
REMARK  7 active torsions:
REMARK  status: ('A' for Active; 'I' for Inactive)
REMARK    1  A    between atoms: C_1  and  N_2
REMARK    2  A    between atoms: C_4  and  S_5
REMARK    3  A    between atoms: S_5  and  N_6
REMARK    4  A    between atoms: N_11  and  S_12
REMARK    5  A    between atoms: S_12  and  C_15
REMARK    6  A    between atoms: C_18  and  C_19
REMARK    7  A    between atoms: C_19  and  O_21
REMARK                            x       y       z     vdW  Elec       q    Type
REMARK                         _______ _______ _______ _____ _____    ______ ____
ROOT
ATOM      1  C   UNL     1       1.468   7.047  21.173  0.00  0.00    +0.000 C 
ATOM      2  N   UNL     1       1.403   8.156  20.238  0.00  0.00    +0.000 N 
ATOM      3  N   UNL     1       0.760   9.296  20.707  0.00  0.00    +0.000 NA
ATOM      4  C   UNL     1       0.818  10.223  19.789  0.00  0.00    +0.000 A 
ATOM      5  S   UNL     1       1.648   9.809  18.298  0.00  0.00    +0.000 S 
ATOM      6  C   UNL     1       1.968   8.198  18.972  0.00  0.00    +0.000 A 
ATOM      7  N   UNL     1       2.626   7.449  18.178  0.00  0.00    +0.000 NA
ENDROOT
BRANCH   4   8
ATOM      8  S   UNL     1       0.093  11.837  20.033  0.00  0.00    +0.000 S 
ATOM      9  O   UNL     1       1.191  12.774  19.991  0.00  0.00    +0.000 OA
ATOM     10  O   UNL     1      -1.029  11.907  19.123  0.00  0.00    +0.000 OA
BRANCH   8  11
ATOM     11  N   UNL     1      -0.555  11.946  21.582  0.00  0.00    +0.000 NA
ATOM     12  H   UNL     1      -0.366  12.819  22.069  0.00  0.00    +0.000 HD
ATOM     13  H   UNL     1      -0.573  11.083  22.115  0.00  0.00    +0.000 HD
ENDBRANCH   8  11
ENDBRANCH   4   8
BRANCH   7  14
ATOM     14  S   UNL     1       3.032   5.944  18.528  0.00  0.00    +0.000 S 
ATOM     15  O   UNL     1       3.847   5.921  19.725  0.00  0.00    +0.000 OA
ATOM     16  O   UNL     1       1.863   5.093  18.424  0.00  0.00    +0.000 OA
BRANCH  14  17
ATOM     17  C   UNL     1       4.117   5.509  17.175  0.00  0.00    +0.000 A 
ATOM     18  C   UNL     1       4.724   6.528  16.437  0.00  0.00    +0.000 A 
ATOM     19  C   UNL     1       5.606   6.200  15.407  0.00  0.00    +0.000 A 
ATOM     20  C   UNL     1       5.885   4.858  15.111  0.00  0.00    +0.000 A 
ATOM     21  C   UNL     1       5.279   3.840  15.864  0.00  0.00    +0.000 A 
ATOM     22  C   UNL     1       4.391   4.165  16.898  0.00  0.00    +0.000 A 
BRANCH  20  23
ATOM     23  C   UNL     1       6.882   4.587  14.040  0.00  0.00    +0.000 C 
ATOM     24  O   UNL     1       7.845   5.312  13.846  0.00  0.00    +0.000 OA
BRANCH  23  25
ATOM     25  O   UNL     1       6.618   3.504  13.284  0.00  0.00    +0.000 OA
ATOM     26  H   UNL     1       5.938   3.620  12.598  0.00  0.00    +0.000 HD
ENDBRANCH  23  25
ENDBRANCH  20  23
ENDBRANCH  14  17
ENDBRANCH   7  14
TORSDOF 6
ENDMDL
MODEL 7
REMARK VINA RESULT:      -6.5      2.025      2.322
REMARK  Name = 
REMARK  7 active torsions:
REMARK  status: ('A' for Active; 'I' for Inactive)
REMARK    1  A    between atoms: C_1  and  N_2
REMARK    2  A    between atoms: C_4  and  S_5
REMARK    3  A    between atoms: S_5  and  N_6
REMARK    4  A    between atoms: N_11  and  S_12
REMARK    5  A    between atoms: S_12  and  C_15
REMARK    6  A    between atoms: C_18  and  C_19
REMARK    7  A    between atoms: C_19  and  O_21
REMARK                            x       y       z     vdW  Elec       q    Type
REMARK                         _______ _______ _______ _____ _____    ______ ____
ROOT
ATOM      1  C   UNL     1       1.417   6.790  21.143  0.00  0.00    +0.000 C 
ATOM      2  N   UNL     1       1.377   7.958  20.283  0.00  0.00    +0.000 N 
ATOM      3  N   UNL     1       0.703   9.059  20.801  0.00  0.00    +0.000 NA
ATOM      4  C   UNL     1       0.789  10.046  19.950  0.00  0.00    +0.000 A 
ATOM      5  S   UNL     1       1.682   9.741  18.470  0.00  0.00    +0.000 S 
ATOM      6  C   UNL     1       1.992   8.091  19.046  0.00  0.00    +0.000 A 
ATOM      7  N   UNL     1       2.689   7.402  18.231  0.00  0.00    +0.000 NA
ENDROOT
BRANCH   4   8
ATOM      8  S   UNL     1       0.037  11.635  20.272  0.00  0.00    +0.000 S 
ATOM      9  O   UNL     1       0.869  12.608  19.604  0.00  0.00    +0.000 OA
ATOM     10  O   UNL     1      -1.369  11.473  19.974  0.00  0.00    +0.000 OA
BRANCH   8  11
ATOM     11  N   UNL     1       0.129  11.989  21.914  0.00  0.00    +0.000 NA
ATOM     12  H   UNL     1      -0.763  12.185  22.365  0.00  0.00    +0.000 HD
ATOM     13  H   UNL     1       0.949  12.508  22.210  0.00  0.00    +0.000 HD
ENDBRANCH   8  11
ENDBRANCH   4   8
BRANCH   7  14
ATOM     14  S   UNL     1       3.097   5.879  18.495  0.00  0.00    +0.000 S 
ATOM     15  O   UNL     1       3.863   5.782  19.722  0.00  0.00    +0.000 OA
ATOM     16  O   UNL     1       1.943   5.028  18.287  0.00  0.00    +0.000 OA
BRANCH  14  17
ATOM     17  C   UNL     1       4.241   5.546  17.163  0.00  0.00    +0.000 A 
ATOM     18  C   UNL     1       4.557   4.220  16.855  0.00  0.00    +0.000 A 
ATOM     19  C   UNL     1       5.416   3.947  15.790  0.00  0.00    +0.000 A 
ATOM     20  C   UNL     1       5.959   4.993  15.029  0.00  0.00    +0.000 A 
ATOM     21  C   UNL     1       5.628   6.322  15.338  0.00  0.00    +0.000 A 
ATOM     22  C   UNL     1       4.768   6.600  16.409  0.00  0.00    +0.000 A 
BRANCH  20  23
ATOM     23  C   UNL     1       6.816   4.621  13.871  0.00  0.00    +0.000 C 
ATOM     24  O   UNL     1       6.561   3.671  13.148  0.00  0.00    +0.000 OA
BRANCH  23  25
ATOM     25  O   UNL     1       7.909   5.392  13.708  0.00  0.00    +0.000 OA
ATOM     26  H   UNL     1       8.740   4.919  13.530  0.00  0.00    +0.000 HD
ENDBRANCH  23  25
ENDBRANCH  20  23
ENDBRANCH  14  17
ENDBRANCH   7  14
TORSDOF 6
ENDMDL
MODEL 8
REMARK VINA RESULT:      -6.5      1.121      1.341
REMARK  Name = 
REMARK  7 active torsions:
REMARK  status: ('A' for Active; 'I' for Inactive)
REMARK    1  A    between atoms: C_1  and  N_2
REMARK    2  A    between atoms: C_4  and  S_5
REMARK    3  A    between atoms: S_5  and  N_6
REMARK    4  A    between atoms: N_11  and  S_12
REMARK    5  A    between atoms: S_12  and  C_15
REMARK    6  A    between atoms: C_18  and  C_19
REMARK    7  A    between atoms: C_19  and  O_21
REMARK                            x       y       z     vdW  Elec       q    Type
REMARK                         _______ _______ _______ _____ _____    ______ ____
ROOT
ATOM      1  C   UNL     1       1.962   5.082  21.056  0.00  0.00    +0.000 C 
ATOM      2  N   UNL     1       1.815   6.397  20.458  0.00  0.00    +0.000 N 
ATOM      3  N   UNL     1       1.052   7.303  21.186  0.00  0.00    +0.000 NA
ATOM      4  C   UNL     1       1.045   8.449  20.560  0.00  0.00    +0.000 A 
ATOM      5  S   UNL     1       1.951   8.537  19.059  0.00  0.00    +0.000 S 
ATOM      6  C   UNL     1       2.407   6.836  19.283  0.00  0.00    +0.000 A 
ATOM      7  N   UNL     1       3.156   6.395  18.350  0.00  0.00    +0.000 NA
ENDROOT
BRANCH   4   8
ATOM      8  S   UNL     1       0.161   9.865  21.197  0.00  0.00    +0.000 S 
ATOM      9  O   UNL     1      -0.696  10.311  20.123  0.00  0.00    +0.000 OA
ATOM     10  O   UNL     1      -0.350   9.463  22.488  0.00  0.00    +0.000 OA
BRANCH   8  11
ATOM     11  N   UNL     1       1.235  11.126  21.491  0.00  0.00    +0.000 NA
ATOM     12  H   UNL     1       0.897  12.051  21.236  0.00  0.00    +0.000 HD
ATOM     13  H   UNL     1       2.218  10.911  21.355  0.00  0.00    +0.000 HD
ENDBRANCH   8  11
ENDBRANCH   4   8
BRANCH   7  14
ATOM     14  S   UNL     1       3.697   4.892  18.296  0.00  0.00    +0.000 S 
ATOM     15  O   UNL     1       4.563   4.641  19.430  0.00  0.00    +0.000 OA
ATOM     16  O   UNL     1       2.596   3.994  18.007  0.00  0.00    +0.000 OA
BRANCH  14  17
ATOM     17  C   UNL     1       4.751   4.909  16.853  0.00  0.00    +0.000 A 
ATOM     18  C   UNL     1       5.197   3.695  16.324  0.00  0.00    +0.000 A 
ATOM     19  C   UNL     1       5.986   3.694  15.174  0.00  0.00    +0.000 A 
ATOM     20  C   UNL     1       6.329   4.901  14.547  0.00  0.00    +0.000 A 
ATOM     21  C   UNL     1       5.867   6.116  15.078  0.00  0.00    +0.000 A 
ATOM     22  C   UNL     1       5.078   6.121  16.236  0.00  0.00    +0.000 A 
BRANCH  20  23
ATOM     23  C   UNL     1       7.120   4.817  13.289  0.00  0.00    +0.000 C 
ATOM     24  O   UNL     1       7.999   5.618  13.015  0.00  0.00    +0.000 OA
BRANCH  23  25
ATOM     25  O   UNL     1       6.766   3.809  12.467  0.00  0.00    +0.000 OA
ATOM     26  H   UNL     1       7.499   3.290  12.093  0.00  0.00    +0.000 HD
ENDBRANCH  23  25
ENDBRANCH  20  23
ENDBRANCH  14  17
ENDBRANCH   7  14
TORSDOF 6
ENDMDL
MODEL 9
REMARK VINA RESULT:      -6.5      0.775      1.338
REMARK  Name = 
REMARK  7 active torsions:
REMARK  status: ('A' for Active; 'I' for Inactive)
REMARK    1  A    between atoms: C_1  and  N_2
REMARK    2  A    between atoms: C_4  and  S_5
REMARK    3  A    between atoms: S_5  and  N_6
REMARK    4  A    between atoms: N_11  and  S_12
REMARK    5  A    between atoms: S_12  and  C_15
REMARK    6  A    between atoms: C_18  and  C_19
REMARK    7  A    between atoms: C_19  and  O_21
REMARK                            x       y       z     vdW  Elec       q    Type
REMARK                         _______ _______ _______ _____ _____    ______ ____
ROOT
ATOM      1  C   UNL     1       2.386   4.316  20.750  0.00  0.00    +0.000 C 
ATOM      2  N   UNL     1       2.198   5.685  20.303  0.00  0.00    +0.000 N 
ATOM      3  N   UNL     1       1.433   6.487  21.143  0.00  0.00    +0.000 NA
ATOM      4  C   UNL     1       1.387   7.694  20.648  0.00  0.00    +0.000 A 
ATOM      5  S   UNL     1       2.256   7.969  19.147  0.00  0.00    +0.000 S 
ATOM      6  C   UNL     1       2.754   6.265  19.172  0.00  0.00    +0.000 A 
ATOM      7  N   UNL     1       3.490   5.947  18.181  0.00  0.00    +0.000 NA
ENDROOT
BRANCH   4   8
ATOM      8  S   UNL     1       0.487   9.010  21.455  0.00  0.00    +0.000 S 
ATOM      9  O   UNL     1       1.421   9.624  22.370  0.00  0.00    +0.000 OA
ATOM     10  O   UNL     1      -0.168   9.746  20.397  0.00  0.00    +0.000 OA
BRANCH   8  11
ATOM     11  N   UNL     1      -0.742   8.364  22.405  0.00  0.00    +0.000 NA
ATOM     12  H   UNL     1      -1.500   9.006  22.627  0.00  0.00    +0.000 HD
ATOM     13  H   UNL     1      -0.452   7.690  23.106  0.00  0.00    +0.000 HD
ENDBRANCH   8  11
ENDBRANCH   4   8
BRANCH   7  14
ATOM     14  S   UNL     1       4.061   4.473  17.951  0.00  0.00    +0.000 S 
ATOM     15  O   UNL     1       4.960   4.120  19.031  0.00  0.00    +0.000 OA
ATOM     16  O   UNL     1       2.974   3.586  17.588  0.00  0.00    +0.000 OA
BRANCH  14  17
ATOM     17  C   UNL     1       5.080   4.673  16.496  0.00  0.00    +0.000 A 
ATOM     18  C   UNL     1       6.254   5.425  16.588  0.00  0.00    +0.000 A 
ATOM     19  C   UNL     1       7.078   5.552  15.469  0.00  0.00    +0.000 A 
ATOM     20  C   UNL     1       6.736   4.930  14.259  0.00  0.00    +0.000 A 
ATOM     21  C   UNL     1       5.560   4.167  14.179  0.00  0.00    +0.000 A 
ATOM     22  C   UNL     1       4.728   4.040  15.299  0.00  0.00    +0.000 A 
BRANCH  20  23
ATOM     23  C   UNL     1       7.695   5.060  13.129  0.00  0.00    +0.000 C 
ATOM     24  O   UNL     1       7.540   4.473  12.071  0.00  0.00    +0.000 OA
BRANCH  23  25
ATOM     25  O   UNL     1       8.760   5.846  13.381  0.00  0.00    +0.000 OA
ATOM     26  H   UNL     1       9.069   5.859  14.304  0.00  0.00    +0.000 HD
ENDBRANCH  23  25
ENDBRANCH  20  23
ENDBRANCH  14  17
ENDBRANCH   7  14
TORSDOF 6
ENDMDL
