MODEL 1
REMARK VINA RESULT:      -9.2      0.000      0.000
REMARK  Name = 
REMARK  11 active torsions:
REMARK  status: ('A' for Active; 'I' for Inactive)
REMARK    1  A    between atoms: C_1  and  C_2
REMARK    2  A    between atoms: C_5  and  C_6
REMARK    3  A    between atoms: C_8  and  C_9
REMARK    4  A    between atoms: C_16  and  S_17
REMARK    5  A    between atoms: S_17  and  C_18
REMARK    6  A    between atoms: C_18  and  C_19
REMARK    7  A    between atoms: C_18  and  C_20
REMARK    8  A    between atoms: N_22  and  C_23
REMARK    9  A    between atoms: C_26  and  C_27
REMARK   10  A    between atoms: C_28  and  C_29
REMARK   11  A    between atoms: C_31  and  C_32
REMARK                            x       y       z     vdW  Elec       q    Type
REMARK                         _______ _______ _______ _____ _____    ______ ____
ROOT
ATOM      1  C   UNL     1      -2.351  11.336  18.732  0.00  0.00    +0.000 A 
ATOM      2  C   UNL     1      -3.236  12.028  19.581  0.00  0.00    +0.000 A 
ATOM      3  C   UNL     1      -2.870  12.362  20.886  0.00  0.00    +0.000 A 
ATOM      4  N   UNL     1      -1.616  12.148  21.338  0.00  0.00    +0.000 NA
ATOM      5  C   UNL     1      -0.738  11.503  20.538  0.00  0.00    +0.000 A 
ATOM      6  C   UNL     1      -1.076  11.033  19.264  0.00  0.00    +0.000 A 
ENDROOT
BRANCH   1  11
ATOM      7  C   UNL     1      -3.886   9.939  13.279  0.00  0.00    +0.000 C 
ATOM      8  C   UNL     1      -3.549  10.248  14.707  0.00  0.00    +0.000 A 
ATOM      9  C   UNL     1      -4.231  11.244  15.404  0.00  0.00    +0.000 A 
ATOM     10  C   UNL     1      -3.884  11.551  16.724  0.00  0.00    +0.000 A 
ATOM     11  C   UNL     1      -2.804  10.925  17.372  0.00  0.00    +0.000 A 
ATOM     12  C   UNL     1      -2.158   9.894  16.665  0.00  0.00    +0.000 A 
ATOM     13  C   UNL     1      -2.530   9.552  15.358  0.00  0.00    +0.000 A 
ENDBRANCH   1  11
BRANCH   3  14
ATOM     14  C   UNL     1      -3.837  12.905  21.862  0.00  0.00    +0.000 A 
ATOM     15  C   UNL     1      -3.689  12.674  23.245  0.00  0.00    +0.000 A 
ATOM     16  C   UNL     1      -4.579  13.217  24.177  0.00  0.00    +0.000 A 
ATOM     17  C   UNL     1      -5.638  14.008  23.746  0.00  0.00    +0.000 A 
ATOM     18  C   UNL     1      -5.803  14.258  22.386  0.00  0.00    +0.000 A 
ATOM     19  C   UNL     1      -4.909  13.716  21.457  0.00  0.00    +0.000 A 
ENDBRANCH   3  14
BRANCH   6  20
ATOM     20  C   UNL     1      -0.147  10.193  18.565  0.00  0.00    +0.000 C 
ATOM     21  N   UNL     1       0.616   9.519  18.006  0.00  0.00    +0.000 NA
ENDBRANCH   6  20
BRANCH   5  22
ATOM     22  S   UNL     1       0.931  11.289  21.183  0.00  0.00    +0.000 S 
BRANCH  22  23
ATOM     23  C   UNL     1       0.724   9.871  22.326  0.00  0.00    +0.000 C 
ATOM     24  C   UNL     1      -0.517  10.024  23.195  0.00  0.00    +0.000 C 
BRANCH  23  25
ATOM     25  C   UNL     1       0.632   8.574  21.510  0.00  0.00    +0.000 C 
ATOM     26  O   UNL     1      -0.464   8.039  21.343  0.00  0.00    +0.000 OA
ATOM     27  N   UNL     1       1.839   8.118  20.987  0.00  0.00    +0.000 N 
ATOM     28  H   UNL     1       2.678   8.516  21.397  0.00  0.00    +0.000 HD
BRANCH  27  29
ATOM     29  C   UNL     1       2.014   6.966  20.188  0.00  0.00    +0.000 A 
ATOM     30  C   UNL     1       2.525   7.016  18.894  0.00  0.00    +0.000 A 
ATOM     31  C   UNL     1       2.573   5.868  18.104  0.00  0.00    +0.000 A 
ATOM     32  C   UNL     1       2.113   4.637  18.588  0.00  0.00    +0.000 A 
ATOM     33  C   UNL     1       2.092   3.461  17.651  0.00  0.00    +0.000 C 
ATOM     34  C   UNL     1       1.656   4.556  19.917  0.00  0.00    +0.000 A 
ATOM     35  C   UNL     1       1.145   3.276  20.524  0.00  0.00    +0.000 C 
ATOM     36  C   UNL     1       1.634   5.723  20.712  0.00  0.00    +0.000 A 
ENDBRANCH  27  29
ENDBRANCH  23  25
ENDBRANCH  22  23
ENDBRANCH   5  22
TORSDOF 7
ENDMDL
MODEL 2
REMARK VINA RESULT:      -9.1      1.260      5.360
REMARK  Name = 
REMARK  11 active torsions:
REMARK  status: ('A' for Active; 'I' for Inactive)
REMARK    1  A    between atoms: C_1  and  C_2
REMARK    2  A    between atoms: C_5  and  C_6
REMARK    3  A    between atoms: C_8  and  C_9
REMARK    4  A    between atoms: C_16  and  S_17
REMARK    5  A    between atoms: S_17  and  C_18
REMARK    6  A    between atoms: C_18  and  C_19
REMARK    7  A    between atoms: C_18  and  C_20
REMARK    8  A    between atoms: N_22  and  C_23
REMARK    9  A    between atoms: C_26  and  C_27
REMARK   10  A    between atoms: C_28  and  C_29
REMARK   11  A    between atoms: C_31  and  C_32
REMARK                            x       y       z     vdW  Elec       q    Type
REMARK                         _______ _______ _______ _____ _____    ______ ____
ROOT
ATOM      1  C   UNL     1      -2.750  12.877  20.916  0.00  0.00    +0.000 A 
ATOM      2  C   UNL     1      -3.230  12.245  19.753  0.00  0.00    +0.000 A 
ATOM      3  C   UNL     1      -2.370  11.541  18.908  0.00  0.00    +0.000 A 
ATOM      4  N   UNL     1      -1.078  11.333  19.240  0.00  0.00    +0.000 NA
ATOM      5  C   UNL     1      -0.594  11.910  20.362  0.00  0.00    +0.000 A 
ATOM      6  C   UNL     1      -1.371  12.729  21.190  0.00  0.00    +0.000 A 
ENDROOT
BRANCH   1  11
ATOM      7  C   UNL     1      -6.633  16.016  23.935  0.00  0.00    +0.000 C 
ATOM      8  C   UNL     1      -5.582  15.221  23.220  0.00  0.00    +0.000 A 
ATOM      9  C   UNL     1      -4.642  15.848  22.404  0.00  0.00    +0.000 A 
ATOM     10  C   UNL     1      -3.689  15.094  21.710  0.00  0.00    +0.000 A 
ATOM     11  C   UNL     1      -3.681  13.689  21.752  0.00  0.00    +0.000 A 
ATOM     12  C   UNL     1      -4.612  13.080  22.614  0.00  0.00    +0.000 A 
ATOM     13  C   UNL     1      -5.540  13.833  23.346  0.00  0.00    +0.000 A 
ENDBRANCH   1  11
BRANCH   3  14
ATOM     14  C   UNL     1      -2.799  11.041  17.586  0.00  0.00    +0.000 A 
ATOM     15  C   UNL     1      -3.951  11.547  16.951  0.00  0.00    +0.000 A 
ATOM     16  C   UNL     1      -4.340  11.105  15.682  0.00  0.00    +0.000 A 
ATOM     17  C   UNL     1      -3.582  10.149  15.016  0.00  0.00    +0.000 A 
ATOM     18  C   UNL     1      -2.434   9.638  15.618  0.00  0.00    +0.000 A 
ATOM     19  C   UNL     1      -2.046  10.084  16.886  0.00  0.00    +0.000 A 
ENDBRANCH   3  14
BRANCH   6  20
ATOM     20  C   UNL     1      -0.728  13.455  22.247  0.00  0.00    +0.000 C 
ATOM     21  N   UNL     1      -0.198  14.033  23.104  0.00  0.00    +0.000 NA
ENDBRANCH   6  20
BRANCH   5  22
ATOM     22  S   UNL     1       1.125  11.556  20.772  0.00  0.00    +0.000 S 
BRANCH  22  23
ATOM     23  C   UNL     1       1.009   9.882  21.509  0.00  0.00    +0.000 C 
ATOM     24  C   UNL     1      -0.356   9.637  22.138  0.00  0.00    +0.000 C 
BRANCH  23  25
ATOM     25  C   UNL     1       1.278   8.831  20.423  0.00  0.00    +0.000 C 
ATOM     26  O   UNL     1       1.139   9.135  19.238  0.00  0.00    +0.000 OA
ATOM     27  N   UNL     1       1.700   7.591  20.892  0.00  0.00    +0.000 N 
ATOM     28  H   UNL     1       1.542   7.413  21.879  0.00  0.00    +0.000 HD
BRANCH  27  29
ATOM     29  C   UNL     1       2.031   6.471  20.096  0.00  0.00    +0.000 A 
ATOM     30  C   UNL     1       2.807   6.567  18.945  0.00  0.00    +0.000 A 
ATOM     31  C   UNL     1       3.011   5.454  18.130  0.00  0.00    +0.000 A 
ATOM     32  C   UNL     1       2.446   4.212  18.447  0.00  0.00    +0.000 A 
ATOM     33  C   UNL     1       2.614   3.078  17.474  0.00  0.00    +0.000 C 
ATOM     34  C   UNL     1       1.714   4.082  19.643  0.00  0.00    +0.000 A 
ATOM     35  C   UNL     1       1.073   2.788  20.067  0.00  0.00    +0.000 C 
ATOM     36  C   UNL     1       1.535   5.215  20.468  0.00  0.00    +0.000 A 
ENDBRANCH  27  29
ENDBRANCH  23  25
ENDBRANCH  22  23
ENDBRANCH   5  22
TORSDOF 7
ENDMDL
MODEL 3
REMARK VINA RESULT:      -8.8      1.330      5.439
REMARK  Name = 
REMARK  11 active torsions:
REMARK  status: ('A' for Active; 'I' for Inactive)
REMARK    1  A    between atoms: C_1  and  C_2
REMARK    2  A    between atoms: C_5  and  C_6
REMARK    3  A    between atoms: C_8  and  C_9
REMARK    4  A    between atoms: C_16  and  S_17
REMARK    5  A    between atoms: S_17  and  C_18
REMARK    6  A    between atoms: C_18  and  C_19
REMARK    7  A    between atoms: C_18  and  C_20
REMARK    8  A    between atoms: N_22  and  C_23
REMARK    9  A    between atoms: C_26  and  C_27
REMARK   10  A    between atoms: C_28  and  C_29
REMARK   11  A    between atoms: C_31  and  C_32
REMARK                            x       y       z     vdW  Elec       q    Type
REMARK                         _______ _______ _______ _____ _____    ______ ____
ROOT
ATOM      1  C   UNL     1      -2.599  12.763  20.979  0.00  0.00    +0.000 A 
ATOM      2  C   UNL     1      -3.077  12.173  19.793  0.00  0.00    +0.000 A 
ATOM      3  C   UNL     1      -2.226  11.455  18.951  0.00  0.00    +0.000 A 
ATOM      4  N   UNL     1      -0.949  11.194  19.304  0.00  0.00    +0.000 NA
ATOM      5  C   UNL     1      -0.467  11.730  20.448  0.00  0.00    +0.000 A 
ATOM      6  C   UNL     1      -1.232  12.560  21.277  0.00  0.00    +0.000 A 
ENDROOT
BRANCH   1  11
ATOM      7  C   UNL     1      -6.456  15.893  24.040  0.00  0.00    +0.000 C 
ATOM      8  C   UNL     1      -5.407  15.117  23.303  0.00  0.00    +0.000 A 
ATOM      9  C   UNL     1      -4.682  15.700  22.265  0.00  0.00    +0.000 A 
ATOM     10  C   UNL     1      -3.731  14.957  21.557  0.00  0.00    +0.000 A 
ATOM     11  C   UNL     1      -3.517  13.590  21.813  0.00  0.00    +0.000 A 
ATOM     12  C   UNL     1      -4.230  13.034  22.891  0.00  0.00    +0.000 A 
ATOM     13  C   UNL     1      -5.151  13.786  23.633  0.00  0.00    +0.000 A 
ENDBRANCH   1  11
BRANCH   3  14
ATOM     14  C   UNL     1      -2.644  10.998  17.610  0.00  0.00    +0.000 A 
ATOM     15  C   UNL     1      -1.926  10.001  16.920  0.00  0.00    +0.000 A 
ATOM     16  C   UNL     1      -2.339   9.536  15.667  0.00  0.00    +0.000 A 
ATOM     17  C   UNL     1      -3.485  10.057  15.077  0.00  0.00    +0.000 A 
ATOM     18  C   UNL     1      -4.217  11.038  15.741  0.00  0.00    +0.000 A 
ATOM     19  C   UNL     1      -3.803  11.499  16.995  0.00  0.00    +0.000 A 
ENDBRANCH   3  14
BRANCH   6  20
ATOM     20  C   UNL     1      -0.586  13.240  22.362  0.00  0.00    +0.000 C 
ATOM     21  N   UNL     1      -0.075  13.792  23.248  0.00  0.00    +0.000 NA
ENDBRANCH   6  20
BRANCH   5  22
ATOM     22  S   UNL     1       1.229  11.306  20.884  0.00  0.00    +0.000 S 
BRANCH  22  23
ATOM     23  C   UNL     1       1.032   9.642  21.627  0.00  0.00    +0.000 C 
ATOM     24  C   UNL     1      -0.356   9.453  22.225  0.00  0.00    +0.000 C 
BRANCH  23  25
ATOM     25  C   UNL     1       1.286   8.576  20.553  0.00  0.00    +0.000 C 
ATOM     26  O   UNL     1       1.177   8.874  19.364  0.00  0.00    +0.000 OA
ATOM     27  N   UNL     1       1.660   7.326  21.039  0.00  0.00    +0.000 N 
ATOM     28  H   UNL     1       1.480   7.161  22.024  0.00  0.00    +0.000 HD
BRANCH  27  29
ATOM     29  C   UNL     1       1.969   6.190  20.257  0.00  0.00    +0.000 A 
ATOM     30  C   UNL     1       1.240   5.007  20.324  0.00  0.00    +0.000 A 
ATOM     31  C   UNL     1       1.652   3.877  19.617  0.00  0.00    +0.000 A 
ATOM     32  C   UNL     1       2.804   3.902  18.821  0.00  0.00    +0.000 A 
ATOM     33  C   UNL     1       3.253   2.623  18.171  0.00  0.00    +0.000 C 
ATOM     34  C   UNL     1       3.515   5.110  18.689  0.00  0.00    +0.000 A 
ATOM     35  C   UNL     1       4.761   5.233  17.853  0.00  0.00    +0.000 C 
ATOM     36  C   UNL     1       3.072   6.251  19.394  0.00  0.00    +0.000 A 
ENDBRANCH  27  29
ENDBRANCH  23  25
ENDBRANCH  22  23
ENDBRANCH   5  22
TORSDOF 7
ENDMDL
MODEL 4
REMARK VINA RESULT:      -8.6      1.553      5.568
REMARK  Name = 
REMARK  11 active torsions:
REMARK  status: ('A' for Active; 'I' for Inactive)
REMARK    1  A    between atoms: C_1  and  C_2
REMARK    2  A    between atoms: C_5  and  C_6
REMARK    3  A    between atoms: C_8  and  C_9
REMARK    4  A    between atoms: C_16  and  S_17
REMARK    5  A    between atoms: S_17  and  C_18
REMARK    6  A    between atoms: C_18  and  C_19
REMARK    7  A    between atoms: C_18  and  C_20
REMARK    8  A    between atoms: N_22  and  C_23
REMARK    9  A    between atoms: C_26  and  C_27
REMARK   10  A    between atoms: C_28  and  C_29
REMARK   11  A    between atoms: C_31  and  C_32
REMARK                            x       y       z     vdW  Elec       q    Type
REMARK                         _______ _______ _______ _____ _____    ______ ____
ROOT
ATOM      1  C   UNL     1      -2.918  12.691  20.786  0.00  0.00    +0.000 A 
ATOM      2  C   UNL     1      -3.415  12.183  19.570  0.00  0.00    +0.000 A 
ATOM      3  C   UNL     1      -2.621  11.381  18.747  0.00  0.00    +0.000 A 
ATOM      4  N   UNL     1      -1.401  10.962  19.145  0.00  0.00    +0.000 NA
ATOM      5  C   UNL     1      -0.907  11.417  20.318  0.00  0.00    +0.000 A 
ATOM      6  C   UNL     1      -1.599  12.319  21.133  0.00  0.00    +0.000 A 
ENDROOT
BRANCH   1  11
ATOM      7  C   UNL     1      -5.961  16.329  24.186  0.00  0.00    +0.000 C 
ATOM      8  C   UNL     1      -5.245  15.387  23.265  0.00  0.00    +0.000 A 
ATOM      9  C   UNL     1      -5.337  14.008  23.439  0.00  0.00    +0.000 A 
ATOM     10  C   UNL     1      -4.634  13.137  22.599  0.00  0.00    +0.000 A 
ATOM     11  C   UNL     1      -3.765  13.611  21.600  0.00  0.00    +0.000 A 
ATOM     12  C   UNL     1      -3.720  15.005  21.415  0.00  0.00    +0.000 A 
ATOM     13  C   UNL     1      -4.456  15.880  22.225  0.00  0.00    +0.000 A 
ENDBRANCH   1  11
BRANCH   3  14
ATOM     14  C   UNL     1      -3.035  10.999  17.382  0.00  0.00    +0.000 A 
ATOM     15  C   UNL     1      -4.159  11.588  16.767  0.00  0.00    +0.000 A 
ATOM     16  C   UNL     1      -4.534  11.259  15.460  0.00  0.00    +0.000 A 
ATOM     17  C   UNL     1      -3.789  10.336  14.735  0.00  0.00    +0.000 A 
ATOM     18  C   UNL     1      -2.669   9.746  15.316  0.00  0.00    +0.000 A 
ATOM     19  C   UNL     1      -2.295  10.079  16.623  0.00  0.00    +0.000 A 
ENDBRANCH   3  14
BRANCH   6  20
ATOM     20  C   UNL     1      -0.922  12.899  22.257  0.00  0.00    +0.000 C 
ATOM     21  N   UNL     1      -0.385  13.375  23.171  0.00  0.00    +0.000 NA
ENDBRANCH   6  20
BRANCH   5  22
ATOM     22  S   UNL     1       0.706  10.784  20.811  0.00  0.00    +0.000 S 
BRANCH  22  23
ATOM     23  C   UNL     1       1.066   9.568  19.487  0.00  0.00    +0.000 C 
ATOM     24  C   UNL     1       2.046  10.124  18.462  0.00  0.00    +0.000 C 
BRANCH  23  25
ATOM     25  C   UNL     1       1.639   8.291  20.116  0.00  0.00    +0.000 C 
ATOM     26  O   UNL     1       1.618   8.155  21.339  0.00  0.00    +0.000 OA
ATOM     27  N   UNL     1       2.123   7.352  19.210  0.00  0.00    +0.000 N 
ATOM     28  H   UNL     1       2.293   7.691  18.269  0.00  0.00    +0.000 HD
BRANCH  27  29
ATOM     29  C   UNL     1       2.677   6.093  19.535  0.00  0.00    +0.000 A 
ATOM     30  C   UNL     1       4.001   5.759  19.264  0.00  0.00    +0.000 A 
ATOM     31  C   UNL     1       4.470   4.467  19.501  0.00  0.00    +0.000 A 
ATOM     32  C   UNL     1       3.628   3.474  20.018  0.00  0.00    +0.000 A 
ATOM     33  C   UNL     1       4.165   2.076  20.149  0.00  0.00    +0.000 C 
ATOM     34  C   UNL     1       2.305   3.814  20.360  0.00  0.00    +0.000 A 
ATOM     35  C   UNL     1       1.329   2.815  20.923  0.00  0.00    +0.000 C 
ATOM     36  C   UNL     1       1.852   5.133  20.135  0.00  0.00    +0.000 A 
ENDBRANCH  27  29
ENDBRANCH  23  25
ENDBRANCH  22  23
ENDBRANCH   5  22
TORSDOF 7
ENDMDL
MODEL 5
REMARK VINA RESULT:      -8.6      2.937      5.548
REMARK  Name = 
REMARK  11 active torsions:
REMARK  status: ('A' for Active; 'I' for Inactive)
REMARK    1  A    between atoms: C_1  and  C_2
REMARK    2  A    between atoms: C_5  and  C_6
REMARK    3  A    between atoms: C_8  and  C_9
REMARK    4  A    between atoms: C_16  and  S_17
REMARK    5  A    between atoms: S_17  and  C_18
REMARK    6  A    between atoms: C_18  and  C_19
REMARK    7  A    between atoms: C_18  and  C_20
REMARK    8  A    between atoms: N_22  and  C_23
REMARK    9  A    between atoms: C_26  and  C_27
REMARK   10  A    between atoms: C_28  and  C_29
REMARK   11  A    between atoms: C_31  and  C_32
REMARK                            x       y       z     vdW  Elec       q    Type
REMARK                         _______ _______ _______ _____ _____    ______ ____
ROOT
ATOM      1  C   UNL     1      -1.916  13.311  21.300  0.00  0.00    +0.000 A 
ATOM      2  C   UNL     1      -1.601  14.366  20.421  0.00  0.00    +0.000 A 
ATOM      3  C   UNL     1      -0.364  14.420  19.775  0.00  0.00    +0.000 A 
ATOM      4  N   UNL     1       0.520  13.405  19.871  0.00  0.00    +0.000 NA
ATOM      5  C   UNL     1       0.237  12.369  20.691  0.00  0.00    +0.000 A 
ATOM      6  C   UNL     1      -0.931  12.310  21.461  0.00  0.00    +0.000 A 
ENDROOT
BRANCH   1  11
ATOM      7  C   UNL     1      -7.068  13.674  24.014  0.00  0.00    +0.000 C 
ATOM      8  C   UNL     1      -5.731  13.511  23.357  0.00  0.00    +0.000 A 
ATOM      9  C   UNL     1      -4.571  13.986  23.968  0.00  0.00    +0.000 A 
ATOM     10  C   UNL     1      -3.332  13.865  23.330  0.00  0.00    +0.000 A 
ATOM     11  C   UNL     1      -3.213  13.328  22.035  0.00  0.00    +0.000 A 
ATOM     12  C   UNL     1      -4.390  12.818  21.456  0.00  0.00    +0.000 A 
ATOM     13  C   UNL     1      -5.627  12.897  22.109  0.00  0.00    +0.000 A 
ENDBRANCH   1  11
BRANCH   3  14
ATOM     14  C   UNL     1       0.074  15.605  19.010  0.00  0.00    +0.000 A 
ATOM     15  C   UNL     1      -0.846  16.590  18.597  0.00  0.00    +0.000 A 
ATOM     16  C   UNL     1      -0.432  17.734  17.906  0.00  0.00    +0.000 A 
ATOM     17  C   UNL     1       0.915  17.920  17.616  0.00  0.00    +0.000 A 
ATOM     18  C   UNL     1       1.845  16.966  18.019  0.00  0.00    +0.000 A 
ATOM     19  C   UNL     1       1.428  15.825  18.713  0.00  0.00    +0.000 A 
ENDBRANCH   3  14
BRANCH   6  20
ATOM     20  C   UNL     1      -1.059  11.276  22.447  0.00  0.00    +0.000 C 
ATOM     21  N   UNL     1      -1.149  10.438  23.247  0.00  0.00    +0.000 NA
ENDBRANCH   6  20
BRANCH   5  22
ATOM     22  S   UNL     1       1.437  11.027  20.738  0.00  0.00    +0.000 S 
BRANCH  22  23
ATOM     23  C   UNL     1       0.570   9.700  19.817  0.00  0.00    +0.000 C 
ATOM     24  C   UNL     1       0.126  10.170  18.438  0.00  0.00    +0.000 C 
BRANCH  23  25
ATOM     25  C   UNL     1       1.501   8.488  19.679  0.00  0.00    +0.000 C 
ATOM     26  O   UNL     1       1.777   7.819  20.675  0.00  0.00    +0.000 OA
ATOM     27  N   UNL     1       1.944   8.227  18.386  0.00  0.00    +0.000 N 
ATOM     28  H   UNL     1       1.835   8.984  17.719  0.00  0.00    +0.000 HD
BRANCH  27  29
ATOM     29  C   UNL     1       2.787   7.162  17.997  0.00  0.00    +0.000 A 
ATOM     30  C   UNL     1       4.069   7.361  17.492  0.00  0.00    +0.000 A 
ATOM     31  C   UNL     1       4.820   6.286  17.016  0.00  0.00    +0.000 A 
ATOM     32  C   UNL     1       4.309   4.982  17.034  0.00  0.00    +0.000 A 
ATOM     33  C   UNL     1       5.123   3.884  16.408  0.00  0.00    +0.000 C 
ATOM     34  C   UNL     1       3.041   4.755  17.602  0.00  0.00    +0.000 A 
ATOM     35  C   UNL     1       2.412   3.389  17.667  0.00  0.00    +0.000 C 
ATOM     36  C   UNL     1       2.303   5.852  18.100  0.00  0.00    +0.000 A 
ENDBRANCH  27  29
ENDBRANCH  23  25
ENDBRANCH  22  23
ENDBRANCH   5  22
TORSDOF 7
ENDMDL
MODEL 6
REMARK VINA RESULT:      -8.5      2.921      5.422
REMARK  Name = 
REMARK  11 active torsions:
REMARK  status: ('A' for Active; 'I' for Inactive)
REMARK    1  A    between atoms: C_1  and  C_2
REMARK    2  A    between atoms: C_5  and  C_6
REMARK    3  A    between atoms: C_8  and  C_9
REMARK    4  A    between atoms: C_16  and  S_17
REMARK    5  A    between atoms: S_17  and  C_18
REMARK    6  A    between atoms: C_18  and  C_19
REMARK    7  A    between atoms: C_18  and  C_20
REMARK    8  A    between atoms: N_22  and  C_23
REMARK    9  A    between atoms: C_26  and  C_27
REMARK   10  A    between atoms: C_28  and  C_29
REMARK   11  A    between atoms: C_31  and  C_32
REMARK                            x       y       z     vdW  Elec       q    Type
REMARK                         _______ _______ _______ _____ _____    ______ ____
ROOT
ATOM      1  C   UNL     1      -1.874  13.314  21.361  0.00  0.00    +0.000 A 
ATOM      2  C   UNL     1      -1.628  14.395  20.492  0.00  0.00    +0.000 A 
ATOM      3  C   UNL     1      -0.400  14.533  19.843  0.00  0.00    +0.000 A 
ATOM      4  N   UNL     1       0.546  13.573  19.924  0.00  0.00    +0.000 NA
ATOM      5  C   UNL     1       0.330  12.513  20.735  0.00  0.00    +0.000 A 
ATOM      6  C   UNL     1      -0.828  12.374  21.508  0.00  0.00    +0.000 A 
ENDROOT
BRANCH   1  11
ATOM      7  C   UNL     1      -7.010  13.351  24.130  0.00  0.00    +0.000 C 
ATOM      8  C   UNL     1      -5.676  13.268  23.450  0.00  0.00    +0.000 A 
ATOM      9  C   UNL     1      -4.512  13.663  24.106  0.00  0.00    +0.000 A 
ATOM     10  C   UNL     1      -3.277  13.619  23.451  0.00  0.00    +0.000 A 
ATOM     11  C   UNL     1      -3.167  13.243  22.100  0.00  0.00    +0.000 A 
ATOM     12  C   UNL     1      -4.348  12.808  21.470  0.00  0.00    +0.000 A 
ATOM     13  C   UNL     1      -5.581  12.809  22.136  0.00  0.00    +0.000 A 
ENDBRANCH   1  11
BRANCH   3  14
ATOM     14  C   UNL     1      -0.038  15.750  19.089  0.00  0.00    +0.000 A 
ATOM     15  C   UNL     1      -1.013  16.702  18.726  0.00  0.00    +0.000 A 
ATOM     16  C   UNL     1      -0.671  17.876  18.046  0.00  0.00    +0.000 A 
ATOM     17  C   UNL     1       0.656  18.127  17.717  0.00  0.00    +0.000 A 
ATOM     18  C   UNL     1       1.639  17.206  18.070  0.00  0.00    +0.000 A 
ATOM     19  C   UNL     1       1.295  16.034  18.753  0.00  0.00    +0.000 A 
ENDBRANCH   3  14
BRANCH   6  20
ATOM     20  C   UNL     1      -0.889  11.323  22.483  0.00  0.00    +0.000 C 
ATOM     21  N   UNL     1      -0.927  10.477  23.278  0.00  0.00    +0.000 NA
ENDBRANCH   6  20
BRANCH   5  22
ATOM     22  S   UNL     1       1.611  11.246  20.763  0.00  0.00    +0.000 S 
BRANCH  22  23
ATOM     23  C   UNL     1       0.819   9.874  19.840  0.00  0.00    +0.000 C 
ATOM     24  C   UNL     1       1.057   9.994  18.341  0.00  0.00    +0.000 C 
BRANCH  23  25
ATOM     25  C   UNL     1       1.372   8.537  20.351  0.00  0.00    +0.000 C 
ATOM     26  O   UNL     1       1.230   8.234  21.536  0.00  0.00    +0.000 OA
ATOM     27  N   UNL     1       1.983   7.743  19.385  0.00  0.00    +0.000 N 
ATOM     28  H   UNL     1       2.237   8.212  18.522  0.00  0.00    +0.000 HD
BRANCH  27  29
ATOM     29  C   UNL     1       2.548   6.465  19.597  0.00  0.00    +0.000 A 
ATOM     30  C   UNL     1       3.758   6.072  19.032  0.00  0.00    +0.000 A 
ATOM     31  C   UNL     1       4.218   4.764  19.178  0.00  0.00    +0.000 A 
ATOM     32  C   UNL     1       3.482   3.813  19.895  0.00  0.00    +0.000 A 
ATOM     33  C   UNL     1       3.979   2.395  19.925  0.00  0.00    +0.000 C 
ATOM     34  C   UNL     1       2.290   4.212  20.529  0.00  0.00    +0.000 A 
ATOM     35  C   UNL     1       1.433   3.261  21.322  0.00  0.00    +0.000 C 
ATOM     36  C   UNL     1       1.848   5.547  20.390  0.00  0.00    +0.000 A 
ENDBRANCH  27  29
ENDBRANCH  23  25
ENDBRANCH  22  23
ENDBRANCH   5  22
TORSDOF 7
ENDMDL
MODEL 7
REMARK VINA RESULT:      -8.4      0.573      1.492
REMARK  Name = 
REMARK  11 active torsions:
REMARK  status: ('A' for Active; 'I' for Inactive)
REMARK    1  A    between atoms: C_1  and  C_2
REMARK    2  A    between atoms: C_5  and  C_6
REMARK    3  A    between atoms: C_8  and  C_9
REMARK    4  A    between atoms: C_16  and  S_17
REMARK    5  A    between atoms: S_17  and  C_18
REMARK    6  A    between atoms: C_18  and  C_19
REMARK    7  A    between atoms: C_18  and  C_20
REMARK    8  A    between atoms: N_22  and  C_23
REMARK    9  A    between atoms: C_26  and  C_27
REMARK   10  A    between atoms: C_28  and  C_29
REMARK   11  A    between atoms: C_31  and  C_32
REMARK                            x       y       z     vdW  Elec       q    Type
REMARK                         _______ _______ _______ _____ _____    ______ ____
ROOT
ATOM      1  C   UNL     1      -2.074  11.294  18.814  0.00  0.00    +0.000 A 
ATOM      2  C   UNL     1      -2.922  11.980  19.705  0.00  0.00    +0.000 A 
ATOM      3  C   UNL     1      -2.530  12.236  21.021  0.00  0.00    +0.000 A 
ATOM      4  N   UNL     1      -1.282  11.949  21.447  0.00  0.00    +0.000 NA
ATOM      5  C   UNL     1      -0.438  11.308  20.607  0.00  0.00    +0.000 A 
ATOM      6  C   UNL     1      -0.808  10.914  19.316  0.00  0.00    +0.000 A 
ENDROOT
BRANCH   1  11
ATOM      7  C   UNL     1      -4.189   9.793  13.588  0.00  0.00    +0.000 C 
ATOM      8  C   UNL     1      -3.595  10.229  14.893  0.00  0.00    +0.000 A 
ATOM      9  C   UNL     1      -2.458   9.606  15.405  0.00  0.00    +0.000 A 
ATOM     10  C   UNL     1      -1.932   9.993  16.643  0.00  0.00    +0.000 A 
ATOM     11  C   UNL     1      -2.557  10.967  17.442  0.00  0.00    +0.000 A 
ATOM     12  C   UNL     1      -3.678  11.611  16.887  0.00  0.00    +0.000 A 
ATOM     13  C   UNL     1      -4.183  11.258  15.628  0.00  0.00    +0.000 A 
ENDBRANCH   1  11
BRANCH   3  14
ATOM     14  C   UNL     1      -3.465  12.770  22.032  0.00  0.00    +0.000 A 
ATOM     15  C   UNL     1      -3.001  13.260  23.270  0.00  0.00    +0.000 A 
ATOM     16  C   UNL     1      -3.877  13.802  24.216  0.00  0.00    +0.000 A 
ATOM     17  C   UNL     1      -5.238  13.871  23.943  0.00  0.00    +0.000 A 
ATOM     18  C   UNL     1      -5.721  13.402  22.724  0.00  0.00    +0.000 A 
ATOM     19  C   UNL     1      -4.843  12.862  21.779  0.00  0.00    +0.000 A 
ENDBRANCH   3  14
BRANCH   6  20
ATOM     20  C   UNL     1       0.079  10.071  18.568  0.00  0.00    +0.000 C 
ATOM     21  N   UNL     1       0.787   9.385  17.954  0.00  0.00    +0.000 NA
ENDBRANCH   6  20
BRANCH   5  22
ATOM     22  S   UNL     1       1.226  10.996  21.223  0.00  0.00    +0.000 S 
BRANCH  22  23
ATOM     23  C   UNL     1       0.963   9.566  22.339  0.00  0.00    +0.000 C 
ATOM     24  C   UNL     1      -0.239   9.777  23.251  0.00  0.00    +0.000 C 
BRANCH  23  25
ATOM     25  C   UNL     1       0.763   8.298  21.498  0.00  0.00    +0.000 C 
ATOM     26  O   UNL     1      -0.378   7.907  21.253  0.00  0.00    +0.000 OA
ATOM     27  N   UNL     1       1.934   7.698  21.046  0.00  0.00    +0.000 N 
ATOM     28  H   UNL     1       2.788   7.984  21.514  0.00  0.00    +0.000 HD
BRANCH  27  29
ATOM     29  C   UNL     1       2.016   6.540  20.240  0.00  0.00    +0.000 A 
ATOM     30  C   UNL     1       1.333   5.364  20.538  0.00  0.00    +0.000 A 
ATOM     31  C   UNL     1       1.534   4.213  19.776  0.00  0.00    +0.000 A 
ATOM     32  C   UNL     1       2.422   4.207  18.694  0.00  0.00    +0.000 A 
ATOM     33  C   UNL     1       2.675   2.909  17.980  0.00  0.00    +0.000 C 
ATOM     34  C   UNL     1       3.070   5.406  18.338  0.00  0.00    +0.000 A 
ATOM     35  C   UNL     1       4.039   5.497  17.189  0.00  0.00    +0.000 C 
ATOM     36  C   UNL     1       2.838   6.569  19.106  0.00  0.00    +0.000 A 
ENDBRANCH  27  29
ENDBRANCH  23  25
ENDBRANCH  22  23
ENDBRANCH   5  22
TORSDOF 7
ENDMDL
MODEL 8
REMARK VINA RESULT:      -8.4      3.339      7.038
REMARK  Name = 
REMARK  11 active torsions:
REMARK  status: ('A' for Active; 'I' for Inactive)
REMARK    1  A    between atoms: C_1  and  C_2
REMARK    2  A    between atoms: C_5  and  C_6
REMARK    3  A    between atoms: C_8  and  C_9
REMARK    4  A    between atoms: C_16  and  S_17
REMARK    5  A    between atoms: S_17  and  C_18
REMARK    6  A    between atoms: C_18  and  C_19
REMARK    7  A    between atoms: C_18  and  C_20
REMARK    8  A    between atoms: N_22  and  C_23
REMARK    9  A    between atoms: C_26  and  C_27
REMARK   10  A    between atoms: C_28  and  C_29
REMARK   11  A    between atoms: C_31  and  C_32
REMARK                            x       y       z     vdW  Elec       q    Type
REMARK                         _______ _______ _______ _____ _____    ______ ____
ROOT
ATOM      1  C   UNL     1       0.510   9.538  19.532  0.00  0.00    +0.000 A 
ATOM      2  C   UNL     1      -0.428   9.920  18.553  0.00  0.00    +0.000 A 
ATOM      3  C   UNL     1      -1.504  10.752  18.872  0.00  0.00    +0.000 A 
ATOM      4  N   UNL     1      -1.613  11.318  20.093  0.00  0.00    +0.000 NA
ATOM      5  C   UNL     1      -0.715  10.985  21.047  0.00  0.00    +0.000 A 
ATOM      6  C   UNL     1       0.316  10.065  20.830  0.00  0.00    +0.000 A 
ENDROOT
BRANCH   1  11
ATOM      7  C   UNL     1       4.548   5.643  17.930  0.00  0.00    +0.000 C 
ATOM      8  C   UNL     1       3.567   6.679  18.389  0.00  0.00    +0.000 A 
ATOM      9  C   UNL     1       2.830   6.499  19.559  0.00  0.00    +0.000 A 
ATOM     10  C   UNL     1       1.888   7.453  19.959  0.00  0.00    +0.000 A 
ATOM     11  C   UNL     1       1.600   8.585  19.176  0.00  0.00    +0.000 A 
ATOM     12  C   UNL     1       2.385   8.767  18.022  0.00  0.00    +0.000 A 
ATOM     13  C   UNL     1       3.360   7.837  17.639  0.00  0.00    +0.000 A 
ENDBRANCH   1  11
BRANCH   3  14
ATOM     14  C   UNL     1      -2.609  11.008  17.927  0.00  0.00    +0.000 A 
ATOM     15  C   UNL     1      -3.822  11.582  18.357  0.00  0.00    +0.000 A 
ATOM     16  C   UNL     1      -4.858  11.863  17.460  0.00  0.00    +0.000 A 
ATOM     17  C   UNL     1      -4.702  11.579  16.108  0.00  0.00    +0.000 A 
ATOM     18  C   UNL     1      -3.510  11.018  15.655  0.00  0.00    +0.000 A 
ATOM     19  C   UNL     1      -2.474  10.742  16.554  0.00  0.00    +0.000 A 
ENDBRANCH   3  14
BRANCH   6  20
ATOM     20  C   UNL     1       1.100   9.625  21.948  0.00  0.00    +0.000 C 
ATOM     21  N   UNL     1       1.746   9.275  22.849  0.00  0.00    +0.000 NA
ENDBRANCH   6  20
BRANCH   5  22
ATOM     22  S   UNL     1      -0.891  11.810  22.639  0.00  0.00    +0.000 S 
BRANCH  22  23
ATOM     23  C   UNL     1      -0.896  13.580  22.159  0.00  0.00    +0.000 C 
ATOM     24  C   UNL     1      -1.258  14.480  23.332  0.00  0.00    +0.000 C 
BRANCH  23  25
ATOM     25  C   UNL     1       0.489  13.960  21.618  0.00  0.00    +0.000 C 
ATOM     26  O   UNL     1       1.363  14.335  22.399  0.00  0.00    +0.000 OA
ATOM     27  N   UNL     1       0.646  13.814  20.243  0.00  0.00    +0.000 N 
ATOM     28  H   UNL     1      -0.210  13.728  19.705  0.00  0.00    +0.000 HD
BRANCH  27  29
ATOM     29  C   UNL     1       1.826  14.076  19.510  0.00  0.00    +0.000 A 
ATOM     30  C   UNL     1       2.432  13.127  18.691  0.00  0.00    +0.000 A 
ATOM     31  C   UNL     1       3.656  13.395  18.079  0.00  0.00    +0.000 A 
ATOM     32  C   UNL     1       4.307  14.621  18.267  0.00  0.00    +0.000 A 
ATOM     33  C   UNL     1       5.672  14.808  17.667  0.00  0.00    +0.000 C 
ATOM     34  C   UNL     1       3.675  15.616  19.038  0.00  0.00    +0.000 A 
ATOM     35  C   UNL     1       4.296  16.964  19.292  0.00  0.00    +0.000 C 
ATOM     36  C   UNL     1       2.425  15.337  19.633  0.00  0.00    +0.000 A 
ENDBRANCH  27  29
ENDBRANCH  23  25
ENDBRANCH  22  23
ENDBRANCH   5  22
TORSDOF 7
ENDMDL
MODEL 9
REMARK VINA RESULT:      -8.4      3.262      7.247
REMARK  Name = 
REMARK  11 active torsions:
REMARK  status: ('A' for Active; 'I' for Inactive)
REMARK    1  A    between atoms: C_1  and  C_2
REMARK    2  A    between atoms: C_5  and  C_6
REMARK    3  A    between atoms: C_8  and  C_9
REMARK    4  A    between atoms: C_16  and  S_17
REMARK    5  A    between atoms: S_17  and  C_18
REMARK    6  A    between atoms: C_18  and  C_19
REMARK    7  A    between atoms: C_18  and  C_20
REMARK    8  A    between atoms: N_22  and  C_23
REMARK    9  A    between atoms: C_26  and  C_27
REMARK   10  A    between atoms: C_28  and  C_29
REMARK   11  A    between atoms: C_31  and  C_32
REMARK                            x       y       z     vdW  Elec       q    Type
REMARK                         _______ _______ _______ _____ _____    ______ ____
ROOT
ATOM      1  C   UNL     1       0.410   9.629  19.595  0.00  0.00    +0.000 A 
ATOM      2  C   UNL     1      -0.570  10.044  18.673  0.00  0.00    +0.000 A 
ATOM      3  C   UNL     1      -1.645  10.841  19.074  0.00  0.00    +0.000 A 
ATOM      4  N   UNL     1      -1.715  11.344  20.324  0.00  0.00    +0.000 NA
ATOM      5  C   UNL     1      -0.776  10.980  21.226  0.00  0.00    +0.000 A 
ATOM      6  C   UNL     1       0.259  10.088  20.924  0.00  0.00    +0.000 A 
ENDROOT
BRANCH   1  11
ATOM      7  C   UNL     1       4.438   5.883  17.650  0.00  0.00    +0.000 C 
ATOM      8  C   UNL     1       3.460   6.879  18.196  0.00  0.00    +0.000 A 
ATOM      9  C   UNL     1       2.778   6.634  19.386  0.00  0.00    +0.000 A 
ATOM     10  C   UNL     1       1.839   7.552  19.868  0.00  0.00    +0.000 A 
ATOM     11  C   UNL     1       1.499   8.713  19.150  0.00  0.00    +0.000 A 
ATOM     12  C   UNL     1       2.230   8.960  17.973  0.00  0.00    +0.000 A 
ATOM     13  C   UNL     1       3.203   8.065  17.508  0.00  0.00    +0.000 A 
ENDBRANCH   1  11
BRANCH   3  14
ATOM     14  C   UNL     1      -2.790  11.125  18.185  0.00  0.00    +0.000 A 
ATOM     15  C   UNL     1      -3.960  11.740  18.674  0.00  0.00    +0.000 A 
ATOM     16  C   UNL     1      -5.032  12.048  17.829  0.00  0.00    +0.000 A 
ATOM     17  C   UNL     1      -4.956  11.750  16.474  0.00  0.00    +0.000 A 
ATOM     18  C   UNL     1      -3.808  11.149  15.964  0.00  0.00    +0.000 A 
ATOM     19  C   UNL     1      -2.736  10.846  16.810  0.00  0.00    +0.000 A 
ENDBRANCH   3  14
BRANCH   6  20
ATOM     20  C   UNL     1       1.092   9.606  21.988  0.00  0.00    +0.000 C 
ATOM     21  N   UNL     1       1.768   9.204  22.844  0.00  0.00    +0.000 NA
ENDBRANCH   6  20
BRANCH   5  22
ATOM     22  S   UNL     1      -0.901  11.723  22.863  0.00  0.00    +0.000 S 
BRANCH  22  23
ATOM     23  C   UNL     1      -1.609  13.371  22.486  0.00  0.00    +0.000 C 
ATOM     24  C   UNL     1      -2.189  14.032  23.729  0.00  0.00    +0.000 C 
BRANCH  23  25
ATOM     25  C   UNL     1      -0.515  14.264  21.884  0.00  0.00    +0.000 C 
ATOM     26  O   UNL     1       0.316  14.788  22.624  0.00  0.00    +0.000 OA
ATOM     27  N   UNL     1      -0.547  14.382  20.497  0.00  0.00    +0.000 N 
ATOM     28  H   UNL     1      -1.411  14.098  20.048  0.00  0.00    +0.000 HD
BRANCH  27  29
ATOM     29  C   UNL     1       0.360  15.125  19.707  0.00  0.00    +0.000 A 
ATOM     30  C   UNL     1       0.065  16.392  19.211  0.00  0.00    +0.000 A 
ATOM     31  C   UNL     1       0.945  17.037  18.343  0.00  0.00    +0.000 A 
ATOM     32  C   UNL     1       2.146  16.434  17.949  0.00  0.00    +0.000 A 
ATOM     33  C   UNL     1       3.000  17.134  16.929  0.00  0.00    +0.000 C 
ATOM     34  C   UNL     1       2.490  15.182  18.494  0.00  0.00    +0.000 A 
ATOM     35  C   UNL     1       3.760  14.458  18.132  0.00  0.00    +0.000 C 
ATOM     36  C   UNL     1       1.598  14.551  19.390  0.00  0.00    +0.000 A 
ENDBRANCH  27  29
ENDBRANCH  23  25
ENDBRANCH  22  23
ENDBRANCH   5  22
TORSDOF 7
ENDMDL
