MODEL 1
REMARK VINA RESULT:      -9.0      0.000      0.000
REMARK  Name = 
REMARK  5 active torsions:
REMARK  status: ('A' for Active; 'I' for Inactive)
REMARK    1  A    between atoms: S_2  and  O_4
REMARK    2  A    between atoms: S_2  and  C_5
REMARK    3  A    between atoms: C_7  and  N_8
REMARK    4  A    between atoms: N_9  and  C_10
REMARK    5  A    between atoms: C_20  and  O_21
REMARK                            x       y       z     vdW  Elec       q    Type
REMARK                         _______ _______ _______ _____ _____    ______ ____
ROOT
ATOM      1  C   UNL     1       0.450  10.155  21.273  0.00  0.00    +0.000 A 
ATOM      2  C   UNL     1       0.930   9.048  20.554  0.00  0.00    +0.000 A 
ATOM      3  C   UNL     1       1.476   9.206  19.282  0.00  0.00    +0.000 A 
ATOM      4  C   UNL     1       1.514  10.506  18.749  0.00  0.00    +0.000 A 
ATOM      5  C   UNL     1       1.069  11.639  19.449  0.00  0.00    +0.000 A 
ATOM      6  N   UNL     1       1.161  12.853  18.862  0.00  0.00    +0.000 NA
ATOM      7  C   UNL     1       0.734  13.947  19.517  0.00  0.00    +0.000 A 
ATOM      8  C   UNL     1       0.199  13.903  20.782  0.00  0.00    +0.000 A 
ATOM      9  C   UNL     1       0.095  12.660  21.398  0.00  0.00    +0.000 A 
ATOM     10  C   UNL     1       0.524  11.474  20.744  0.00  0.00    +0.000 A 
ENDROOT
BRANCH   1  12
ATOM     11  O   UNL     1      -1.376  10.755  23.047  0.00  0.00    +0.000 OA
ATOM     12  S   UNL     1      -0.288   9.823  22.855  0.00  0.00    +0.000 S 
ATOM     13  O   UNL     1       0.764   9.690  23.837  0.00  0.00    +0.000 OA
BRANCH  12  14
ATOM     14  O   UNL     1      -0.931   8.350  22.733  0.00  0.00    +0.000 OA
ATOM     15  H   UNL     1      -0.720   7.861  23.557  0.00  0.00    +0.000 HD
ENDBRANCH  12  14
ENDBRANCH   1  12
BRANCH   3  16
ATOM     16  N   UNL     1       1.863   8.032  18.588  0.00  0.00    +0.000 NA
ATOM     17  N   UNL     1       2.567   7.256  19.268  0.00  0.00    +0.000 NA
BRANCH  17  18
ATOM     18  C   UNL     1       2.978   6.091  18.559  0.00  0.00    +0.000 A 
ATOM     19  C   UNL     1       3.958   6.135  17.548  0.00  0.00    +0.000 A 
ATOM     20  C   UNL     1       4.363   4.979  16.880  0.00  0.00    +0.000 A 
ATOM     21  C   UNL     1       3.803   3.753  17.218  0.00  0.00    +0.000 A 
ATOM     22  C   UNL     1       2.846   3.658  18.238  0.00  0.00    +0.000 A 
ATOM     23  C   UNL     1       2.310   2.408  18.583  0.00  0.00    +0.000 A 
ATOM     24  C   UNL     1       1.373   2.286  19.607  0.00  0.00    +0.000 A 
ATOM     25  C   UNL     1       0.954   3.420  20.292  0.00  0.00    +0.000 A 
ATOM     26  C   UNL     1       1.469   4.675  19.951  0.00  0.00    +0.000 A 
ATOM     27  C   UNL     1       2.424   4.829  18.922  0.00  0.00    +0.000 A 
ENDBRANCH  17  18
ENDBRANCH   3  16
BRANCH   4  28
ATOM     28  O   UNL     1       1.982  10.697  17.460  0.00  0.00    +0.000 OA
ATOM     29  H   UNL     1       1.230  10.554  16.858  0.00  0.00    +0.000 HD
ENDBRANCH   4  28
TORSDOF 5
ENDMDL
MODEL 2
REMARK VINA RESULT:      -9.0      3.658      7.875
REMARK  Name = 
REMARK  5 active torsions:
REMARK  status: ('A' for Active; 'I' for Inactive)
REMARK    1  A    between atoms: S_2  and  O_4
REMARK    2  A    between atoms: S_2  and  C_5
REMARK    3  A    between atoms: C_7  and  N_8
REMARK    4  A    between atoms: N_9  and  C_10
REMARK    5  A    between atoms: C_20  and  O_21
REMARK                            x       y       z     vdW  Elec       q    Type
REMARK                         _______ _______ _______ _____ _____    ______ ____
ROOT
ATOM      1  C   UNL     1       3.482   4.302  19.046  0.00  0.00    +0.000 A 
ATOM      2  C   UNL     1       2.722   5.169  19.850  0.00  0.00    +0.000 A 
ATOM      3  C   UNL     1       2.586   6.514  19.518  0.00  0.00    +0.000 A 
ATOM      4  C   UNL     1       3.247   6.968  18.362  0.00  0.00    +0.000 A 
ATOM      5  C   UNL     1       3.992   6.125  17.521  0.00  0.00    +0.000 A 
ATOM      6  N   UNL     1       4.578   6.647  16.421  0.00  0.00    +0.000 NA
ATOM      7  C   UNL     1       5.299   5.855  15.608  0.00  0.00    +0.000 A 
ATOM      8  C   UNL     1       5.478   4.511  15.834  0.00  0.00    +0.000 A 
ATOM      9  C   UNL     1       4.883   3.960  16.964  0.00  0.00    +0.000 A 
ATOM     10  C   UNL     1       4.119   4.757  17.859  0.00  0.00    +0.000 A 
ENDROOT
BRANCH   1  12
ATOM     11  O   UNL     1       3.156   1.753  18.562  0.00  0.00    +0.000 OA
ATOM     12  S   UNL     1       3.641   2.624  19.608  0.00  0.00    +0.000 S 
ATOM     13  O   UNL     1       3.121   2.536  20.954  0.00  0.00    +0.000 OA
BRANCH  12  14
ATOM     14  O   UNL     1       5.225   2.364  19.757  0.00  0.00    +0.000 OA
ATOM     15  H   UNL     1       5.540   2.869  20.537  0.00  0.00    +0.000 HD
ENDBRANCH  12  14
ENDBRANCH   1  12
BRANCH   3  16
ATOM     16  N   UNL     1       1.872   7.341  20.421  0.00  0.00    +0.000 NA
ATOM     17  N   UNL     1       1.254   8.274  19.866  0.00  0.00    +0.000 NA
BRANCH  17  18
ATOM     18  C   UNL     1       0.560   9.120  20.777  0.00  0.00    +0.000 A 
ATOM     19  C   UNL     1       0.637   8.942  22.173  0.00  0.00    +0.000 A 
ATOM     20  C   UNL     1      -0.031   9.794  23.050  0.00  0.00    +0.000 A 
ATOM     21  C   UNL     1      -0.783  10.850  22.551  0.00  0.00    +0.000 A 
ATOM     22  C   UNL     1      -0.865  11.083  21.171  0.00  0.00    +0.000 A 
ATOM     23  C   UNL     1      -1.608  12.169  20.684  0.00  0.00    +0.000 A 
ATOM     24  C   UNL     1      -1.687  12.432  19.319  0.00  0.00    +0.000 A 
ATOM     25  C   UNL     1      -1.027  11.602  18.421  0.00  0.00    +0.000 A 
ATOM     26  C   UNL     1      -0.293  10.507  18.889  0.00  0.00    +0.000 A 
ATOM     27  C   UNL     1      -0.190  10.218  20.268  0.00  0.00    +0.000 A 
ENDBRANCH  17  18
ENDBRANCH   3  16
BRANCH   4  28
ATOM     28  O   UNL     1       3.197   8.312  18.035  0.00  0.00    +0.000 OA
ATOM     29  H   UNL     1       2.306   8.630  18.266  0.00  0.00    +0.000 HD
ENDBRANCH   4  28
TORSDOF 5
ENDMDL
MODEL 3
REMARK VINA RESULT:      -8.8      2.050      3.231
REMARK  Name = 
REMARK  5 active torsions:
REMARK  status: ('A' for Active; 'I' for Inactive)
REMARK    1  A    between atoms: S_2  and  O_4
REMARK    2  A    between atoms: S_2  and  C_5
REMARK    3  A    between atoms: C_7  and  N_8
REMARK    4  A    between atoms: N_9  and  C_10
REMARK    5  A    between atoms: C_20  and  O_21
REMARK                            x       y       z     vdW  Elec       q    Type
REMARK                         _______ _______ _______ _____ _____    ______ ____
ROOT
ATOM      1  C   UNL     1       0.984  11.448  19.384  0.00  0.00    +0.000 A 
ATOM      2  C   UNL     1       1.483  10.367  18.638  0.00  0.00    +0.000 A 
ATOM      3  C   UNL     1       1.388   9.064  19.119  0.00  0.00    +0.000 A 
ATOM      4  C   UNL     1       0.788   8.878  20.377  0.00  0.00    +0.000 A 
ATOM      5  C   UNL     1       0.254   9.931  21.138  0.00  0.00    +0.000 A 
ATOM      6  N   UNL     1      -0.320   9.656  22.330  0.00  0.00    +0.000 NA
ATOM      7  C   UNL     1      -0.831  10.653  23.073  0.00  0.00    +0.000 A 
ATOM      8  C   UNL     1      -0.807  11.969  22.681  0.00  0.00    +0.000 A 
ATOM      9  C   UNL     1      -0.217  12.269  21.457  0.00  0.00    +0.000 A 
ATOM     10  C   UNL     1       0.346  11.252  20.640  0.00  0.00    +0.000 A 
ENDROOT
BRANCH   1  12
ATOM     11  O   UNL     1       2.004  13.843  19.643  0.00  0.00    +0.000 OA
ATOM     12  S   UNL     1       1.225  13.070  18.701  0.00  0.00    +0.000 S 
ATOM     13  O   UNL     1      -0.043  13.556  18.204  0.00  0.00    +0.000 OA
BRANCH  12  14
ATOM     14  O   UNL     1       2.132  12.857  17.385  0.00  0.00    +0.000 OA
ATOM     15  H   UNL     1       1.927  11.971  17.019  0.00  0.00    +0.000 HD
ENDBRANCH  12  14
ENDBRANCH   1  12
BRANCH   3  16
ATOM     16  N   UNL     1       1.987   8.037  18.347  0.00  0.00    +0.000 NA
ATOM     17  N   UNL     1       2.603   7.190  19.029  0.00  0.00    +0.000 NA
BRANCH  17  18
ATOM     18  C   UNL     1       3.227   6.175  18.250  0.00  0.00    +0.000 A 
ATOM     19  C   UNL     1       4.353   6.435  17.444  0.00  0.00    +0.000 A 
ATOM     20  C   UNL     1       4.964   5.423  16.705  0.00  0.00    +0.000 A 
ATOM     21  C   UNL     1       4.469   4.127  16.765  0.00  0.00    +0.000 A 
ATOM     22  C   UNL     1       3.369   3.816  17.577  0.00  0.00    +0.000 A 
ATOM     23  C   UNL     1       2.897   2.496  17.646  0.00  0.00    +0.000 A 
ATOM     24  C   UNL     1       1.818   2.161  18.461  0.00  0.00    +0.000 A 
ATOM     25  C   UNL     1       1.191   3.148  19.211  0.00  0.00    +0.000 A 
ATOM     26  C   UNL     1       1.642   4.471  19.144  0.00  0.00    +0.000 A 
ATOM     27  C   UNL     1       2.736   4.841  18.331  0.00  0.00    +0.000 A 
ENDBRANCH  17  18
ENDBRANCH   3  16
BRANCH   4  28
ATOM     28  O   UNL     1       0.738   7.608  20.925  0.00  0.00    +0.000 OA
ATOM     29  H   UNL     1       0.722   6.977  20.182  0.00  0.00    +0.000 HD
ENDBRANCH   4  28
TORSDOF 5
ENDMDL
MODEL 4
REMARK VINA RESULT:      -8.8      2.320      3.282
REMARK  Name = 
REMARK  5 active torsions:
REMARK  status: ('A' for Active; 'I' for Inactive)
REMARK    1  A    between atoms: S_2  and  O_4
REMARK    2  A    between atoms: S_2  and  C_5
REMARK    3  A    between atoms: C_7  and  N_8
REMARK    4  A    between atoms: N_9  and  C_10
REMARK    5  A    between atoms: C_20  and  O_21
REMARK                            x       y       z     vdW  Elec       q    Type
REMARK                         _______ _______ _______ _____ _____    ______ ____
ROOT
ATOM      1  C   UNL     1      -0.560  10.901  19.164  0.00  0.00    +0.000 A 
ATOM      2  C   UNL     1       0.320  10.043  18.483  0.00  0.00    +0.000 A 
ATOM      3  C   UNL     1       1.127   9.148  19.181  0.00  0.00    +0.000 A 
ATOM      4  C   UNL     1       1.033   9.148  20.584  0.00  0.00    +0.000 A 
ATOM      5  C   UNL     1       0.145   9.971  21.297  0.00  0.00    +0.000 A 
ATOM      6  N   UNL     1       0.112   9.889  22.645  0.00  0.00    +0.000 NA
ATOM      7  C   UNL     1      -0.729  10.673  23.342  0.00  0.00    +0.000 A 
ATOM      8  C   UNL     1      -1.580  11.575  22.750  0.00  0.00    +0.000 A 
ATOM      9  C   UNL     1      -1.555  11.672  21.362  0.00  0.00    +0.000 A 
ATOM     10  C   UNL     1      -0.678  10.872  20.581  0.00  0.00    +0.000 A 
ENDROOT
BRANCH   1  12
ATOM     11  O   UNL     1      -0.682  13.234  17.988  0.00  0.00    +0.000 OA
ATOM     12  S   UNL     1      -1.487  12.047  18.172  0.00  0.00    +0.000 S 
ATOM     13  O   UNL     1      -2.832  12.131  18.697  0.00  0.00    +0.000 OA
BRANCH  12  14
ATOM     14  O   UNL     1      -1.646  11.345  16.731  0.00  0.00    +0.000 OA
ATOM     15  H   UNL     1      -0.921  10.691  16.633  0.00  0.00    +0.000 HD
ENDBRANCH  12  14
ENDBRANCH   1  12
BRANCH   3  16
ATOM     16  N   UNL     1       2.047   8.375  18.430  0.00  0.00    +0.000 NA
ATOM     17  N   UNL     1       2.096   7.176  18.777  0.00  0.00    +0.000 NA
BRANCH  17  18
ATOM     18  C   UNL     1       3.041   6.408  18.039  0.00  0.00    +0.000 A 
ATOM     19  C   UNL     1       4.168   6.991  17.426  0.00  0.00    +0.000 A 
ATOM     20  C   UNL     1       5.094   6.219  16.727  0.00  0.00    +0.000 A 
ATOM     21  C   UNL     1       4.919   4.844  16.635  0.00  0.00    +0.000 A 
ATOM     22  C   UNL     1       3.829   4.216  17.254  0.00  0.00    +0.000 A 
ATOM     23  C   UNL     1       3.682   2.823  17.173  0.00  0.00    +0.000 A 
ATOM     24  C   UNL     1       2.618   2.175  17.798  0.00  0.00    +0.000 A 
ATOM     25  C   UNL     1       1.682   2.919  18.505  0.00  0.00    +0.000 A 
ATOM     26  C   UNL     1       1.807   4.310  18.584  0.00  0.00    +0.000 A 
ATOM     27  C   UNL     1       2.878   4.994  17.967  0.00  0.00    +0.000 A 
ENDBRANCH  17  18
ENDBRANCH   3  16
BRANCH   4  28
ATOM     28  O   UNL     1       1.868   8.325  21.320  0.00  0.00    +0.000 OA
ATOM     29  H   UNL     1       1.728   7.415  21.000  0.00  0.00    +0.000 HD
ENDBRANCH   4  28
TORSDOF 5
ENDMDL
MODEL 5
REMARK VINA RESULT:      -8.7      3.442      7.862
REMARK  Name = 
REMARK  5 active torsions:
REMARK  status: ('A' for Active; 'I' for Inactive)
REMARK    1  A    between atoms: S_2  and  O_4
REMARK    2  A    between atoms: S_2  and  C_5
REMARK    3  A    between atoms: C_7  and  N_8
REMARK    4  A    between atoms: N_9  and  C_10
REMARK    5  A    between atoms: C_20  and  O_21
REMARK                            x       y       z     vdW  Elec       q    Type
REMARK                         _______ _______ _______ _____ _____    ______ ____
ROOT
ATOM      1  C   UNL     1       3.115   4.278  19.682  0.00  0.00    +0.000 A 
ATOM      2  C   UNL     1       2.391   5.238  20.410  0.00  0.00    +0.000 A 
ATOM      3  C   UNL     1       2.306   6.555  19.967  0.00  0.00    +0.000 A 
ATOM      4  C   UNL     1       2.981   6.884  18.777  0.00  0.00    +0.000 A 
ATOM      5  C   UNL     1       3.691   5.947  18.010  0.00  0.00    +0.000 A 
ATOM      6  N   UNL     1       4.293   6.351  16.870  0.00  0.00    +0.000 NA
ATOM      7  C   UNL     1       4.981   5.467  16.127  0.00  0.00    +0.000 A 
ATOM      8  C   UNL     1       5.109   4.141  16.464  0.00  0.00    +0.000 A 
ATOM      9  C   UNL     1       4.496   3.710  17.637  0.00  0.00    +0.000 A 
ATOM     10  C   UNL     1       3.766   4.608  18.461  0.00  0.00    +0.000 A 
ENDROOT
BRANCH   1  12
ATOM     11  O   UNL     1       4.604   2.263  20.433  0.00  0.00    +0.000 OA
ATOM     12  S   UNL     1       3.212   2.648  20.382  0.00  0.00    +0.000 S 
ATOM     13  O   UNL     1       2.227   1.809  19.737  0.00  0.00    +0.000 OA
BRANCH  12  14
ATOM     14  O   UNL     1       2.697   2.797  21.903  0.00  0.00    +0.000 OA
ATOM     15  H   UNL     1       2.629   3.755  22.104  0.00  0.00    +0.000 HD
ENDBRANCH  12  14
ENDBRANCH   1  12
BRANCH   3  16
ATOM     16  N   UNL     1       1.627   7.481  20.797  0.00  0.00    +0.000 NA
ATOM     17  N   UNL     1       0.886   8.268  20.170  0.00  0.00    +0.000 NA
BRANCH  17  18
ATOM     18  C   UNL     1       0.226   9.215  21.004  0.00  0.00    +0.000 A 
ATOM     19  C   UNL     1       0.183   9.079  22.406  0.00  0.00    +0.000 A 
ATOM     20  C   UNL     1      -0.449  10.029  23.207  0.00  0.00    +0.000 A 
ATOM     21  C   UNL     1      -1.041  11.142  22.623  0.00  0.00    +0.000 A 
ATOM     22  C   UNL     1      -0.997  11.334  21.236  0.00  0.00    +0.000 A 
ATOM     23  C   UNL     1      -1.579  12.477  20.665  0.00  0.00    +0.000 A 
ATOM     24  C   UNL     1      -1.529  12.698  19.291  0.00  0.00    +0.000 A 
ATOM     25  C   UNL     1      -0.903  11.770  18.468  0.00  0.00    +0.000 A 
ATOM     26  C   UNL     1      -0.330  10.620  19.019  0.00  0.00    +0.000 A 
ATOM     27  C   UNL     1      -0.359  10.370  20.410  0.00  0.00    +0.000 A 
ENDBRANCH  17  18
ENDBRANCH   3  16
BRANCH   4  28
ATOM     28  O   UNL     1       2.982   8.198  18.339  0.00  0.00    +0.000 OA
ATOM     29  H   UNL     1       3.060   8.763  19.129  0.00  0.00    +0.000 HD
ENDBRANCH   4  28
TORSDOF 5
ENDMDL
MODEL 6
REMARK VINA RESULT:      -8.6      3.356      8.176
REMARK  Name = 
REMARK  5 active torsions:
REMARK  status: ('A' for Active; 'I' for Inactive)
REMARK    1  A    between atoms: S_2  and  O_4
REMARK    2  A    between atoms: S_2  and  C_5
REMARK    3  A    between atoms: C_7  and  N_8
REMARK    4  A    between atoms: N_9  and  C_10
REMARK    5  A    between atoms: C_20  and  O_21
REMARK                            x       y       z     vdW  Elec       q    Type
REMARK                         _______ _______ _______ _____ _____    ______ ____
ROOT
ATOM      1  C   UNL     1       4.257   5.589  17.794  0.00  0.00    +0.000 A 
ATOM      2  C   UNL     1       3.564   6.810  17.853  0.00  0.00    +0.000 A 
ATOM      3  C   UNL     1       2.596   7.034  18.829  0.00  0.00    +0.000 A 
ATOM      4  C   UNL     1       2.336   5.992  19.736  0.00  0.00    +0.000 A 
ATOM      5  C   UNL     1       3.027   4.770  19.725  0.00  0.00    +0.000 A 
ATOM      6  N   UNL     1       2.721   3.833  20.649  0.00  0.00    +0.000 NA
ATOM      7  C   UNL     1       3.370   2.655  20.648  0.00  0.00    +0.000 A 
ATOM      8  C   UNL     1       4.355   2.341  19.742  0.00  0.00    +0.000 A 
ATOM      9  C   UNL     1       4.679   3.296  18.783  0.00  0.00    +0.000 A 
ATOM     10  C   UNL     1       4.016   4.551  18.737  0.00  0.00    +0.000 A 
ENDROOT
BRANCH   1  12
ATOM     11  O   UNL     1       4.981   4.280  15.648  0.00  0.00    +0.000 OA
ATOM     12  S   UNL     1       5.418   5.391  16.464  0.00  0.00    +0.000 S 
ATOM     13  O   UNL     1       6.757   5.438  17.007  0.00  0.00    +0.000 OA
BRANCH  12  14
ATOM     14  O   UNL     1       5.286   6.727  15.570  0.00  0.00    +0.000 OA
ATOM     15  H   UNL     1       5.913   7.391  15.928  0.00  0.00    +0.000 HD
ENDBRANCH  12  14
ENDBRANCH   1  12
BRANCH   3  16
ATOM     16  N   UNL     1       1.884   8.258  18.772  0.00  0.00    +0.000 NA
ATOM     17  N   UNL     1       1.690   8.778  19.892  0.00  0.00    +0.000 NA
BRANCH  17  18
ATOM     18  C   UNL     1       0.950   9.993  19.835  0.00  0.00    +0.000 A 
ATOM     19  C   UNL     1       0.928  10.805  18.684  0.00  0.00    +0.000 A 
ATOM     20  C   UNL     1       0.180  11.980  18.640  0.00  0.00    +0.000 A 
ATOM     21  C   UNL     1      -0.574  12.362  19.743  0.00  0.00    +0.000 A 
ATOM     22  C   UNL     1      -0.606  11.570  20.898  0.00  0.00    +0.000 A 
ATOM     23  C   UNL     1      -1.393  11.958  21.994  0.00  0.00    +0.000 A 
ATOM     24  C   UNL     1      -1.456  11.176  23.146  0.00  0.00    +0.000 A 
ATOM     25  C   UNL     1      -0.723   9.998  23.216  0.00  0.00    +0.000 A 
ATOM     26  C   UNL     1       0.075   9.604  22.138  0.00  0.00    +0.000 A 
ATOM     27  C   UNL     1       0.156  10.373  20.955  0.00  0.00    +0.000 A 
ENDBRANCH  17  18
ENDBRANCH   3  16
BRANCH   4  28
ATOM     28  O   UNL     1       1.332   6.147  20.677  0.00  0.00    +0.000 OA
ATOM     29  H   UNL     1       1.629   6.832  21.303  0.00  0.00    +0.000 HD
ENDBRANCH   4  28
TORSDOF 5
ENDMDL
MODEL 7
REMARK VINA RESULT:      -8.6      0.863      2.466
REMARK  Name = 
REMARK  5 active torsions:
REMARK  status: ('A' for Active; 'I' for Inactive)
REMARK    1  A    between atoms: S_2  and  O_4
REMARK    2  A    between atoms: S_2  and  C_5
REMARK    3  A    between atoms: C_7  and  N_8
REMARK    4  A    between atoms: N_9  and  C_10
REMARK    5  A    between atoms: C_20  and  O_21
REMARK                            x       y       z     vdW  Elec       q    Type
REMARK                         _______ _______ _______ _____ _____    ______ ____
ROOT
ATOM      1  C   UNL     1       0.506  10.102  21.161  0.00  0.00    +0.000 A 
ATOM      2  C   UNL     1       0.881   8.946  20.456  0.00  0.00    +0.000 A 
ATOM      3  C   UNL     1       1.418   9.034  19.174  0.00  0.00    +0.000 A 
ATOM      4  C   UNL     1       1.556  10.317  18.615  0.00  0.00    +0.000 A 
ATOM      5  C   UNL     1       1.219  11.495  19.300  0.00  0.00    +0.000 A 
ATOM      6  N   UNL     1       1.403  12.686  18.689  0.00  0.00    +0.000 NA
ATOM      7  C   UNL     1       1.080  13.824  19.329  0.00  0.00    +0.000 A 
ATOM      8  C   UNL     1       0.563  13.848  20.602  0.00  0.00    +0.000 A 
ATOM      9  C   UNL     1       0.365  12.629  21.244  0.00  0.00    +0.000 A 
ATOM     10  C   UNL     1       0.682  11.400  20.606  0.00  0.00    +0.000 A 
ENDROOT
BRANCH   1  12
ATOM     11  O   UNL     1      -1.290  10.833  22.916  0.00  0.00    +0.000 OA
ATOM     12  S   UNL     1      -0.232   9.861  22.759  0.00  0.00    +0.000 S 
ATOM     13  O   UNL     1       0.822   9.739  23.742  0.00  0.00    +0.000 OA
BRANCH  12  14
ATOM     14  O   UNL     1      -0.920   8.404  22.704  0.00  0.00    +0.000 OA
ATOM     15  H   UNL     1      -0.714   7.943  23.545  0.00  0.00    +0.000 HD
ENDBRANCH  12  14
ENDBRANCH   1  12
BRANCH   3  16
ATOM     16  N   UNL     1       1.694   7.820  18.497  0.00  0.00    +0.000 NA
ATOM     17  N   UNL     1       2.476   7.067  19.115  0.00  0.00    +0.000 NA
BRANCH  17  18
ATOM     18  C   UNL     1       2.774   5.860  18.420  0.00  0.00    +0.000 A 
ATOM     19  C   UNL     1       1.889   4.764  18.408  0.00  0.00    +0.000 A 
ATOM     20  C   UNL     1       2.189   3.599  17.702  0.00  0.00    +0.000 A 
ATOM     21  C   UNL     1       3.375   3.511  16.984  0.00  0.00    +0.000 A 
ATOM     22  C   UNL     1       4.271   4.587  16.944  0.00  0.00    +0.000 A 
ATOM     23  C   UNL     1       5.453   4.490  16.193  0.00  0.00    +0.000 A 
ATOM     24  C   UNL     1       6.348   5.556  16.121  0.00  0.00    +0.000 A 
ATOM     25  C   UNL     1       6.074   6.730  16.811  0.00  0.00    +0.000 A 
ATOM     26  C   UNL     1       4.907   6.838  17.574  0.00  0.00    +0.000 A 
ATOM     27  C   UNL     1       3.977   5.778  17.662  0.00  0.00    +0.000 A 
ENDBRANCH  17  18
ENDBRANCH   3  16
BRANCH   4  28
ATOM     28  O   UNL     1       2.019  10.445  17.317  0.00  0.00    +0.000 OA
ATOM     29  H   UNL     1       1.443   9.898  16.753  0.00  0.00    +0.000 HD
ENDBRANCH   4  28
TORSDOF 5
ENDMDL
MODEL 8
REMARK VINA RESULT:      -8.5      1.144      1.197
REMARK  Name = 
REMARK  5 active torsions:
REMARK  status: ('A' for Active; 'I' for Inactive)
REMARK    1  A    between atoms: S_2  and  O_4
REMARK    2  A    between atoms: S_2  and  C_5
REMARK    3  A    between atoms: C_7  and  N_8
REMARK    4  A    between atoms: N_9  and  C_10
REMARK    5  A    between atoms: C_20  and  O_21
REMARK                            x       y       z     vdW  Elec       q    Type
REMARK                         _______ _______ _______ _____ _____    ______ ____
ROOT
ATOM      1  C   UNL     1       0.288   9.797  21.246  0.00  0.00    +0.000 A 
ATOM      2  C   UNL     1       1.232   8.846  20.824  0.00  0.00    +0.000 A 
ATOM      3  C   UNL     1       1.686   8.828  19.507  0.00  0.00    +0.000 A 
ATOM      4  C   UNL     1       1.154   9.784  18.624  0.00  0.00    +0.000 A 
ATOM      5  C   UNL     1       0.230  10.766  19.017  0.00  0.00    +0.000 A 
ATOM      6  N   UNL     1      -0.213  11.656  18.102  0.00  0.00    +0.000 NA
ATOM      7  C   UNL     1      -1.102  12.599  18.462  0.00  0.00    +0.000 A 
ATOM      8  C   UNL     1      -1.597  12.716  19.738  0.00  0.00    +0.000 A 
ATOM      9  C   UNL     1      -1.151  11.805  20.691  0.00  0.00    +0.000 A 
ATOM     10  C   UNL     1      -0.220  10.785  20.359  0.00  0.00    +0.000 A 
ENDROOT
BRANCH   1  12
ATOM     11  O   UNL     1      -1.264  10.702  23.147  0.00  0.00    +0.000 OA
ATOM     12  S   UNL     1      -0.268   9.678  22.930  0.00  0.00    +0.000 S 
ATOM     13  O   UNL     1       0.888   9.565  23.792  0.00  0.00    +0.000 OA
BRANCH  12  14
ATOM     14  O   UNL     1      -1.010   8.251  23.042  0.00  0.00    +0.000 OA
ATOM     15  H   UNL     1      -1.188   7.932  22.132  0.00  0.00    +0.000 HD
ENDBRANCH  12  14
ENDBRANCH   1  12
BRANCH   3  16
ATOM     16  N   UNL     1       2.575   7.788  19.137  0.00  0.00    +0.000 NA
ATOM     17  N   UNL     1       2.222   7.166  18.113  0.00  0.00    +0.000 NA
BRANCH  17  18
ATOM     18  C   UNL     1       3.102   6.104  17.759  0.00  0.00    +0.000 A 
ATOM     19  C   UNL     1       4.391   6.340  17.240  0.00  0.00    +0.000 A 
ATOM     20  C   UNL     1       5.247   5.287  16.920  0.00  0.00    +0.000 A 
ATOM     21  C   UNL     1       4.837   3.976  17.124  0.00  0.00    +0.000 A 
ATOM     22  C   UNL     1       3.576   3.694  17.666  0.00  0.00    +0.000 A 
ATOM     23  C   UNL     1       3.187   2.364  17.889  0.00  0.00    +0.000 A 
ATOM     24  C   UNL     1       1.946   2.062  18.446  0.00  0.00    +0.000 A 
ATOM     25  C   UNL     1       1.074   3.091  18.778  0.00  0.00    +0.000 A 
ATOM     26  C   UNL     1       1.440   4.421  18.549  0.00  0.00    +0.000 A 
ATOM     27  C   UNL     1       2.694   4.759  17.992  0.00  0.00    +0.000 A 
ENDBRANCH  17  18
ENDBRANCH   3  16
BRANCH   4  28
ATOM     28  O   UNL     1       1.523   9.756  17.290  0.00  0.00    +0.000 OA
ATOM     29  H   UNL     1       1.425  10.662  16.947  0.00  0.00    +0.000 HD
ENDBRANCH   4  28
TORSDOF 5
ENDMDL
MODEL 9
REMARK VINA RESULT:      -8.4      2.033      3.941
REMARK  Name = 
REMARK  5 active torsions:
REMARK  status: ('A' for Active; 'I' for Inactive)
REMARK    1  A    between atoms: S_2  and  O_4
REMARK    2  A    between atoms: S_2  and  C_5
REMARK    3  A    between atoms: C_7  and  N_8
REMARK    4  A    between atoms: N_9  and  C_10
REMARK    5  A    between atoms: C_20  and  O_21
REMARK                            x       y       z     vdW  Elec       q    Type
REMARK                         _______ _______ _______ _____ _____    ______ ____
ROOT
ATOM      1  C   UNL     1       0.829  11.582  20.153  0.00  0.00    +0.000 A 
ATOM      2  C   UNL     1       1.122  10.211  20.066  0.00  0.00    +0.000 A 
ATOM      3  C   UNL     1       0.657   9.320  21.031  0.00  0.00    +0.000 A 
ATOM      4  C   UNL     1      -0.099   9.848  22.092  0.00  0.00    +0.000 A 
ATOM      5  C   UNL     1      -0.434  11.208  22.196  0.00  0.00    +0.000 A 
ATOM      6  N   UNL     1      -1.182  11.623  23.243  0.00  0.00    +0.000 NA
ATOM      7  C   UNL     1      -1.507  12.922  23.360  0.00  0.00    +0.000 A 
ATOM      8  C   UNL     1      -1.117  13.878  22.454  0.00  0.00    +0.000 A 
ATOM      9  C   UNL     1      -0.344  13.467  21.371  0.00  0.00    +0.000 A 
ATOM     10  C   UNL     1       0.033  12.107  21.208  0.00  0.00    +0.000 A 
ENDROOT
BRANCH   1  12
ATOM     11  O   UNL     1       2.602  13.395  19.510  0.00  0.00    +0.000 OA
ATOM     12  S   UNL     1       1.535  12.631  18.904  0.00  0.00    +0.000 S 
ATOM     13  O   UNL     1       0.462  13.284  18.188  0.00  0.00    +0.000 OA
BRANCH  12  14
ATOM     14  O   UNL     1       2.205  11.635  17.829  0.00  0.00    +0.000 OA
ATOM     15  H   UNL     1       1.529  11.426  17.150  0.00  0.00    +0.000 HD
ENDBRANCH  12  14
ENDBRANCH   1  12
BRANCH   3  16
ATOM     16  N   UNL     1       1.063   7.967  20.919  0.00  0.00    +0.000 NA
ATOM     17  N   UNL     1       1.869   7.759  19.987  0.00  0.00    +0.000 NA
BRANCH  17  18
ATOM     18  C   UNL     1       2.253   6.394  19.860  0.00  0.00    +0.000 A 
ATOM     19  C   UNL     1       1.747   5.390  20.708  0.00  0.00    +0.000 A 
ATOM     20  C   UNL     1       2.118   4.055  20.553  0.00  0.00    +0.000 A 
ATOM     21  C   UNL     1       2.996   3.694  19.538  0.00  0.00    +0.000 A 
ATOM     22  C   UNL     1       3.501   4.655  18.652  0.00  0.00    +0.000 A 
ATOM     23  C   UNL     1       4.367   4.269  17.616  0.00  0.00    +0.000 A 
ATOM     24  C   UNL     1       4.865   5.204  16.711  0.00  0.00    +0.000 A 
ATOM     25  C   UNL     1       4.509   6.541  16.839  0.00  0.00    +0.000 A 
ATOM     26  C   UNL     1       3.658   6.943  17.874  0.00  0.00    +0.000 A 
ATOM     27  C   UNL     1       3.132   6.019  18.803  0.00  0.00    +0.000 A 
ENDBRANCH  17  18
ENDBRANCH   3  16
BRANCH   4  28
ATOM     28  O   UNL     1      -0.520   9.009  23.109  0.00  0.00    +0.000 OA
ATOM     29  H   UNL     1       0.131   9.085  23.830  0.00  0.00    +0.000 HD
ENDBRANCH   4  28
TORSDOF 5
ENDMDL
