MODEL 1
REMARK VINA RESULT:      -7.5      0.000      0.000
REMARK  Name = 
REMARK  13 active torsions:
REMARK  status: ('A' for Active; 'I' for Inactive)
REMARK    1  A    between atoms: C_2  and  N_3
REMARK    2  A    between atoms: N_5  and  C_6
REMARK    3  A    between atoms: C_6  and  C_7
REMARK    4  A    between atoms: C_7  and  N_8
REMARK    5  A    between atoms: C_9  and  C_11
REMARK    6  A    between atoms: C_11  and  C_12
REMARK    7  A    between atoms: N_18  and  C_19
REMARK    8  A    between atoms: C_19  and  C_20
REMARK    9  A    between atoms: C_20  and  C_21
REMARK   10  A    between atoms: C_21  and  O_22
REMARK   11  A    between atoms: O_22  and  C_23
REMARK   12  A    between atoms: C_27  and  C_28
REMARK   13  A    between atoms: C_28  and  N_29
REMARK                            x       y       z     vdW  Elec       q    Type
REMARK                         _______ _______ _______ _____ _____    ______ ____
ROOT
ATOM      1  N   UNL     1       1.061  10.248  19.581  0.00  0.00    +0.000 N 
ATOM      2  C   UNL     1       1.710  10.517  18.406  0.00  0.00    +0.000 C 
ATOM      3  N   UNL     1       2.214   9.637  17.595  0.00  0.00    +0.000 NA
ATOM      4  N   UNL     1       1.903  11.838  18.073  0.00  0.00    +0.000 N 
ATOM      5  H   UNL     1       0.967   9.265  19.782  0.00  0.00    +0.000 HD
ATOM      6  H   UNL     1       2.502  11.902  17.253  0.00  0.00    +0.000 HD
ENDROOT
BRANCH   1   8
ATOM      7  N   UNL     1      -1.113  11.584  20.099  0.00  0.00    +0.000 NA
ATOM      8  C   UNL     1      -0.164  10.960  19.869  0.00  0.00    +0.000 C 
ENDBRANCH   1   8
BRANCH   3   9
ATOM      9  C   UNL     1       2.078   8.211  17.929  0.00  0.00    +0.000 C 
BRANCH   9  10
ATOM     10  C   UNL     1       3.398   7.464  17.701  0.00  0.00    +0.000 C 
BRANCH  10  11
ATOM     11  N   UNL     1       3.214   6.016  17.717  0.00  0.00    +0.000 N 
ATOM     12  C   UNL     1       4.281   5.142  17.666  0.00  0.00    +0.000 C 
ATOM     13  O   UNL     1       5.452   5.511  17.662  0.00  0.00    +0.000 OA
ATOM     14  H   UNL     1       2.275   5.650  17.641  0.00  0.00    +0.000 HD
BRANCH  12  15
ATOM     15  C   UNL     1       3.896   3.667  17.610  0.00  0.00    +0.000 C 
BRANCH  15  16
ATOM     16  C   UNL     1       2.977   3.284  18.743  0.00  0.00    +0.000 A 
ATOM     17  C   UNL     1       1.618   3.042  18.492  0.00  0.00    +0.000 A 
ATOM     18  C   UNL     1       0.734   2.811  19.543  0.00  0.00    +0.000 A 
ATOM     19  C   UNL     1       1.201   2.796  20.856  0.00  0.00    +0.000 A 
ATOM     20  C   UNL     1       2.559   2.980  21.113  0.00  0.00    +0.000 A 
ATOM     21  C   UNL     1       3.446   3.216  20.061  0.00  0.00    +0.000 A 
ENDBRANCH  15  16
ENDBRANCH  12  15
ENDBRANCH  10  11
ENDBRANCH   9  10
ENDBRANCH   3   9
BRANCH   4  22
ATOM     22  C   UNL     1       2.153  12.885  19.058  0.00  0.00    +0.000 C 
BRANCH  22  23
ATOM     23  C   UNL     1       1.540  14.229  18.671  0.00  0.00    +0.000 C 
BRANCH  23  24
ATOM     24  C   UNL     1       2.673  15.178  18.265  0.00  0.00    +0.000 C 
BRANCH  24  25
ATOM     25  O   UNL     1       3.830  14.455  17.846  0.00  0.00    +0.000 OA
BRANCH  25  26
ATOM     26  C   UNL     1       5.034  15.070  18.110  0.00  0.00    +0.000 A 
ATOM     27  C   UNL     1       4.955  16.369  18.611  0.00  0.00    +0.000 A 
ATOM     28  C   UNL     1       6.108  17.096  18.903  0.00  0.00    +0.000 A 
ATOM     29  C   UNL     1       7.363  16.527  18.684  0.00  0.00    +0.000 A 
ATOM     30  C   UNL     1       7.467  15.226  18.177  0.00  0.00    +0.000 A 
ATOM     31  C   UNL     1       6.294  14.504  17.904  0.00  0.00    +0.000 A 
BRANCH  30  32
ATOM     32  C   UNL     1       8.817  14.588  17.929  0.00  0.00    +0.000 C 
BRANCH  32  33
ATOM     33  N   UNL     1       9.066  13.381  18.753  0.00  0.00    +0.000 NA
ATOM     34  C   UNL     1      10.188  12.603  18.199  0.00  0.00    +0.000 C 
ATOM     35  C   UNL     1      10.626  11.444  19.097  0.00  0.00    +0.000 C 
ATOM     36  C   UNL     1      10.942  11.930  20.503  0.00  0.00    +0.000 C 
ATOM     37  C   UNL     1       9.730  12.656  21.066  0.00  0.00    +0.000 C 
ATOM     38  C   UNL     1       9.298  13.798  20.146  0.00  0.00    +0.000 C 
ENDBRANCH  32  33
ENDBRANCH  30  32
ENDBRANCH  25  26
ENDBRANCH  24  25
ENDBRANCH  23  24
ENDBRANCH  22  23
ENDBRANCH   4  22
TORSDOF 13
ENDMDL
MODEL 2
REMARK VINA RESULT:      -7.4      5.451      9.910
REMARK  Name = 
REMARK  13 active torsions:
REMARK  status: ('A' for Active; 'I' for Inactive)
REMARK    1  A    between atoms: C_2  and  N_3
REMARK    2  A    between atoms: N_5  and  C_6
REMARK    3  A    between atoms: C_6  and  C_7
REMARK    4  A    between atoms: C_7  and  N_8
REMARK    5  A    between atoms: C_9  and  C_11
REMARK    6  A    between atoms: C_11  and  C_12
REMARK    7  A    between atoms: N_18  and  C_19
REMARK    8  A    between atoms: C_19  and  C_20
REMARK    9  A    between atoms: C_20  and  C_21
REMARK   10  A    between atoms: C_21  and  O_22
REMARK   11  A    between atoms: O_22  and  C_23
REMARK   12  A    between atoms: C_27  and  C_28
REMARK   13  A    between atoms: C_28  and  N_29
REMARK                            x       y       z     vdW  Elec       q    Type
REMARK                         _______ _______ _______ _____ _____    ______ ____
ROOT
ATOM      1  N   UNL     1      -0.957   9.592  20.834  0.00  0.00    +0.000 N 
ATOM      2  C   UNL     1      -0.165   9.772  19.731  0.00  0.00    +0.000 C 
ATOM      3  N   UNL     1      -0.575  10.110  18.546  0.00  0.00    +0.000 NA
ATOM      4  N   UNL     1       1.180   9.517  19.864  0.00  0.00    +0.000 N 
ATOM      5  H   UNL     1      -1.934   9.774  20.672  0.00  0.00    +0.000 HD
ATOM      6  H   UNL     1       1.630   9.563  18.952  0.00  0.00    +0.000 HD
ENDROOT
BRANCH   1   8
ATOM      7  N   UNL     1      -0.191  10.666  23.079  0.00  0.00    +0.000 NA
ATOM      8  C   UNL     1      -0.521  10.158  22.092  0.00  0.00    +0.000 C 
ENDBRANCH   1   8
BRANCH   3   9
ATOM      9  C   UNL     1      -2.012  10.347  18.338  0.00  0.00    +0.000 C 
BRANCH   9  10
ATOM     10  C   UNL     1      -2.312  11.847  18.226  0.00  0.00    +0.000 C 
BRANCH  10  11
ATOM     11  N   UNL     1      -3.747  12.115  18.197  0.00  0.00    +0.000 N 
ATOM     12  C   UNL     1      -4.537  11.755  17.124  0.00  0.00    +0.000 C 
ATOM     13  O   UNL     1      -4.109  11.140  16.151  0.00  0.00    +0.000 OA
ATOM     14  H   UNL     1      -4.144  12.686  18.930  0.00  0.00    +0.000 HD
BRANCH  12  15
ATOM     15  C   UNL     1      -5.996  12.186  17.233  0.00  0.00    +0.000 C 
BRANCH  15  16
ATOM     16  C   UNL     1      -6.645  11.658  18.487  0.00  0.00    +0.000 A 
ATOM     17  C   UNL     1      -7.111  12.551  19.465  0.00  0.00    +0.000 A 
ATOM     18  C   UNL     1      -7.598  12.078  20.681  0.00  0.00    +0.000 A 
ATOM     19  C   UNL     1      -7.645  10.707  20.927  0.00  0.00    +0.000 A 
ATOM     20  C   UNL     1      -7.237   9.809  19.942  0.00  0.00    +0.000 A 
ATOM     21  C   UNL     1      -6.745  10.281  18.723  0.00  0.00    +0.000 A 
ENDBRANCH  15  16
ENDBRANCH  12  15
ENDBRANCH  10  11
ENDBRANCH   9  10
ENDBRANCH   3   9
BRANCH   4  22
ATOM     22  C   UNL     1       1.716   8.468  20.724  0.00  0.00    +0.000 C 
BRANCH  22  23
ATOM     23  C   UNL     1       1.982   7.161  19.979  0.00  0.00    +0.000 C 
BRANCH  23  24
ATOM     24  C   UNL     1       1.799   5.999  20.961  0.00  0.00    +0.000 C 
BRANCH  24  25
ATOM     25  O   UNL     1       0.956   4.985  20.414  0.00  0.00    +0.000 OA
BRANCH  25  26
ATOM     26  C   UNL     1       1.569   4.129  19.527  0.00  0.00    +0.000 A 
ATOM     27  C   UNL     1       0.952   2.891  19.351  0.00  0.00    +0.000 A 
ATOM     28  C   UNL     1       1.489   1.938  18.488  0.00  0.00    +0.000 A 
ATOM     29  C   UNL     1       2.667   2.214  17.792  0.00  0.00    +0.000 A 
ATOM     30  C   UNL     1       3.307   3.449  17.956  0.00  0.00    +0.000 A 
ATOM     31  C   UNL     1       2.741   4.402  18.818  0.00  0.00    +0.000 A 
BRANCH  30  32
ATOM     32  C   UNL     1       4.586   3.771  17.214  0.00  0.00    +0.000 C 
BRANCH  32  33
ATOM     33  N   UNL     1       5.300   4.957  17.745  0.00  0.00    +0.000 NA
ATOM     34  C   UNL     1       6.695   4.614  18.072  0.00  0.00    +0.000 C 
ATOM     35  C   UNL     1       7.548   5.827  18.448  0.00  0.00    +0.000 C 
ATOM     36  C   UNL     1       7.489   6.895  17.366  0.00  0.00    +0.000 C 
ATOM     37  C   UNL     1       6.037   7.277  17.120  0.00  0.00    +0.000 C 
ATOM     38  C   UNL     1       5.199   6.049  16.762  0.00  0.00    +0.000 C 
ENDBRANCH  32  33
ENDBRANCH  30  32
ENDBRANCH  25  26
ENDBRANCH  24  25
ENDBRANCH  23  24
ENDBRANCH  22  23
ENDBRANCH   4  22
TORSDOF 13
ENDMDL
MODEL 3
REMARK VINA RESULT:      -7.3      5.393      9.682
REMARK  Name = 
REMARK  13 active torsions:
REMARK  status: ('A' for Active; 'I' for Inactive)
REMARK    1  A    between atoms: C_2  and  N_3
REMARK    2  A    between atoms: N_5  and  C_6
REMARK    3  A    between atoms: C_6  and  C_7
REMARK    4  A    between atoms: C_7  and  N_8
REMARK    5  A    between atoms: C_9  and  C_11
REMARK    6  A    between atoms: C_11  and  C_12
REMARK    7  A    between atoms: N_18  and  C_19
REMARK    8  A    between atoms: C_19  and  C_20
REMARK    9  A    between atoms: C_20  and  C_21
REMARK   10  A    between atoms: C_21  and  O_22
REMARK   11  A    between atoms: O_22  and  C_23
REMARK   12  A    between atoms: C_27  and  C_28
REMARK   13  A    between atoms: C_28  and  N_29
REMARK                            x       y       z     vdW  Elec       q    Type
REMARK                         _______ _______ _______ _____ _____    ______ ____
ROOT
ATOM      1  N   UNL     1      -0.175   8.992  21.266  0.00  0.00    +0.000 N 
ATOM      2  C   UNL     1       0.323  10.242  21.012  0.00  0.00    +0.000 C 
ATOM      3  N   UNL     1       0.062  11.319  21.689  0.00  0.00    +0.000 NA
ATOM      4  N   UNL     1       1.130  10.394  19.908  0.00  0.00    +0.000 N 
ATOM      5  H   UNL     1      -0.774   8.946  22.075  0.00  0.00    +0.000 HD
ATOM      6  H   UNL     1       1.327  11.381  19.759  0.00  0.00    +0.000 HD
ENDROOT
BRANCH   1   8
ATOM      7  N   UNL     1       1.470   6.978  21.128  0.00  0.00    +0.000 NA
ATOM      8  C   UNL     1       0.734   7.868  21.223  0.00  0.00    +0.000 C 
ENDBRANCH   1   8
BRANCH   3   9
ATOM      9  C   UNL     1      -0.834  11.220  22.851  0.00  0.00    +0.000 C 
BRANCH   9  10
ATOM     10  C   UNL     1      -1.886  12.337  22.832  0.00  0.00    +0.000 C 
BRANCH  10  11
ATOM     11  N   UNL     1      -2.910  12.104  21.818  0.00  0.00    +0.000 N 
ATOM     12  C   UNL     1      -2.996  12.871  20.674  0.00  0.00    +0.000 C 
ATOM     13  O   UNL     1      -2.194  13.759  20.400  0.00  0.00    +0.000 OA
ATOM     14  H   UNL     1      -3.646  11.441  22.022  0.00  0.00    +0.000 HD
BRANCH  12  15
ATOM     15  C   UNL     1      -4.177  12.536  19.769  0.00  0.00    +0.000 C 
BRANCH  15  16
ATOM     16  C   UNL     1      -3.745  11.771  18.543  0.00  0.00    +0.000 A 
ATOM     17  C   UNL     1      -4.569  11.744  17.408  0.00  0.00    +0.000 A 
ATOM     18  C   UNL     1      -4.244  10.941  16.316  0.00  0.00    +0.000 A 
ATOM     19  C   UNL     1      -3.081  10.174  16.338  0.00  0.00    +0.000 A 
ATOM     20  C   UNL     1      -2.227  10.236  17.438  0.00  0.00    +0.000 A 
ATOM     21  C   UNL     1      -2.552  11.036  18.534  0.00  0.00    +0.000 A 
ENDBRANCH  15  16
ENDBRANCH  12  15
ENDBRANCH  10  11
ENDBRANCH   9  10
ENDBRANCH   3   9
BRANCH   4  22
ATOM     22  C   UNL     1       0.941   9.646  18.669  0.00  0.00    +0.000 C 
BRANCH  22  23
ATOM     23  C   UNL     1       2.225   9.508  17.852  0.00  0.00    +0.000 C 
BRANCH  23  24
ATOM     24  C   UNL     1       2.690   8.050  17.926  0.00  0.00    +0.000 C 
BRANCH  24  25
ATOM     25  O   UNL     1       3.867   7.839  17.147  0.00  0.00    +0.000 OA
BRANCH  25  26
ATOM     26  C   UNL     1       4.371   6.558  17.181  0.00  0.00    +0.000 A 
ATOM     27  C   UNL     1       4.947   6.099  15.996  0.00  0.00    +0.000 A 
ATOM     28  C   UNL     1       5.479   4.814  15.909  0.00  0.00    +0.000 A 
ATOM     29  C   UNL     1       5.429   3.963  17.013  0.00  0.00    +0.000 A 
ATOM     30  C   UNL     1       4.850   4.400  18.211  0.00  0.00    +0.000 A 
ATOM     31  C   UNL     1       4.335   5.703  18.285  0.00  0.00    +0.000 A 
BRANCH  30  32
ATOM     32  C   UNL     1       4.783   3.495  19.423  0.00  0.00    +0.000 C 
BRANCH  32  33
ATOM     33  N   UNL     1       3.450   2.881  19.635  0.00  0.00    +0.000 NA
ATOM     34  C   UNL     1       2.781   3.494  20.797  0.00  0.00    +0.000 C 
ATOM     35  C   UNL     1       1.328   3.046  20.967  0.00  0.00    +0.000 C 
ATOM     36  C   UNL     1       0.530   3.279  19.694  0.00  0.00    +0.000 C 
ATOM     37  C   UNL     1       1.212   2.562  18.538  0.00  0.00    +0.000 C 
ATOM     38  C   UNL     1       2.666   3.011  18.395  0.00  0.00    +0.000 C 
ENDBRANCH  32  33
ENDBRANCH  30  32
ENDBRANCH  25  26
ENDBRANCH  24  25
ENDBRANCH  23  24
ENDBRANCH  22  23
ENDBRANCH   4  22
TORSDOF 13
ENDMDL
MODEL 4
REMARK VINA RESULT:      -7.1      1.259      1.579
REMARK  Name = 
REMARK  13 active torsions:
REMARK  status: ('A' for Active; 'I' for Inactive)
REMARK    1  A    between atoms: C_2  and  N_3
REMARK    2  A    between atoms: N_5  and  C_6
REMARK    3  A    between atoms: C_6  and  C_7
REMARK    4  A    between atoms: C_7  and  N_8
REMARK    5  A    between atoms: C_9  and  C_11
REMARK    6  A    between atoms: C_11  and  C_12
REMARK    7  A    between atoms: N_18  and  C_19
REMARK    8  A    between atoms: C_19  and  C_20
REMARK    9  A    between atoms: C_20  and  C_21
REMARK   10  A    between atoms: C_21  and  O_22
REMARK   11  A    between atoms: O_22  and  C_23
REMARK   12  A    between atoms: C_27  and  C_28
REMARK   13  A    between atoms: C_28  and  N_29
REMARK                            x       y       z     vdW  Elec       q    Type
REMARK                         _______ _______ _______ _____ _____    ______ ____
ROOT
ATOM      1  N   UNL     1       0.611   9.671  18.850  0.00  0.00    +0.000 N 
ATOM      2  C   UNL     1       1.730  10.026  18.144  0.00  0.00    +0.000 C 
ATOM      3  N   UNL     1       2.593   9.208  17.624  0.00  0.00    +0.000 NA
ATOM      4  N   UNL     1       2.005  11.368  18.018  0.00  0.00    +0.000 N 
ATOM      5  H   UNL     1       0.472   8.676  18.926  0.00  0.00    +0.000 HD
ATOM      6  H   UNL     1       2.919  11.493  17.589  0.00  0.00    +0.000 HD
ENDROOT
BRANCH   1   8
ATOM      7  N   UNL     1      -1.599  10.922  18.273  0.00  0.00    +0.000 NA
ATOM      8  C   UNL     1      -0.631  10.353  18.558  0.00  0.00    +0.000 C 
ENDBRANCH   1   8
BRANCH   3   9
ATOM      9  C   UNL     1       2.372   7.762  17.771  0.00  0.00    +0.000 C 
BRANCH   9  10
ATOM     10  C   UNL     1       3.695   6.991  17.691  0.00  0.00    +0.000 C 
BRANCH  10  11
ATOM     11  N   UNL     1       3.520   5.574  17.996  0.00  0.00    +0.000 N 
ATOM     12  C   UNL     1       4.058   4.582  17.202  0.00  0.00    +0.000 C 
ATOM     13  O   UNL     1       4.762   4.814  16.223  0.00  0.00    +0.000 OA
ATOM     14  H   UNL     1       2.887   5.318  18.742  0.00  0.00    +0.000 HD
BRANCH  12  15
ATOM     15  C   UNL     1       3.705   3.161  17.629  0.00  0.00    +0.000 C 
BRANCH  15  16
ATOM     16  C   UNL     1       2.854   3.144  18.874  0.00  0.00    +0.000 A 
ATOM     17  C   UNL     1       3.447   2.919  20.125  0.00  0.00    +0.000 A 
ATOM     18  C   UNL     1       2.660   2.776  21.266  0.00  0.00    +0.000 A 
ATOM     19  C   UNL     1       1.273   2.878  21.173  0.00  0.00    +0.000 A 
ATOM     20  C   UNL     1       0.677   3.156  19.944  0.00  0.00    +0.000 A 
ATOM     21  C   UNL     1       1.463   3.296  18.799  0.00  0.00    +0.000 A 
ENDBRANCH  15  16
ENDBRANCH  12  15
ENDBRANCH  10  11
ENDBRANCH   9  10
ENDBRANCH   3   9
BRANCH   4  22
ATOM     22  C   UNL     1       1.715  12.347  19.061  0.00  0.00    +0.000 C 
BRANCH  22  23
ATOM     23  C   UNL     1       1.344  13.721  18.505  0.00  0.00    +0.000 C 
BRANCH  23  24
ATOM     24  C   UNL     1       2.633  14.435  18.085  0.00  0.00    +0.000 C 
BRANCH  24  25
ATOM     25  O   UNL     1       3.090  15.324  19.104  0.00  0.00    +0.000 OA
BRANCH  25  26
ATOM     26  C   UNL     1       4.435  15.247  19.390  0.00  0.00    +0.000 A 
ATOM     27  C   UNL     1       4.801  15.589  20.691  0.00  0.00    +0.000 A 
ATOM     28  C   UNL     1       6.135  15.560  21.091  0.00  0.00    +0.000 A 
ATOM     29  C   UNL     1       7.128  15.196  20.181  0.00  0.00    +0.000 A 
ATOM     30  C   UNL     1       6.784  14.853  18.867  0.00  0.00    +0.000 A 
ATOM     31  C   UNL     1       5.433  14.872  18.487  0.00  0.00    +0.000 A 
BRANCH  30  32
ATOM     32  C   UNL     1       7.843  14.455  17.860  0.00  0.00    +0.000 C 
BRANCH  32  33
ATOM     33  N   UNL     1       8.886  13.560  18.414  0.00  0.00    +0.000 NA
ATOM     34  C   UNL     1       8.776  12.215  17.824  0.00  0.00    +0.000 C 
ATOM     35  C   UNL     1       9.931  11.287  18.203  0.00  0.00    +0.000 C 
ATOM     36  C   UNL     1      11.273  11.920  17.870  0.00  0.00    +0.000 C 
ATOM     37  C   UNL     1      11.378  13.268  18.565  0.00  0.00    +0.000 C 
ATOM     38  C   UNL     1      10.206  14.174  18.186  0.00  0.00    +0.000 C 
ENDBRANCH  32  33
ENDBRANCH  30  32
ENDBRANCH  25  26
ENDBRANCH  24  25
ENDBRANCH  23  24
ENDBRANCH  22  23
ENDBRANCH   4  22
TORSDOF 13
ENDMDL
MODEL 5
REMARK VINA RESULT:      -7.1      4.310      5.728
REMARK  Name = 
REMARK  13 active torsions:
REMARK  status: ('A' for Active; 'I' for Inactive)
REMARK    1  A    between atoms: C_2  and  N_3
REMARK    2  A    between atoms: N_5  and  C_6
REMARK    3  A    between atoms: C_6  and  C_7
REMARK    4  A    between atoms: C_7  and  N_8
REMARK    5  A    between atoms: C_9  and  C_11
REMARK    6  A    between atoms: C_11  and  C_12
REMARK    7  A    between atoms: N_18  and  C_19
REMARK    8  A    between atoms: C_19  and  C_20
REMARK    9  A    between atoms: C_20  and  C_21
REMARK   10  A    between atoms: C_21  and  O_22
REMARK   11  A    between atoms: O_22  and  C_23
REMARK   12  A    between atoms: C_27  and  C_28
REMARK   13  A    between atoms: C_28  and  N_29
REMARK                            x       y       z     vdW  Elec       q    Type
REMARK                         _______ _______ _______ _____ _____    ______ ____
ROOT
ATOM      1  N   UNL     1       8.011   5.476  17.726  0.00  0.00    +0.000 N 
ATOM      2  C   UNL     1       7.332   6.350  16.919  0.00  0.00    +0.000 C 
ATOM      3  N   UNL     1       6.850   6.085  15.743  0.00  0.00    +0.000 NA
ATOM      4  N   UNL     1       7.192   7.646  17.360  0.00  0.00    +0.000 N 
ATOM      5  H   UNL     1       8.099   4.549  17.343  0.00  0.00    +0.000 HD
ATOM      6  H   UNL     1       6.787   8.219  16.622  0.00  0.00    +0.000 HD
ENDROOT
BRANCH   1   8
ATOM      7  N   UNL     1       7.437   5.349  20.263  0.00  0.00    +0.000 NA
ATOM      8  C   UNL     1       7.672   5.433  19.131  0.00  0.00    +0.000 C 
ENDBRANCH   1   8
BRANCH   3   9
ATOM      9  C   UNL     1       7.015   4.726  15.205  0.00  0.00    +0.000 C 
BRANCH   9  10
ATOM     10  C   UNL     1       5.694   3.949  15.256  0.00  0.00    +0.000 C 
BRANCH  10  11
ATOM     11  N   UNL     1       5.442   3.390  16.581  0.00  0.00    +0.000 N 
ATOM     12  C   UNL     1       4.634   4.027  17.502  0.00  0.00    +0.000 C 
ATOM     13  O   UNL     1       4.031   5.068  17.260  0.00  0.00    +0.000 OA
ATOM     14  H   UNL     1       5.970   2.578  16.869  0.00  0.00    +0.000 HD
BRANCH  12  15
ATOM     15  C   UNL     1       4.551   3.338  18.860  0.00  0.00    +0.000 C 
BRANCH  15  16
ATOM     16  C   UNL     1       3.124   3.176  19.321  0.00  0.00    +0.000 A 
ATOM     17  C   UNL     1       2.209   2.466  18.529  0.00  0.00    +0.000 A 
ATOM     18  C   UNL     1       0.861   2.415  18.879  0.00  0.00    +0.000 A 
ATOM     19  C   UNL     1       0.416   3.055  20.034  0.00  0.00    +0.000 A 
ATOM     20  C   UNL     1       1.326   3.717  20.857  0.00  0.00    +0.000 A 
ATOM     21  C   UNL     1       2.677   3.772  20.507  0.00  0.00    +0.000 A 
ENDBRANCH  15  16
ENDBRANCH  12  15
ENDBRANCH  10  11
ENDBRANCH   9  10
ENDBRANCH   3   9
BRANCH   4  22
ATOM     22  C   UNL     1       8.209   8.341  18.141  0.00  0.00    +0.000 C 
BRANCH  22  23
ATOM     23  C   UNL     1       8.477   9.762  17.646  0.00  0.00    +0.000 C 
BRANCH  23  24
ATOM     24  C   UNL     1       9.112  10.560  18.789  0.00  0.00    +0.000 C 
BRANCH  24  25
ATOM     25  O   UNL     1       9.068  11.963  18.531  0.00  0.00    +0.000 OA
BRANCH  25  26
ATOM     26  C   UNL     1       9.389  12.767  19.602  0.00  0.00    +0.000 A 
ATOM     27  C   UNL     1      10.362  13.737  19.365  0.00  0.00    +0.000 A 
ATOM     28  C   UNL     1      10.777  14.599  20.378  0.00  0.00    +0.000 A 
ATOM     29  C   UNL     1      10.224  14.491  21.654  0.00  0.00    +0.000 A 
ATOM     30  C   UNL     1       9.249  13.521  21.918  0.00  0.00    +0.000 A 
ATOM     31  C   UNL     1       8.833  12.672  20.880  0.00  0.00    +0.000 A 
BRANCH  30  32
ATOM     32  C   UNL     1       8.635  13.383  23.294  0.00  0.00    +0.000 C 
BRANCH  32  33
ATOM     33  N   UNL     1       7.602  14.404  23.592  0.00  0.00    +0.000 NA
ATOM     34  C   UNL     1       8.223  15.609  24.170  0.00  0.00    +0.000 C 
ATOM     35  C   UNL     1       7.248  16.777  24.331  0.00  0.00    +0.000 C 
ATOM     36  C   UNL     1       6.557  17.098  23.015  0.00  0.00    +0.000 C 
ATOM     37  C   UNL     1       5.862  15.848  22.496  0.00  0.00    +0.000 C 
ATOM     38  C   UNL     1       6.849  14.689  22.359  0.00  0.00    +0.000 C 
ENDBRANCH  32  33
ENDBRANCH  30  32
ENDBRANCH  25  26
ENDBRANCH  24  25
ENDBRANCH  23  24
ENDBRANCH  22  23
ENDBRANCH   4  22
TORSDOF 13
ENDMDL
MODEL 6
REMARK VINA RESULT:      -7.1      5.849      9.541
REMARK  Name = 
REMARK  13 active torsions:
REMARK  status: ('A' for Active; 'I' for Inactive)
REMARK    1  A    between atoms: C_2  and  N_3
REMARK    2  A    between atoms: N_5  and  C_6
REMARK    3  A    between atoms: C_6  and  C_7
REMARK    4  A    between atoms: C_7  and  N_8
REMARK    5  A    between atoms: C_9  and  C_11
REMARK    6  A    between atoms: C_11  and  C_12
REMARK    7  A    between atoms: N_18  and  C_19
REMARK    8  A    between atoms: C_19  and  C_20
REMARK    9  A    between atoms: C_20  and  C_21
REMARK   10  A    between atoms: C_21  and  O_22
REMARK   11  A    between atoms: O_22  and  C_23
REMARK   12  A    between atoms: C_27  and  C_28
REMARK   13  A    between atoms: C_28  and  N_29
REMARK                            x       y       z     vdW  Elec       q    Type
REMARK                         _______ _______ _______ _____ _____    ______ ____
ROOT
ATOM      1  N   UNL     1       1.708   6.521  18.846  0.00  0.00    +0.000 N 
ATOM      2  C   UNL     1       1.655   6.596  20.213  0.00  0.00    +0.000 C 
ATOM      3  N   UNL     1       1.448   5.603  21.023  0.00  0.00    +0.000 NA
ATOM      4  N   UNL     1       1.771   7.841  20.787  0.00  0.00    +0.000 N 
ATOM      5  H   UNL     1       1.598   5.588  18.482  0.00  0.00    +0.000 HD
ATOM      6  H   UNL     1       1.588   7.777  21.786  0.00  0.00    +0.000 HD
ENDROOT
BRANCH   1   8
ATOM      7  N   UNL     1       3.630   7.743  17.583  0.00  0.00    +0.000 NA
ATOM      8  C   UNL     1       2.767   7.229  18.160  0.00  0.00    +0.000 C 
ENDBRANCH   1   8
BRANCH   3   9
ATOM      9  C   UNL     1       1.269   4.258  20.457  0.00  0.00    +0.000 C 
BRANCH   9  10
ATOM     10  C   UNL     1       2.589   3.477  20.463  0.00  0.00    +0.000 C 
BRANCH  10  11
ATOM     11  N   UNL     1       3.671   4.231  19.837  0.00  0.00    +0.000 N 
ATOM     12  C   UNL     1       4.877   3.645  19.506  0.00  0.00    +0.000 C 
ATOM     13  O   UNL     1       5.106   2.448  19.660  0.00  0.00    +0.000 OA
ATOM     14  H   UNL     1       3.574   5.234  19.756  0.00  0.00    +0.000 HD
BRANCH  12  15
ATOM     15  C   UNL     1       5.916   4.603  18.935  0.00  0.00    +0.000 C 
BRANCH  15  16
ATOM     16  C   UNL     1       5.974   4.537  17.430  0.00  0.00    +0.000 A 
ATOM     17  C   UNL     1       7.203   4.682  16.769  0.00  0.00    +0.000 A 
ATOM     18  C   UNL     1       7.256   4.749  15.378  0.00  0.00    +0.000 A 
ATOM     19  C   UNL     1       6.083   4.649  14.632  0.00  0.00    +0.000 A 
ATOM     20  C   UNL     1       4.863   4.449  15.275  0.00  0.00    +0.000 A 
ATOM     21  C   UNL     1       4.807   4.386  16.669  0.00  0.00    +0.000 A 
ENDBRANCH  15  16
ENDBRANCH  12  15
ENDBRANCH  10  11
ENDBRANCH   9  10
ENDBRANCH   3   9
BRANCH   4  22
ATOM     22  C   UNL     1       1.245   9.058  20.177  0.00  0.00    +0.000 C 
BRANCH  22  23
ATOM     23  C   UNL     1      -0.109   9.476  20.749  0.00  0.00    +0.000 C 
BRANCH  23  24
ATOM     24  C   UNL     1      -0.697  10.567  19.847  0.00  0.00    +0.000 C 
BRANCH  24  25
ATOM     25  O   UNL     1      -0.733  10.149  18.483  0.00  0.00    +0.000 OA
BRANCH  25  26
ATOM     26  C   UNL     1      -1.908  10.418  17.818  0.00  0.00    +0.000 A 
ATOM     27  C   UNL     1      -2.006   9.905  16.524  0.00  0.00    +0.000 A 
ATOM     28  C   UNL     1      -3.145  10.124  15.751  0.00  0.00    +0.000 A 
ATOM     29  C   UNL     1      -4.202  10.875  16.265  0.00  0.00    +0.000 A 
ATOM     30  C   UNL     1      -4.124  11.404  17.560  0.00  0.00    +0.000 A 
ATOM     31  C   UNL     1      -2.976  11.158  18.330  0.00  0.00    +0.000 A 
BRANCH  30  32
ATOM     32  C   UNL     1      -5.258  12.223  18.140  0.00  0.00    +0.000 C 
BRANCH  32  33
ATOM     33  N   UNL     1      -5.638  11.823  19.516  0.00  0.00    +0.000 NA
ATOM     34  C   UNL     1      -5.372  12.922  20.462  0.00  0.00    +0.000 C 
ATOM     35  C   UNL     1      -5.910  12.656  21.869  0.00  0.00    +0.000 C 
ATOM     36  C   UNL     1      -7.391  12.314  21.833  0.00  0.00    +0.000 C 
ATOM     37  C   UNL     1      -7.609  11.125  20.910  0.00  0.00    +0.000 C 
ATOM     38  C   UNL     1      -7.050  11.405  19.515  0.00  0.00    +0.000 C 
ENDBRANCH  32  33
ENDBRANCH  30  32
ENDBRANCH  25  26
ENDBRANCH  24  25
ENDBRANCH  23  24
ENDBRANCH  22  23
ENDBRANCH   4  22
TORSDOF 13
ENDMDL
MODEL 7
REMARK VINA RESULT:      -7.0      5.830      9.318
REMARK  Name = 
REMARK  13 active torsions:
REMARK  status: ('A' for Active; 'I' for Inactive)
REMARK    1  A    between atoms: C_2  and  N_3
REMARK    2  A    between atoms: N_5  and  C_6
REMARK    3  A    between atoms: C_6  and  C_7
REMARK    4  A    between atoms: C_7  and  N_8
REMARK    5  A    between atoms: C_9  and  C_11
REMARK    6  A    between atoms: C_11  and  C_12
REMARK    7  A    between atoms: N_18  and  C_19
REMARK    8  A    between atoms: C_19  and  C_20
REMARK    9  A    between atoms: C_20  and  C_21
REMARK   10  A    between atoms: C_21  and  O_22
REMARK   11  A    between atoms: O_22  and  C_23
REMARK   12  A    between atoms: C_27  and  C_28
REMARK   13  A    between atoms: C_28  and  N_29
REMARK                            x       y       z     vdW  Elec       q    Type
REMARK                         _______ _______ _______ _____ _____    ______ ____
ROOT
ATOM      1  N   UNL     1      -0.415  12.994  21.950  0.00  0.00    +0.000 N 
ATOM      2  C   UNL     1      -1.347  12.005  21.778  0.00  0.00    +0.000 C 
ATOM      3  N   UNL     1      -1.095  10.758  21.521  0.00  0.00    +0.000 NA
ATOM      4  N   UNL     1      -2.673  12.366  21.821  0.00  0.00    +0.000 N 
ATOM      5  H   UNL     1       0.539  12.674  21.888  0.00  0.00    +0.000 HD
ATOM      6  H   UNL     1      -3.254  11.574  21.554  0.00  0.00    +0.000 HD
ENDROOT
BRANCH   1   8
ATOM      7  N   UNL     1      -0.736  14.702  23.889  0.00  0.00    +0.000 NA
ATOM      8  C   UNL     1      -0.587  13.918  23.049  0.00  0.00    +0.000 C 
ENDBRANCH   1   8
BRANCH   3   9
ATOM      9  C   UNL     1       0.307  10.329  21.416  0.00  0.00    +0.000 C 
BRANCH   9  10
ATOM     10  C   UNL     1       0.646   9.897  19.984  0.00  0.00    +0.000 C 
BRANCH  10  11
ATOM     11  N   UNL     1       1.659   8.847  19.956  0.00  0.00    +0.000 N 
ATOM     12  C   UNL     1       2.003   8.192  18.791  0.00  0.00    +0.000 C 
ATOM     13  O   UNL     1       1.530   8.479  17.695  0.00  0.00    +0.000 OA
ATOM     14  H   UNL     1       2.028   8.511  20.836  0.00  0.00    +0.000 HD
BRANCH  12  15
ATOM     15  C   UNL     1       3.021   7.070  18.967  0.00  0.00    +0.000 C 
BRANCH  15  16
ATOM     16  C   UNL     1       2.353   5.733  19.170  0.00  0.00    +0.000 A 
ATOM     17  C   UNL     1       2.103   4.900  18.069  0.00  0.00    +0.000 A 
ATOM     18  C   UNL     1       1.376   3.721  18.223  0.00  0.00    +0.000 A 
ATOM     19  C   UNL     1       0.910   3.351  19.483  0.00  0.00    +0.000 A 
ATOM     20  C   UNL     1       1.200   4.143  20.593  0.00  0.00    +0.000 A 
ATOM     21  C   UNL     1       1.925   5.326  20.440  0.00  0.00    +0.000 A 
ENDBRANCH  15  16
ENDBRANCH  12  15
ENDBRANCH  10  11
ENDBRANCH   9  10
ENDBRANCH   3   9
BRANCH   4  22
ATOM     22  C   UNL     1      -3.173  13.645  21.326  0.00  0.00    +0.000 C 
BRANCH  22  23
ATOM     23  C   UNL     1      -4.154  14.316  22.286  0.00  0.00    +0.000 C 
BRANCH  23  24
ATOM     24  C   UNL     1      -5.477  14.539  21.546  0.00  0.00    +0.000 C 
BRANCH  24  25
ATOM     25  O   UNL     1      -6.388  13.464  21.775  0.00  0.00    +0.000 OA
BRANCH  25  26
ATOM     26  C   UNL     1      -6.515  12.571  20.734  0.00  0.00    +0.000 A 
ATOM     27  C   UNL     1      -7.139  11.363  21.042  0.00  0.00    +0.000 A 
ATOM     28  C   UNL     1      -7.312  10.378  20.071  0.00  0.00    +0.000 A 
ATOM     29  C   UNL     1      -6.846  10.590  18.773  0.00  0.00    +0.000 A 
ATOM     30  C   UNL     1      -6.211  11.793  18.442  0.00  0.00    +0.000 A 
ATOM     31  C   UNL     1      -6.062  12.780  19.429  0.00  0.00    +0.000 A 
BRANCH  30  32
ATOM     32  C   UNL     1      -5.696  12.047  17.041  0.00  0.00    +0.000 C 
BRANCH  32  33
ATOM     33  N   UNL     1      -4.245  11.791  16.884  0.00  0.00    +0.000 NA
ATOM     34  C   UNL     1      -3.650  11.394  18.173  0.00  0.00    +0.000 C 
ATOM     35  C   UNL     1      -2.197  10.932  18.055  0.00  0.00    +0.000 C 
ATOM     36  C   UNL     1      -2.056   9.822  17.025  0.00  0.00    +0.000 C 
ATOM     37  C   UNL     1      -2.607  10.304  15.691  0.00  0.00    +0.000 C 
ATOM     38  C   UNL     1      -4.054  10.776  15.834  0.00  0.00    +0.000 C 
ENDBRANCH  32  33
ENDBRANCH  30  32
ENDBRANCH  25  26
ENDBRANCH  24  25
ENDBRANCH  23  24
ENDBRANCH  22  23
ENDBRANCH   4  22
TORSDOF 13
ENDMDL
MODEL 8
REMARK VINA RESULT:      -7.0      3.403     10.123
REMARK  Name = 
REMARK  13 active torsions:
REMARK  status: ('A' for Active; 'I' for Inactive)
REMARK    1  A    between atoms: C_2  and  N_3
REMARK    2  A    between atoms: N_5  and  C_6
REMARK    3  A    between atoms: C_6  and  C_7
REMARK    4  A    between atoms: C_7  and  N_8
REMARK    5  A    between atoms: C_9  and  C_11
REMARK    6  A    between atoms: C_11  and  C_12
REMARK    7  A    between atoms: N_18  and  C_19
REMARK    8  A    between atoms: C_19  and  C_20
REMARK    9  A    between atoms: C_20  and  C_21
REMARK   10  A    between atoms: C_21  and  O_22
REMARK   11  A    between atoms: O_22  and  C_23
REMARK   12  A    between atoms: C_27  and  C_28
REMARK   13  A    between atoms: C_28  and  N_29
REMARK                            x       y       z     vdW  Elec       q    Type
REMARK                         _______ _______ _______ _____ _____    ______ ____
ROOT
ATOM      1  N   UNL     1       4.868   5.148  18.333  0.00  0.00    +0.000 N 
ATOM      2  C   UNL     1       4.707   6.337  17.671  0.00  0.00    +0.000 C 
ATOM      3  N   UNL     1       5.654   7.042  17.131  0.00  0.00    +0.000 NA
ATOM      4  N   UNL     1       3.440   6.870  17.619  0.00  0.00    +0.000 N 
ATOM      5  H   UNL     1       5.819   4.817  18.356  0.00  0.00    +0.000 HD
ATOM      6  H   UNL     1       3.476   7.805  17.217  0.00  0.00    +0.000 HD
ENDROOT
BRANCH   1   8
ATOM      7  N   UNL     1       3.198   3.202  17.878  0.00  0.00    +0.000 NA
ATOM      8  C   UNL     1       3.945   4.072  18.047  0.00  0.00    +0.000 C 
ENDBRANCH   1   8
BRANCH   3   9
ATOM      9  C   UNL     1       7.034   6.540  17.202  0.00  0.00    +0.000 C 
BRANCH   9  10
ATOM     10  C   UNL     1       7.881   7.390  18.157  0.00  0.00    +0.000 C 
BRANCH  10  11
ATOM     11  N   UNL     1       8.034   8.760  17.678  0.00  0.00    +0.000 N 
ATOM     12  C   UNL     1       8.666   9.732  18.427  0.00  0.00    +0.000 C 
ATOM     13  O   UNL     1       9.191   9.506  19.513  0.00  0.00    +0.000 OA
ATOM     14  H   UNL     1       7.556   9.028  16.828  0.00  0.00    +0.000 HD
BRANCH  12  15
ATOM     15  C   UNL     1       8.660  11.124  17.802  0.00  0.00    +0.000 C 
BRANCH  15  16
ATOM     16  C   UNL     1       9.757  11.995  18.360  0.00  0.00    +0.000 A 
ATOM     17  C   UNL     1      11.059  11.895  17.848  0.00  0.00    +0.000 A 
ATOM     18  C   UNL     1      12.107  12.601  18.437  0.00  0.00    +0.000 A 
ATOM     19  C   UNL     1      11.862  13.429  19.530  0.00  0.00    +0.000 A 
ATOM     20  C   UNL     1      10.562  13.578  20.012  0.00  0.00    +0.000 A 
ATOM     21  C   UNL     1       9.511  12.870  19.427  0.00  0.00    +0.000 A 
ENDBRANCH  15  16
ENDBRANCH  12  15
ENDBRANCH  10  11
ENDBRANCH   9  10
ENDBRANCH   3   9
BRANCH   4  22
ATOM     22  C   UNL     1       2.470   6.741  18.702  0.00  0.00    +0.000 C 
BRANCH  22  23
ATOM     23  C   UNL     1       2.061   8.086  19.302  0.00  0.00    +0.000 C 
BRANCH  23  24
ATOM     24  C   UNL     1       1.674   9.027  18.157  0.00  0.00    +0.000 C 
BRANCH  24  25
ATOM     25  O   UNL     1       1.391  10.341  18.637  0.00  0.00    +0.000 OA
BRANCH  25  26
ATOM     26  C   UNL     1       0.060  10.694  18.630  0.00  0.00    +0.000 A 
ATOM     27  C   UNL     1      -0.748  10.000  17.730  0.00  0.00    +0.000 A 
ATOM     28  C   UNL     1      -2.110  10.281  17.626  0.00  0.00    +0.000 A 
ATOM     29  C   UNL     1      -2.678  11.276  18.421  0.00  0.00    +0.000 A 
ATOM     30  C   UNL     1      -1.885  11.990  19.328  0.00  0.00    +0.000 A 
ATOM     31  C   UNL     1      -0.519  11.681  19.431  0.00  0.00    +0.000 A 
BRANCH  30  32
ATOM     32  C   UNL     1      -2.478  13.075  20.201  0.00  0.00    +0.000 C 
BRANCH  32  33
ATOM     33  N   UNL     1      -3.297  12.557  21.323  0.00  0.00    +0.000 NA
ATOM     34  C   UNL     1      -2.508  12.534  22.568  0.00  0.00    +0.000 C 
ATOM     35  C   UNL     1      -3.336  12.189  23.807  0.00  0.00    +0.000 C 
ATOM     36  C   UNL     1      -4.535  13.115  23.939  0.00  0.00    +0.000 C 
ATOM     37  C   UNL     1      -5.364  13.045  22.665  0.00  0.00    +0.000 C 
ATOM     38  C   UNL     1      -4.515  13.377  21.438  0.00  0.00    +0.000 C 
ENDBRANCH  32  33
ENDBRANCH  30  32
ENDBRANCH  25  26
ENDBRANCH  24  25
ENDBRANCH  23  24
ENDBRANCH  22  23
ENDBRANCH   4  22
TORSDOF 13
ENDMDL
MODEL 9
REMARK VINA RESULT:      -7.0      1.271      1.500
REMARK  Name = 
REMARK  13 active torsions:
REMARK  status: ('A' for Active; 'I' for Inactive)
REMARK    1  A    between atoms: C_2  and  N_3
REMARK    2  A    between atoms: N_5  and  C_6
REMARK    3  A    between atoms: C_6  and  C_7
REMARK    4  A    between atoms: C_7  and  N_8
REMARK    5  A    between atoms: C_9  and  C_11
REMARK    6  A    between atoms: C_11  and  C_12
REMARK    7  A    between atoms: N_18  and  C_19
REMARK    8  A    between atoms: C_19  and  C_20
REMARK    9  A    between atoms: C_20  and  C_21
REMARK   10  A    between atoms: C_21  and  O_22
REMARK   11  A    between atoms: O_22  and  C_23
REMARK   12  A    between atoms: C_27  and  C_28
REMARK   13  A    between atoms: C_28  and  N_29
REMARK                            x       y       z     vdW  Elec       q    Type
REMARK                         _______ _______ _______ _____ _____    ______ ____
ROOT
ATOM      1  N   UNL     1       0.855  11.347  20.808  0.00  0.00    +0.000 N 
ATOM      2  C   UNL     1       0.861  11.647  19.471  0.00  0.00    +0.000 C 
ATOM      3  N   UNL     1       0.986  10.794  18.500  0.00  0.00    +0.000 NA
ATOM      4  N   UNL     1       0.789  12.974  19.116  0.00  0.00    +0.000 N 
ATOM      5  H   UNL     1       0.930  10.362  21.007  0.00  0.00    +0.000 HD
ATOM      6  H   UNL     1       0.931  13.070  18.113  0.00  0.00    +0.000 HD
ENDROOT
BRANCH   1   8
ATOM      7  N   UNL     1      -0.919  12.536  22.297  0.00  0.00    +0.000 NA
ATOM      8  C   UNL     1      -0.139  11.977  21.648  0.00  0.00    +0.000 C 
ENDBRANCH   1   8
BRANCH   3   9
ATOM      9  C   UNL     1       1.115   9.366  18.827  0.00  0.00    +0.000 C 
BRANCH   9  10
ATOM     10  C   UNL     1       2.171   8.692  17.942  0.00  0.00    +0.000 C 
BRANCH  10  11
ATOM     11  N   UNL     1       2.777   7.538  18.599  0.00  0.00    +0.000 N 
ATOM     12  C   UNL     1       3.715   6.745  17.969  0.00  0.00    +0.000 C 
ATOM     13  O   UNL     1       4.145   6.980  16.844  0.00  0.00    +0.000 OA
ATOM     14  H   UNL     1       2.408   7.247  19.494  0.00  0.00    +0.000 HD
BRANCH  12  15
ATOM     15  C   UNL     1       4.177   5.539  18.779  0.00  0.00    +0.000 C 
BRANCH  15  16
ATOM     16  C   UNL     1       3.029   4.628  19.136  0.00  0.00    +0.000 A 
ATOM     17  C   UNL     1       2.437   3.828  18.148  0.00  0.00    +0.000 A 
ATOM     18  C   UNL     1       1.298   3.077  18.434  0.00  0.00    +0.000 A 
ATOM     19  C   UNL     1       0.751   3.102  19.715  0.00  0.00    +0.000 A 
ATOM     20  C   UNL     1       1.363   3.851  20.719  0.00  0.00    +0.000 A 
ATOM     21  C   UNL     1       2.502   4.606  20.434  0.00  0.00    +0.000 A 
ENDBRANCH  15  16
ENDBRANCH  12  15
ENDBRANCH  10  11
ENDBRANCH   9  10
ENDBRANCH   3   9
BRANCH   4  22
ATOM     22  C   UNL     1       1.401  14.046  19.894  0.00  0.00    +0.000 C 
BRANCH  22  23
ATOM     23  C   UNL     1       2.927  14.042  19.822  0.00  0.00    +0.000 C 
BRANCH  23  24
ATOM     24  C   UNL     1       3.340  13.965  18.348  0.00  0.00    +0.000 C 
BRANCH  24  25
ATOM     25  O   UNL     1       3.772  15.236  17.863  0.00  0.00    +0.000 OA
BRANCH  25  26
ATOM     26  C   UNL     1       5.053  15.594  18.218  0.00  0.00    +0.000 A 
ATOM     27  C   UNL     1       5.194  16.858  18.792  0.00  0.00    +0.000 A 
ATOM     28  C   UNL     1       6.445  17.334  19.180  0.00  0.00    +0.000 A 
ATOM     29  C   UNL     1       7.580  16.547  18.986  0.00  0.00    +0.000 A 
ATOM     30  C   UNL     1       7.464  15.277  18.407  0.00  0.00    +0.000 A 
ATOM     31  C   UNL     1       6.193  14.808  18.038  0.00  0.00    +0.000 A 
BRANCH  30  32
ATOM     32  C   UNL     1       8.681  14.404  18.184  0.00  0.00    +0.000 C 
BRANCH  32  33
ATOM     33  N   UNL     1       8.563  13.053  18.782  0.00  0.00    +0.000 NA
ATOM     34  C   UNL     1       8.916  12.020  17.792  0.00  0.00    +0.000 C 
ATOM     35  C   UNL     1       9.000  10.612  18.384  0.00  0.00    +0.000 C 
ATOM     36  C   UNL     1       9.947  10.574  19.573  0.00  0.00    +0.000 C 
ATOM     37  C   UNL     1       9.497  11.597  20.605  0.00  0.00    +0.000 C 
ATOM     38  C   UNL     1       9.405  12.993  19.989  0.00  0.00    +0.000 C 
ENDBRANCH  32  33
ENDBRANCH  30  32
ENDBRANCH  25  26
ENDBRANCH  24  25
ENDBRANCH  23  24
ENDBRANCH  22  23
ENDBRANCH   4  22
TORSDOF 13
ENDMDL
