MODEL 1
REMARK VINA RESULT:      -8.0      0.000      0.000
REMARK  Name = 
REMARK  7 active torsions:
REMARK  status: ('A' for Active; 'I' for Inactive)
REMARK    1  A    between atoms: O_1  and  C_2
REMARK    2  A    between atoms: C_2  and  C_3
REMARK    3  A    between atoms: C_5  and  C_6
REMARK    4  A    between atoms: C_6  and  C_7
REMARK    5  A    between atoms: C_7  and  N_8
REMARK    6  A    between atoms: N_8  and  C_9
REMARK    7  A    between atoms: C_9  and  C_10
REMARK                            x       y       z     vdW  Elec       q    Type
REMARK                         _______ _______ _______ _____ _____    ______ ____
ROOT
ATOM      1  C   UNL     1       5.856   4.772  17.640  0.00  0.00    +0.000 C 
ATOM      2  C   UNL     1       7.373   4.601  17.859  0.00  0.00    +0.000 C 
ATOM      3  O   UNL     1       7.236   4.940  19.267  0.00  0.00    +0.000 OA
ATOM      4  C   UNL     1       5.900   5.468  19.015  0.00  0.00    +0.000 C 
ENDROOT
BRANCH   1   5
ATOM      5  N   UNL     1       5.155   3.460  17.641  0.00  0.00    +0.000 NA
ATOM      6  H   UNL     1       5.308   2.911  18.486  0.00  0.00    +0.000 HD
BRANCH   5   7
ATOM      7  C   UNL     1       3.718   3.445  17.354  0.00  0.00    +0.000 C 
BRANCH   7   8
ATOM      8  C   UNL     1       2.962   3.425  18.660  0.00  0.00    +0.000 A 
ATOM      9  C   UNL     1       1.700   4.040  18.771  0.00  0.00    +0.000 A 
ATOM     10  C   UNL     1       0.964   3.983  19.966  0.00  0.00    +0.000 A 
ATOM     11  C   UNL     1       1.475   3.316  21.080  0.00  0.00    +0.000 A 
ATOM     12  C   UNL     1       2.718   2.730  20.960  0.00  0.00    +0.000 A 
ATOM     13  C   UNL     1       3.443   2.778  19.787  0.00  0.00    +0.000 A 
ATOM     14  O   UNL     1       4.628   2.117  19.894  0.00  0.00    +0.000 OA
ATOM     15  C   UNL     1       4.577   1.673  21.265  0.00  0.00    +0.000 C 
ATOM     16  O   UNL     1       3.359   2.037  21.941  0.00  0.00    +0.000 OA
ENDBRANCH   7   8
ENDBRANCH   5   7
ENDBRANCH   1   5
BRANCH   1  17
ATOM     17  C   UNL     1       5.476   5.635  16.439  0.00  0.00    +0.000 C 
BRANCH  17  20
ATOM     18  C   UNL     1       6.594   4.176  13.272  0.00  0.00    +0.000 A 
ATOM     19  C   UNL     1       5.658   4.193  14.276  0.00  0.00    +0.000 A 
ATOM     20  C   UNL     1       6.120   5.178  15.176  0.00  0.00    +0.000 A 
ATOM     21  N   UNL     1       7.278   5.711  14.760  0.00  0.00    +0.000 NA
ATOM     22  O   UNL     1       7.570   5.080  13.561  0.00  0.00    +0.000 OA
BRANCH  18  23
ATOM     23  C   UNL     1       6.725   3.446  11.998  0.00  0.00    +0.000 C 
BRANCH  23  24
ATOM     24  O   UNL     1       5.848   2.326  12.046  0.00  0.00    +0.000 OA
ATOM     25  H   UNL     1       4.983   2.637  11.729  0.00  0.00    +0.000 HD
ENDBRANCH  23  24
ENDBRANCH  18  23
ENDBRANCH  17  20
ENDBRANCH   1  17
TORSDOF 7
ENDMDL
MODEL 2
REMARK VINA RESULT:      -8.0      1.702      2.012
REMARK  Name = 
REMARK  7 active torsions:
REMARK  status: ('A' for Active; 'I' for Inactive)
REMARK    1  A    between atoms: O_1  and  C_2
REMARK    2  A    between atoms: C_2  and  C_3
REMARK    3  A    between atoms: C_5  and  C_6
REMARK    4  A    between atoms: C_6  and  C_7
REMARK    5  A    between atoms: C_7  and  N_8
REMARK    6  A    between atoms: N_8  and  C_9
REMARK    7  A    between atoms: C_9  and  C_10
REMARK                            x       y       z     vdW  Elec       q    Type
REMARK                         _______ _______ _______ _____ _____    ______ ____
ROOT
ATOM      1  C   UNL     1       6.586   5.918  17.688  0.00  0.00    +0.000 C 
ATOM      2  C   UNL     1       7.670   6.904  18.167  0.00  0.00    +0.000 C 
ATOM      3  O   UNL     1       7.042   7.993  17.435  0.00  0.00    +0.000 OA
ATOM      4  C   UNL     1       6.248   7.033  16.679  0.00  0.00    +0.000 C 
ENDROOT
BRANCH   1   5
ATOM      5  N   UNL     1       5.548   5.701  18.731  0.00  0.00    +0.000 NA
ATOM      6  H   UNL     1       5.799   6.072  19.646  0.00  0.00    +0.000 HD
BRANCH   5   7
ATOM      7  C   UNL     1       4.177   6.129  18.439  0.00  0.00    +0.000 C 
BRANCH   7   8
ATOM      8  C   UNL     1       3.217   5.180  19.115  0.00  0.00    +0.000 A 
ATOM      9  C   UNL     1       2.298   5.649  20.073  0.00  0.00    +0.000 A 
ATOM     10  C   UNL     1       1.365   4.785  20.671  0.00  0.00    +0.000 A 
ATOM     11  C   UNL     1       1.336   3.432  20.332  0.00  0.00    +0.000 A 
ATOM     12  C   UNL     1       2.252   2.986  19.402  0.00  0.00    +0.000 A 
ATOM     13  C   UNL     1       3.166   3.830  18.808  0.00  0.00    +0.000 A 
ATOM     14  O   UNL     1       3.954   3.176  17.910  0.00  0.00    +0.000 OA
ATOM     15  C   UNL     1       3.452   1.830  18.028  0.00  0.00    +0.000 C 
ATOM     16  O   UNL     1       2.357   1.704  18.954  0.00  0.00    +0.000 OA
ENDBRANCH   7   8
ENDBRANCH   5   7
ENDBRANCH   1   5
BRANCH   1  17
ATOM     17  C   UNL     1       7.121   4.606  17.116  0.00  0.00    +0.000 C 
BRANCH  17  20
ATOM     18  C   UNL     1       6.376   4.030  13.577  0.00  0.00    +0.000 A 
ATOM     19  C   UNL     1       6.137   3.687  14.884  0.00  0.00    +0.000 A 
ATOM     20  C   UNL     1       6.987   4.530  15.633  0.00  0.00    +0.000 A 
ATOM     21  N   UNL     1       7.717   5.319  14.833  0.00  0.00    +0.000 NA
ATOM     22  O   UNL     1       7.327   5.003  13.542  0.00  0.00    +0.000 OA
BRANCH  18  23
ATOM     23  C   UNL     1       5.813   3.608  12.281  0.00  0.00    +0.000 C 
BRANCH  23  24
ATOM     24  O   UNL     1       6.080   2.219  12.123  0.00  0.00    +0.000 OA
ATOM     25  H   UNL     1       5.336   1.849  11.619  0.00  0.00    +0.000 HD
ENDBRANCH  23  24
ENDBRANCH  18  23
ENDBRANCH  17  20
ENDBRANCH   1  17
TORSDOF 7
ENDMDL
MODEL 3
REMARK VINA RESULT:      -8.0      1.085      1.201
REMARK  Name = 
REMARK  7 active torsions:
REMARK  status: ('A' for Active; 'I' for Inactive)
REMARK    1  A    between atoms: O_1  and  C_2
REMARK    2  A    between atoms: C_2  and  C_3
REMARK    3  A    between atoms: C_5  and  C_6
REMARK    4  A    between atoms: C_6  and  C_7
REMARK    5  A    between atoms: C_7  and  N_8
REMARK    6  A    between atoms: N_8  and  C_9
REMARK    7  A    between atoms: C_9  and  C_10
REMARK                            x       y       z     vdW  Elec       q    Type
REMARK                         _______ _______ _______ _____ _____    ______ ____
ROOT
ATOM      1  C   UNL     1       6.280   4.855  17.797  0.00  0.00    +0.000 C 
ATOM      2  C   UNL     1       7.767   4.447  17.763  0.00  0.00    +0.000 C 
ATOM      3  O   UNL     1       7.943   4.867  19.145  0.00  0.00    +0.000 OA
ATOM      4  C   UNL     1       6.681   5.596  19.088  0.00  0.00    +0.000 C 
ENDROOT
BRANCH   1   5
ATOM      5  N   UNL     1       5.398   3.678  18.016  0.00  0.00    +0.000 NA
ATOM      6  H   UNL     1       5.436   3.304  18.963  0.00  0.00    +0.000 HD
BRANCH   5   7
ATOM      7  C   UNL     1       3.987   3.794  17.640  0.00  0.00    +0.000 C 
BRANCH   7   8
ATOM      8  C   UNL     1       3.229   4.423  18.783  0.00  0.00    +0.000 A 
ATOM      9  C   UNL     1       2.740   5.740  18.685  0.00  0.00    +0.000 A 
ATOM     10  C   UNL     1       1.988   6.318  19.722  0.00  0.00    +0.000 A 
ATOM     11  C   UNL     1       1.716   5.595  20.884  0.00  0.00    +0.000 A 
ATOM     12  C   UNL     1       2.214   4.312  20.971  0.00  0.00    +0.000 A 
ATOM     13  C   UNL     1       2.947   3.738  19.954  0.00  0.00    +0.000 A 
ATOM     14  O   UNL     1       3.317   2.461  20.251  0.00  0.00    +0.000 OA
ATOM     15  C   UNL     1       2.758   2.309  21.572  0.00  0.00    +0.000 C 
ATOM     16  O   UNL     1       2.037   3.470  22.027  0.00  0.00    +0.000 OA
ENDBRANCH   7   8
ENDBRANCH   5   7
ENDBRANCH   1   5
BRANCH   1  17
ATOM     17  C   UNL     1       5.825   5.714  16.619  0.00  0.00    +0.000 C 
BRANCH  17  20
ATOM     18  C   UNL     1       6.723   4.294  13.365  0.00  0.00    +0.000 A 
ATOM     19  C   UNL     1       5.819   4.352  14.396  0.00  0.00    +0.000 A 
ATOM     20  C   UNL     1       6.392   5.254  15.319  0.00  0.00    +0.000 A 
ATOM     21  N   UNL     1       7.582   5.698  14.890  0.00  0.00    +0.000 NA
ATOM     22  O   UNL     1       7.783   5.094  13.660  0.00  0.00    +0.000 OA
BRANCH  18  23
ATOM     23  C   UNL     1       6.754   3.609  12.060  0.00  0.00    +0.000 C 
BRANCH  23  24
ATOM     24  O   UNL     1       6.127   2.341  12.219  0.00  0.00    +0.000 OA
ATOM     25  H   UNL     1       6.095   1.934  11.337  0.00  0.00    +0.000 HD
ENDBRANCH  23  24
ENDBRANCH  18  23
ENDBRANCH  17  20
ENDBRANCH   1  17
TORSDOF 7
ENDMDL
MODEL 4
REMARK VINA RESULT:      -8.0      1.521      2.006
REMARK  Name = 
REMARK  7 active torsions:
REMARK  status: ('A' for Active; 'I' for Inactive)
REMARK    1  A    between atoms: O_1  and  C_2
REMARK    2  A    between atoms: C_2  and  C_3
REMARK    3  A    between atoms: C_5  and  C_6
REMARK    4  A    between atoms: C_6  and  C_7
REMARK    5  A    between atoms: C_7  and  N_8
REMARK    6  A    between atoms: N_8  and  C_9
REMARK    7  A    between atoms: C_9  and  C_10
REMARK                            x       y       z     vdW  Elec       q    Type
REMARK                         _______ _______ _______ _____ _____    ______ ____
ROOT
ATOM      1  C   UNL     1       6.668   5.855  17.712  0.00  0.00    +0.000 C 
ATOM      2  C   UNL     1       7.680   6.970  18.044  0.00  0.00    +0.000 C 
ATOM      3  O   UNL     1       6.852   7.959  17.371  0.00  0.00    +0.000 OA
ATOM      4  C   UNL     1       6.092   6.894  16.730  0.00  0.00    +0.000 C 
ENDROOT
BRANCH   1   5
ATOM      5  N   UNL     1       5.786   5.556  18.872  0.00  0.00    +0.000 NA
ATOM      6  H   UNL     1       4.938   6.120  18.902  0.00  0.00    +0.000 HD
BRANCH   5   7
ATOM      7  C   UNL     1       5.402   4.162  19.106  0.00  0.00    +0.000 C 
BRANCH   7   8
ATOM      8  C   UNL     1       3.916   4.022  18.883  0.00  0.00    +0.000 A 
ATOM      9  C   UNL     1       3.332   4.407  17.661  0.00  0.00    +0.000 A 
ATOM     10  C   UNL     1       1.959   4.233  17.423  0.00  0.00    +0.000 A 
ATOM     11  C   UNL     1       1.136   3.680  18.405  0.00  0.00    +0.000 A 
ATOM     12  C   UNL     1       1.720   3.321  19.601  0.00  0.00    +0.000 A 
ATOM     13  C   UNL     1       3.069   3.484  19.838  0.00  0.00    +0.000 A 
ATOM     14  O   UNL     1       3.425   3.043  21.077  0.00  0.00    +0.000 OA
ATOM     15  C   UNL     1       2.150   2.613  21.597  0.00  0.00    +0.000 C 
ATOM     16  O   UNL     1       1.068   2.764  20.659  0.00  0.00    +0.000 OA
ENDBRANCH   7   8
ENDBRANCH   5   7
ENDBRANCH   1   5
BRANCH   1  17
ATOM     17  C   UNL     1       7.280   4.594  17.105  0.00  0.00    +0.000 C 
BRANCH  17  20
ATOM     18  C   UNL     1       6.213   3.958  13.660  0.00  0.00    +0.000 A 
ATOM     19  C   UNL     1       6.055   3.678  14.995  0.00  0.00    +0.000 A 
ATOM     20  C   UNL     1       7.022   4.478  15.642  0.00  0.00    +0.000 A 
ATOM     21  N   UNL     1       7.743   5.180  14.757  0.00  0.00    +0.000 NA
ATOM     22  O   UNL     1       7.228   4.852  13.513  0.00  0.00    +0.000 OA
BRANCH  18  23
ATOM     23  C   UNL     1       5.518   3.537  12.430  0.00  0.00    +0.000 C 
BRANCH  23  24
ATOM     24  O   UNL     1       6.065   2.286  12.027  0.00  0.00    +0.000 OA
ATOM     25  H   UNL     1       6.011   1.698  12.799  0.00  0.00    +0.000 HD
ENDBRANCH  23  24
ENDBRANCH  18  23
ENDBRANCH  17  20
ENDBRANCH   1  17
TORSDOF 7
ENDMDL
MODEL 5
REMARK VINA RESULT:      -7.9      1.757      2.107
REMARK  Name = 
REMARK  7 active torsions:
REMARK  status: ('A' for Active; 'I' for Inactive)
REMARK    1  A    between atoms: O_1  and  C_2
REMARK    2  A    between atoms: C_2  and  C_3
REMARK    3  A    between atoms: C_5  and  C_6
REMARK    4  A    between atoms: C_6  and  C_7
REMARK    5  A    between atoms: C_7  and  N_8
REMARK    6  A    between atoms: N_8  and  C_9
REMARK    7  A    between atoms: C_9  and  C_10
REMARK                            x       y       z     vdW  Elec       q    Type
REMARK                         _______ _______ _______ _____ _____    ______ ____
ROOT
ATOM      1  C   UNL     1       6.724   5.822  17.848  0.00  0.00    +0.000 C 
ATOM      2  C   UNL     1       7.723   6.989  17.980  0.00  0.00    +0.000 C 
ATOM      3  O   UNL     1       6.758   7.916  17.408  0.00  0.00    +0.000 OA
ATOM      4  C   UNL     1       5.958   6.795  16.930  0.00  0.00    +0.000 C 
ENDROOT
BRANCH   1   5
ATOM      5  N   UNL     1       6.045   5.538  19.140  0.00  0.00    +0.000 NA
ATOM      6  H   UNL     1       6.526   5.922  19.952  0.00  0.00    +0.000 HD
BRANCH   5   7
ATOM      7  C   UNL     1       4.624   5.876  19.262  0.00  0.00    +0.000 C 
BRANCH   7   8
ATOM      8  C   UNL     1       3.803   4.731  18.721  0.00  0.00    +0.000 A 
ATOM      9  C   UNL     1       2.747   4.966  17.819  0.00  0.00    +0.000 A 
ATOM     10  C   UNL     1       2.010   3.904  17.269  0.00  0.00    +0.000 A 
ATOM     11  C   UNL     1       2.305   2.585  17.614  0.00  0.00    +0.000 A 
ATOM     12  C   UNL     1       3.333   2.372  18.508  0.00  0.00    +0.000 A 
ATOM     13  C   UNL     1       4.064   3.410  19.047  0.00  0.00    +0.000 A 
ATOM     14  O   UNL     1       5.037   2.964  19.889  0.00  0.00    +0.000 OA
ATOM     15  C   UNL     1       4.819   1.540  19.837  0.00  0.00    +0.000 C 
ATOM     16  O   UNL     1       3.755   1.154  18.946  0.00  0.00    +0.000 OA
ENDBRANCH   7   8
ENDBRANCH   5   7
ENDBRANCH   1   5
BRANCH   1  17
ATOM     17  C   UNL     1       7.293   4.562  17.198  0.00  0.00    +0.000 C 
BRANCH  17  20
ATOM     18  C   UNL     1       6.228   4.025  13.736  0.00  0.00    +0.000 A 
ATOM     19  C   UNL     1       6.103   3.672  15.057  0.00  0.00    +0.000 A 
ATOM     20  C   UNL     1       7.026   4.500  15.733  0.00  0.00    +0.000 A 
ATOM     21  N   UNL     1       7.689   5.289  14.877  0.00  0.00    +0.000 NA
ATOM     22  O   UNL     1       7.182   4.989  13.623  0.00  0.00    +0.000 OA
BRANCH  18  23
ATOM     23  C   UNL     1       5.546   3.620  12.493  0.00  0.00    +0.000 C 
BRANCH  23  24
ATOM     24  O   UNL     1       6.103   2.378  12.076  0.00  0.00    +0.000 OA
ATOM     25  H   UNL     1       6.589   2.021  12.839  0.00  0.00    +0.000 HD
ENDBRANCH  23  24
ENDBRANCH  18  23
ENDBRANCH  17  20
ENDBRANCH   1  17
TORSDOF 7
ENDMDL
MODEL 6
REMARK VINA RESULT:      -7.8      1.680      2.131
REMARK  Name = 
REMARK  7 active torsions:
REMARK  status: ('A' for Active; 'I' for Inactive)
REMARK    1  A    between atoms: O_1  and  C_2
REMARK    2  A    between atoms: C_2  and  C_3
REMARK    3  A    between atoms: C_5  and  C_6
REMARK    4  A    between atoms: C_6  and  C_7
REMARK    5  A    between atoms: C_7  and  N_8
REMARK    6  A    between atoms: N_8  and  C_9
REMARK    7  A    between atoms: C_9  and  C_10
REMARK                            x       y       z     vdW  Elec       q    Type
REMARK                         _______ _______ _______ _____ _____    ______ ____
ROOT
ATOM      1  C   UNL     1       6.129   4.895  17.509  0.00  0.00    +0.000 C 
ATOM      2  C   UNL     1       7.620   4.521  17.632  0.00  0.00    +0.000 C 
ATOM      3  O   UNL     1       7.636   4.935  19.027  0.00  0.00    +0.000 OA
ATOM      4  C   UNL     1       6.371   5.635  18.839  0.00  0.00    +0.000 C 
ENDROOT
BRANCH   1   5
ATOM      5  N   UNL     1       5.256   3.696  17.626  0.00  0.00    +0.000 NA
ATOM      6  H   UNL     1       5.308   3.235  18.533  0.00  0.00    +0.000 HD
BRANCH   5   7
ATOM      7  C   UNL     1       3.839   3.838  17.279  0.00  0.00    +0.000 C 
BRANCH   7   8
ATOM      8  C   UNL     1       3.026   3.849  18.551  0.00  0.00    +0.000 A 
ATOM      9  C   UNL     1       2.667   2.645  19.186  0.00  0.00    +0.000 A 
ATOM     10  C   UNL     1       1.955   2.644  20.397  0.00  0.00    +0.000 A 
ATOM     11  C   UNL     1       1.577   3.847  20.996  0.00  0.00    +0.000 A 
ATOM     12  C   UNL     1       1.924   5.017  20.354  0.00  0.00    +0.000 A 
ATOM     13  C   UNL     1       2.628   5.024  19.168  0.00  0.00    +0.000 A 
ATOM     14  O   UNL     1       2.874   6.289  18.730  0.00  0.00    +0.000 OA
ATOM     15  C   UNL     1       2.227   7.071  19.754  0.00  0.00    +0.000 C 
ATOM     16  O   UNL     1       1.642   6.272  20.801  0.00  0.00    +0.000 OA
ENDBRANCH   7   8
ENDBRANCH   5   7
ENDBRANCH   1   5
BRANCH   1  17
ATOM     17  C   UNL     1       5.782   5.752  16.293  0.00  0.00    +0.000 C 
BRANCH  17  20
ATOM     18  C   UNL     1       6.169   3.885  13.167  0.00  0.00    +0.000 A 
ATOM     19  C   UNL     1       5.412   4.132  14.285  0.00  0.00    +0.000 A 
ATOM     20  C   UNL     1       6.149   5.098  15.005  0.00  0.00    +0.000 A 
ATOM     21  N   UNL     1       7.294   5.402  14.379  0.00  0.00    +0.000 NA
ATOM     22  O   UNL     1       7.300   4.639  13.223  0.00  0.00    +0.000 OA
BRANCH  18  23
ATOM     23  C   UNL     1       5.992   3.044  11.969  0.00  0.00    +0.000 C 
BRANCH  23  24
ATOM     24  O   UNL     1       7.198   2.316  11.766  0.00  0.00    +0.000 OA
ATOM     25  H   UNL     1       7.434   2.424  10.829  0.00  0.00    +0.000 HD
ENDBRANCH  23  24
ENDBRANCH  18  23
ENDBRANCH  17  20
ENDBRANCH   1  17
TORSDOF 7
ENDMDL
MODEL 7
REMARK VINA RESULT:      -7.8      1.446      1.831
REMARK  Name = 
REMARK  7 active torsions:
REMARK  status: ('A' for Active; 'I' for Inactive)
REMARK    1  A    between atoms: O_1  and  C_2
REMARK    2  A    between atoms: C_2  and  C_3
REMARK    3  A    between atoms: C_5  and  C_6
REMARK    4  A    between atoms: C_6  and  C_7
REMARK    5  A    between atoms: C_7  and  N_8
REMARK    6  A    between atoms: N_8  and  C_9
REMARK    7  A    between atoms: C_9  and  C_10
REMARK                            x       y       z     vdW  Elec       q    Type
REMARK                         _______ _______ _______ _____ _____    ______ ____
ROOT
ATOM      1  C   UNL     1       6.066   5.769  17.724  0.00  0.00    +0.000 C 
ATOM      2  C   UNL     1       6.666   4.349  17.677  0.00  0.00    +0.000 C 
ATOM      3  O   UNL     1       7.800   4.773  18.485  0.00  0.00    +0.000 OA
ATOM      4  C   UNL     1       7.466   6.169  18.231  0.00  0.00    +0.000 C 
ENDROOT
BRANCH   1   5
ATOM      5  N   UNL     1       4.992   5.873  18.747  0.00  0.00    +0.000 NA
ATOM      6  H   UNL     1       5.114   6.649  19.396  0.00  0.00    +0.000 HD
BRANCH   5   7
ATOM      7  C   UNL     1       3.601   5.890  18.288  0.00  0.00    +0.000 C 
BRANCH   7   8
ATOM      8  C   UNL     1       3.024   4.503  18.432  0.00  0.00    +0.000 A 
ATOM      9  C   UNL     1       2.914   3.651  17.317  0.00  0.00    +0.000 A 
ATOM     10  C   UNL     1       2.427   2.339  17.448  0.00  0.00    +0.000 A 
ATOM     11  C   UNL     1       2.031   1.853  18.694  0.00  0.00    +0.000 A 
ATOM     12  C   UNL     1       2.132   2.705  19.774  0.00  0.00    +0.000 A 
ATOM     13  C   UNL     1       2.615   3.991  19.653  0.00  0.00    +0.000 A 
ATOM     14  O   UNL     1       2.643   4.639  20.850  0.00  0.00    +0.000 OA
ATOM     15  C   UNL     1       2.102   3.630  21.727  0.00  0.00    +0.000 C 
ATOM     16  O   UNL     1       1.798   2.392  21.056  0.00  0.00    +0.000 OA
ENDBRANCH   7   8
ENDBRANCH   5   7
ENDBRANCH   1   5
BRANCH   1  17
ATOM     17  C   UNL     1       5.636   6.327  16.368  0.00  0.00    +0.000 C 
BRANCH  17  20
ATOM     18  C   UNL     1       6.209   4.066  13.546  0.00  0.00    +0.000 A 
ATOM     19  C   UNL     1       5.338   4.540  14.495  0.00  0.00    +0.000 A 
ATOM     20  C   UNL     1       6.092   5.482  15.229  0.00  0.00    +0.000 A 
ATOM     21  N   UNL     1       7.349   5.559  14.772  0.00  0.00    +0.000 NA
ATOM     22  O   UNL     1       7.417   4.669  13.713  0.00  0.00    +0.000 OA
BRANCH  18  23
ATOM     23  C   UNL     1       6.092   3.118  12.423  0.00  0.00    +0.000 C 
BRANCH  23  24
ATOM     24  O   UNL     1       4.791   3.264  11.863  0.00  0.00    +0.000 OA
ATOM     25  H   UNL     1       4.411   4.071  12.250  0.00  0.00    +0.000 HD
ENDBRANCH  23  24
ENDBRANCH  18  23
ENDBRANCH  17  20
ENDBRANCH   1  17
TORSDOF 7
ENDMDL
MODEL 8
REMARK VINA RESULT:      -7.7      3.738      5.735
REMARK  Name = 
REMARK  7 active torsions:
REMARK  status: ('A' for Active; 'I' for Inactive)
REMARK    1  A    between atoms: O_1  and  C_2
REMARK    2  A    between atoms: C_2  and  C_3
REMARK    3  A    between atoms: C_5  and  C_6
REMARK    4  A    between atoms: C_6  and  C_7
REMARK    5  A    between atoms: C_7  and  N_8
REMARK    6  A    between atoms: N_8  and  C_9
REMARK    7  A    between atoms: C_9  and  C_10
REMARK                            x       y       z     vdW  Elec       q    Type
REMARK                         _______ _______ _______ _____ _____    ______ ____
ROOT
ATOM      1  C   UNL     1       2.555   3.675  20.034  0.00  0.00    +0.000 C 
ATOM      2  C   UNL     1       1.027   3.499  20.150  0.00  0.00    +0.000 C 
ATOM      3  O   UNL     1       1.169   2.902  21.469  0.00  0.00    +0.000 OA
ATOM      4  C   UNL     1       2.594   2.708  21.234  0.00  0.00    +0.000 C 
ENDROOT
BRANCH   1   5
ATOM      5  N   UNL     1       2.969   5.066  20.356  0.00  0.00    +0.000 NA
ATOM      6  H   UNL     1       3.548   5.501  19.639  0.00  0.00    +0.000 HD
BRANCH   5   7
ATOM      7  C   UNL     1       1.928   6.027  20.731  0.00  0.00    +0.000 C 
BRANCH   7   8
ATOM      8  C   UNL     1       1.986   7.201  19.784  0.00  0.00    +0.000 A 
ATOM      9  C   UNL     1       2.659   7.100  18.552  0.00  0.00    +0.000 A 
ATOM     10  C   UNL     1       2.675   8.168  17.640  0.00  0.00    +0.000 A 
ATOM     11  C   UNL     1       2.025   9.365  17.943  0.00  0.00    +0.000 A 
ATOM     12  C   UNL     1       1.381   9.454  19.159  0.00  0.00    +0.000 A 
ATOM     13  C   UNL     1       1.358   8.406  20.056  0.00  0.00    +0.000 A 
ATOM     14  O   UNL     1       0.649   8.712  21.178  0.00  0.00    +0.000 OA
ATOM     15  C   UNL     1       0.255  10.070  20.897  0.00  0.00    +0.000 C 
ATOM     16  O   UNL     1       0.696  10.541  19.609  0.00  0.00    +0.000 OA
ENDBRANCH   7   8
ENDBRANCH   5   7
ENDBRANCH   1   5
BRANCH   1  17
ATOM     17  C   UNL     1       3.159   3.175  18.723  0.00  0.00    +0.000 C 
BRANCH  17  20
ATOM     18  C   UNL     1       6.197   4.828  17.517  0.00  0.00    +0.000 A 
ATOM     19  C   UNL     1       4.908   4.435  17.257  0.00  0.00    +0.000 A 
ATOM     20  C   UNL     1       4.491   3.781  18.437  0.00  0.00    +0.000 A 
ATOM     21  N   UNL     1       5.471   3.754  19.349  0.00  0.00    +0.000 NA
ATOM     22  O   UNL     1       6.541   4.416  18.768  0.00  0.00    +0.000 OA
BRANCH  18  23
ATOM     23  C   UNL     1       7.210   5.596  16.772  0.00  0.00    +0.000 C 
BRANCH  23  24
ATOM     24  O   UNL     1       7.414   4.949  15.521  0.00  0.00    +0.000 OA
ATOM     25  H   UNL     1       7.041   5.534  14.841  0.00  0.00    +0.000 HD
ENDBRANCH  23  24
ENDBRANCH  18  23
ENDBRANCH  17  20
ENDBRANCH   1  17
TORSDOF 7
ENDMDL
MODEL 9
REMARK VINA RESULT:      -7.6      1.282      1.654
REMARK  Name = 
REMARK  7 active torsions:
REMARK  status: ('A' for Active; 'I' for Inactive)
REMARK    1  A    between atoms: O_1  and  C_2
REMARK    2  A    between atoms: C_2  and  C_3
REMARK    3  A    between atoms: C_5  and  C_6
REMARK    4  A    between atoms: C_6  and  C_7
REMARK    5  A    between atoms: C_7  and  N_8
REMARK    6  A    between atoms: N_8  and  C_9
REMARK    7  A    between atoms: C_9  and  C_10
REMARK                            x       y       z     vdW  Elec       q    Type
REMARK                         _______ _______ _______ _____ _____    ______ ____
ROOT
ATOM      1  C   UNL     1       6.734   5.737  18.052  0.00  0.00    +0.000 C 
ATOM      2  C   UNL     1       7.654   4.509  17.892  0.00  0.00    +0.000 C 
ATOM      3  O   UNL     1       8.471   4.941  19.017  0.00  0.00    +0.000 OA
ATOM      4  C   UNL     1       7.869   6.267  18.951  0.00  0.00    +0.000 C 
ENDROOT
BRANCH   1   5
ATOM      5  N   UNL     1       5.486   5.390  18.784  0.00  0.00    +0.000 NA
ATOM      6  H   UNL     1       4.662   5.888  18.452  0.00  0.00    +0.000 HD
BRANCH   5   7
ATOM      7  C   UNL     1       5.131   3.974  18.909  0.00  0.00    +0.000 C 
BRANCH   7   8
ATOM      8  C   UNL     1       3.630   3.841  18.830  0.00  0.00    +0.000 A 
ATOM      9  C   UNL     1       2.933   4.218  17.667  0.00  0.00    +0.000 A 
ATOM     10  C   UNL     1       1.542   4.049  17.563  0.00  0.00    +0.000 A 
ATOM     11  C   UNL     1       0.815   3.508  18.624  0.00  0.00    +0.000 A 
ATOM     12  C   UNL     1       1.509   3.156  19.762  0.00  0.00    +0.000 A 
ATOM     13  C   UNL     1       2.875   3.314  19.867  0.00  0.00    +0.000 A 
ATOM     14  O   UNL     1       3.347   2.882  21.069  0.00  0.00    +0.000 OA
ATOM     15  C   UNL     1       2.126   2.462  21.713  0.00  0.00    +0.000 C 
ATOM     16  O   UNL     1       0.959   2.611  20.881  0.00  0.00    +0.000 OA
ENDBRANCH   7   8
ENDBRANCH   5   7
ENDBRANCH   1   5
BRANCH   1  17
ATOM     17  C   UNL     1       6.459   6.504  16.760  0.00  0.00    +0.000 C 
BRANCH  17  20
ATOM     18  C   UNL     1       6.009   4.242  13.915  0.00  0.00    +0.000 A 
ATOM     19  C   UNL     1       5.473   4.804  15.047  0.00  0.00    +0.000 A 
ATOM     20  C   UNL     1       6.501   5.630  15.554  0.00  0.00    +0.000 A 
ATOM     21  N   UNL     1       7.602   5.556  14.794  0.00  0.00    +0.000 NA
ATOM     22  O   UNL     1       7.286   4.685  13.763  0.00  0.00    +0.000 OA
BRANCH  18  23
ATOM     23  C   UNL     1       5.492   3.338  12.871  0.00  0.00    +0.000 C 
BRANCH  23  24
ATOM     24  O   UNL     1       6.608   2.810  12.162  0.00  0.00    +0.000 OA
ATOM     25  H   UNL     1       6.819   1.955  12.573  0.00  0.00    +0.000 HD
ENDBRANCH  23  24
ENDBRANCH  18  23
ENDBRANCH  17  20
ENDBRANCH   1  17
TORSDOF 7
ENDMDL
