MODEL 1
REMARK VINA RESULT:      -7.7      0.000      0.000
REMARK  Name = 
REMARK  7 active torsions:
REMARK  status: ('A' for Active; 'I' for Inactive)
REMARK    1  A    between atoms: C_2  and  O_3
REMARK    2  A    between atoms: C_2  and  C_4
REMARK    3  A    between atoms: C_7  and  C_8
REMARK    4  A    between atoms: C_8  and  N_9
REMARK    5  A    between atoms: C_22  and  C_23
REMARK    6  A    between atoms: C_23  and  C_24
REMARK    7  A    between atoms: C_27  and  O_28
REMARK                            x       y       z     vdW  Elec       q    Type
REMARK                         _______ _______ _______ _____ _____    ______ ____
ROOT
ATOM      1  N   UNL     1      -1.422  12.324  21.429  0.00  0.00    +0.000 N 
ATOM      2  C   UNL     1      -0.430  11.399  21.776  0.00  0.00    +0.000 C 
ATOM      3  O   UNL     1      -0.082  11.204  22.940  0.00  0.00    +0.000 OA
ATOM      4  C   UNL     1       0.251  10.603  20.707  0.00  0.00    +0.000 A 
ATOM      5  C   UNL     1       0.565   9.271  21.019  0.00  0.00    +0.000 A 
ATOM      6  C   UNL     1       1.272   8.475  20.116  0.00  0.00    +0.000 A 
ATOM      7  C   UNL     1       1.697   9.021  18.910  0.00  0.00    +0.000 A 
ATOM      8 CL   UNL     1       2.530   8.023  17.774  0.00  0.00    +0.000 Cl
ATOM      9  C   UNL     1       1.446  10.360  18.602  0.00  0.00    +0.000 A 
ATOM     10  C   UNL     1       0.704  11.144  19.483  0.00  0.00    +0.000 A 
ATOM     11  N   UNL     1       0.465  12.466  19.070  0.00  0.00    +0.000 N 
ATOM     12  C   UNL     1      -0.662  13.204  19.338  0.00  0.00    +0.000 C 
ATOM     13  O   UNL     1      -0.719  14.386  19.005  0.00  0.00    +0.000 OA
ATOM     14  C   UNL     1      -1.817  12.453  20.019  0.00  0.00    +0.000 C 
ATOM     15  H   UNL     1       1.086  12.902  18.395  0.00  0.00    +0.000 HD
ENDROOT
BRANCH   1  16
ATOM     16  C   UNL     1      -1.716  13.398  22.401  0.00  0.00    +0.000 C 
BRANCH  16  20
ATOM     17  C   UNL     1      -5.693  13.034  24.037  0.00  0.00    +0.000 A 
ATOM     18  C   UNL     1      -4.727  12.086  24.386  0.00  0.00    +0.000 A 
ATOM     19  C   UNL     1      -3.414  12.229  23.923  0.00  0.00    +0.000 A 
ATOM     20  C   UNL     1      -3.065  13.303  23.091  0.00  0.00    +0.000 A 
ATOM     21  C   UNL     1      -3.995  14.346  22.933  0.00  0.00    +0.000 A 
ATOM     22  C   UNL     1      -5.307  14.210  23.396  0.00  0.00    +0.000 A 
BRANCH  17  24
ATOM     23  O   UNL     1      -7.909  13.615  24.711  0.00  0.00    +0.000 OA
ATOM     24  C   UNL     1      -7.137  12.786  24.265  0.00  0.00    +0.000 C 
BRANCH  24  25
ATOM     25  O   UNL     1      -7.524  11.568  23.819  0.00  0.00    +0.000 OA
ATOM     26  H   UNL     1      -7.058  11.286  23.010  0.00  0.00    +0.000 HD
ENDBRANCH  24  25
ENDBRANCH  17  24
ENDBRANCH  16  20
ENDBRANCH   1  16
BRANCH  14  27
ATOM     27  C   UNL     1      -3.147  13.117  19.617  0.00  0.00    +0.000 C 
BRANCH  27  28
ATOM     28  C   UNL     1      -4.374  12.243  19.457  0.00  0.00    +0.000 A 
ATOM     29  C   UNL     1      -5.439  12.213  20.364  0.00  0.00    +0.000 A 
ATOM     30  C   UNL     1      -6.524  11.352  20.169  0.00  0.00    +0.000 A 
ATOM     31  C   UNL     1      -6.540  10.505  19.066  0.00  0.00    +0.000 A 
ATOM     32  C   UNL     1      -5.500  10.521  18.149  0.00  0.00    +0.000 A 
ATOM     33  C   UNL     1      -4.430  11.396  18.336  0.00  0.00    +0.000 A 
BRANCH  31  34
ATOM     34  O   UNL     1      -7.557   9.626  18.851  0.00  0.00    +0.000 OA
ATOM     35  H   UNL     1      -7.302   8.750  19.183  0.00  0.00    +0.000 HD
ENDBRANCH  31  34
ENDBRANCH  27  28
ENDBRANCH  14  27
TORSDOF 7
ENDMDL
MODEL 2
REMARK VINA RESULT:      -7.5      2.388      3.571
REMARK  Name = 
REMARK  7 active torsions:
REMARK  status: ('A' for Active; 'I' for Inactive)
REMARK    1  A    between atoms: C_2  and  O_3
REMARK    2  A    between atoms: C_2  and  C_4
REMARK    3  A    between atoms: C_7  and  C_8
REMARK    4  A    between atoms: C_8  and  N_9
REMARK    5  A    between atoms: C_22  and  C_23
REMARK    6  A    between atoms: C_23  and  C_24
REMARK    7  A    between atoms: C_27  and  O_28
REMARK                            x       y       z     vdW  Elec       q    Type
REMARK                         _______ _______ _______ _____ _____    ______ ____
ROOT
ATOM      1  N   UNL     1       0.876  10.030  20.305  0.00  0.00    +0.000 N 
ATOM      2  C   UNL     1       1.342   8.874  20.942  0.00  0.00    +0.000 C 
ATOM      3  O   UNL     1       1.556   8.824  22.152  0.00  0.00    +0.000 OA
ATOM      4  C   UNL     1       1.603   7.637  20.141  0.00  0.00    +0.000 A 
ATOM      5  C   UNL     1       1.281   6.414  20.751  0.00  0.00    +0.000 A 
ATOM      6  C   UNL     1       1.563   5.204  20.114  0.00  0.00    +0.000 A 
ATOM      7  C   UNL     1       2.200   5.214  18.877  0.00  0.00    +0.000 A 
ATOM      8 CL   UNL     1       2.505   3.720  18.069  0.00  0.00    +0.000 Cl
ATOM      9  C   UNL     1       2.581   6.416  18.277  0.00  0.00    +0.000 A 
ATOM     10  C   UNL     1       2.262   7.626  18.891  0.00  0.00    +0.000 A 
ATOM     11  N   UNL     1       2.647   8.784  18.193  0.00  0.00    +0.000 N 
ATOM     12  C   UNL     1       1.969   9.978  18.177  0.00  0.00    +0.000 C 
ATOM     13  O   UNL     1       2.453  10.954  17.606  0.00  0.00    +0.000 OA
ATOM     14  C   UNL     1       0.594   9.987  18.863  0.00  0.00    +0.000 C 
ATOM     15  H   UNL     1       3.404   8.735  17.518  0.00  0.00    +0.000 HD
ENDROOT
BRANCH   1  16
ATOM     16  C   UNL     1       1.087  11.318  20.998  0.00  0.00    +0.000 C 
BRANCH  16  20
ATOM     17  C   UNL     1      -2.577  12.942  22.596  0.00  0.00    +0.000 A 
ATOM     18  C   UNL     1      -2.139  11.692  23.041  0.00  0.00    +0.000 A 
ATOM     19  C   UNL     1      -0.918  11.183  22.589  0.00  0.00    +0.000 A 
ATOM     20  C   UNL     1      -0.140  11.906  21.672  0.00  0.00    +0.000 A 
ATOM     21  C   UNL     1      -0.497  13.240  21.410  0.00  0.00    +0.000 A 
ATOM     22  C   UNL     1      -1.715  13.756  21.862  0.00  0.00    +0.000 A 
BRANCH  17  24
ATOM     23  O   UNL     1      -4.282  14.556  23.037  0.00  0.00    +0.000 OA
ATOM     24  C   UNL     1      -3.970  13.399  22.822  0.00  0.00    +0.000 C 
BRANCH  24  25
ATOM     25  O   UNL     1      -4.869  12.402  22.654  0.00  0.00    +0.000 OA
ATOM     26  H   UNL     1      -5.185  12.020  23.494  0.00  0.00    +0.000 HD
ENDBRANCH  24  25
ENDBRANCH  17  24
ENDBRANCH  16  20
ENDBRANCH   1  16
BRANCH  14  27
ATOM     27  C   UNL     1      -0.291  11.050  18.187  0.00  0.00    +0.000 C 
BRANCH  27  28
ATOM     28  C   UNL     1      -1.794  10.853  18.195  0.00  0.00    +0.000 A 
ATOM     29  C   UNL     1      -2.446   9.776  17.586  0.00  0.00    +0.000 A 
ATOM     30  C   UNL     1      -3.842   9.679  17.602  0.00  0.00    +0.000 A 
ATOM     31  C   UNL     1      -4.592  10.674  18.218  0.00  0.00    +0.000 A 
ATOM     32  C   UNL     1      -3.969  11.748  18.834  0.00  0.00    +0.000 A 
ATOM     33  C   UNL     1      -2.577  11.829  18.835  0.00  0.00    +0.000 A 
BRANCH  31  34
ATOM     34  O   UNL     1      -5.954  10.642  18.231  0.00  0.00    +0.000 OA
ATOM     35  H   UNL     1      -6.260   9.797  17.866  0.00  0.00    +0.000 HD
ENDBRANCH  31  34
ENDBRANCH  27  28
ENDBRANCH  14  27
TORSDOF 7
ENDMDL
MODEL 3
REMARK VINA RESULT:      -7.4      2.165      3.005
REMARK  Name = 
REMARK  7 active torsions:
REMARK  status: ('A' for Active; 'I' for Inactive)
REMARK    1  A    between atoms: C_2  and  O_3
REMARK    2  A    between atoms: C_2  and  C_4
REMARK    3  A    between atoms: C_7  and  C_8
REMARK    4  A    between atoms: C_8  and  N_9
REMARK    5  A    between atoms: C_22  and  C_23
REMARK    6  A    between atoms: C_23  and  C_24
REMARK    7  A    between atoms: C_27  and  O_28
REMARK                            x       y       z     vdW  Elec       q    Type
REMARK                         _______ _______ _______ _____ _____    ______ ____
ROOT
ATOM      1  N   UNL     1       0.124  10.652  20.901  0.00  0.00    +0.000 N 
ATOM      2  C   UNL     1       0.962   9.634  21.372  0.00  0.00    +0.000 C 
ATOM      3  O   UNL     1       1.368   9.592  22.532  0.00  0.00    +0.000 OA
ATOM      4  C   UNL     1       1.399   8.542  20.445  0.00  0.00    +0.000 A 
ATOM      5  C   UNL     1       1.497   7.254  20.994  0.00  0.00    +0.000 A 
ATOM      6  C   UNL     1       1.973   6.187  20.229  0.00  0.00    +0.000 A 
ATOM      7  C   UNL     1       2.384   6.414  18.921  0.00  0.00    +0.000 A 
ATOM      8 CL   UNL     1       2.928   5.087  17.961  0.00  0.00    +0.000 Cl
ATOM      9  C   UNL     1       2.350   7.697  18.371  0.00  0.00    +0.000 A 
ATOM     10  C   UNL     1       1.835   8.756  19.119  0.00  0.00    +0.000 A 
ATOM     11  N   UNL     1       1.800  10.001  18.468  0.00  0.00    +0.000 N 
ATOM     12  C   UNL     1       0.848  10.975  18.644  0.00  0.00    +0.000 C 
ATOM     13  O   UNL     1       0.974  12.067  18.090  0.00  0.00    +0.000 OA
ATOM     14  C   UNL     1      -0.359  10.595  19.514  0.00  0.00    +0.000 C 
ATOM     15  H   UNL     1       2.429  10.180  17.692  0.00  0.00    +0.000 HD
ENDROOT
BRANCH   1  16
ATOM     16  C   UNL     1       0.108  11.920  21.658  0.00  0.00    +0.000 C 
BRANCH  16  20
ATOM     17  C   UNL     1      -3.856  12.881  23.066  0.00  0.00    +0.000 A 
ATOM     18  C   UNL     1      -3.151  11.842  23.681  0.00  0.00    +0.000 A 
ATOM     19  C   UNL     1      -1.838  11.565  23.286  0.00  0.00    +0.000 A 
ATOM     20  C   UNL     1      -1.231  12.305  22.260  0.00  0.00    +0.000 A 
ATOM     21  C   UNL     1      -1.879  13.469  21.813  0.00  0.00    +0.000 A 
ATOM     22  C   UNL     1      -3.190  13.754  22.206  0.00  0.00    +0.000 A 
BRANCH  17  24
ATOM     23  O   UNL     1      -6.155  12.424  22.608  0.00  0.00    +0.000 OA
ATOM     24  C   UNL     1      -5.319  13.037  23.247  0.00  0.00    +0.000 C 
BRANCH  24  25
ATOM     25  O   UNL     1      -5.622  13.857  24.281  0.00  0.00    +0.000 OA
ATOM     26  H   UNL     1      -5.400  14.791  24.111  0.00  0.00    +0.000 HD
ENDBRANCH  24  25
ENDBRANCH  17  24
ENDBRANCH  16  20
ENDBRANCH   1  16
BRANCH  14  27
ATOM     27  C   UNL     1      -1.580  11.415  19.057  0.00  0.00    +0.000 C 
BRANCH  27  28
ATOM     28  C   UNL     1      -2.323  10.976  17.812  0.00  0.00    +0.000 A 
ATOM     29  C   UNL     1      -1.857  10.001  16.923  0.00  0.00    +0.000 A 
ATOM     30  C   UNL     1      -2.582   9.672  15.772  0.00  0.00    +0.000 A 
ATOM     31  C   UNL     1      -3.773  10.334  15.499  0.00  0.00    +0.000 A 
ATOM     32  C   UNL     1      -4.260  11.300  16.367  0.00  0.00    +0.000 A 
ATOM     33  C   UNL     1      -3.545  11.608  17.524  0.00  0.00    +0.000 A 
BRANCH  31  34
ATOM     34  O   UNL     1      -4.497  10.074  14.375  0.00  0.00    +0.000 OA
ATOM     35  H   UNL     1      -3.977   9.511  13.780  0.00  0.00    +0.000 HD
ENDBRANCH  31  34
ENDBRANCH  27  28
ENDBRANCH  14  27
TORSDOF 7
ENDMDL
MODEL 4
REMARK VINA RESULT:      -7.3      2.445      3.714
REMARK  Name = 
REMARK  7 active torsions:
REMARK  status: ('A' for Active; 'I' for Inactive)
REMARK    1  A    between atoms: C_2  and  O_3
REMARK    2  A    between atoms: C_2  and  C_4
REMARK    3  A    between atoms: C_7  and  C_8
REMARK    4  A    between atoms: C_8  and  N_9
REMARK    5  A    between atoms: C_22  and  C_23
REMARK    6  A    between atoms: C_23  and  C_24
REMARK    7  A    between atoms: C_27  and  O_28
REMARK                            x       y       z     vdW  Elec       q    Type
REMARK                         _______ _______ _______ _____ _____    ______ ____
ROOT
ATOM      1  N   UNL     1       0.887  10.075  20.289  0.00  0.00    +0.000 N 
ATOM      2  C   UNL     1       1.364   8.919  20.919  0.00  0.00    +0.000 C 
ATOM      3  O   UNL     1       1.581   8.863  22.128  0.00  0.00    +0.000 OA
ATOM      4  C   UNL     1       1.634   7.689  20.110  0.00  0.00    +0.000 A 
ATOM      5  C   UNL     1       1.323   6.459  20.713  0.00  0.00    +0.000 A 
ATOM      6  C   UNL     1       1.614   5.255  20.068  0.00  0.00    +0.000 A 
ATOM      7  C   UNL     1       2.247   5.278  18.831  0.00  0.00    +0.000 A 
ATOM      8 CL   UNL     1       2.563   3.791  18.014  0.00  0.00    +0.000 Cl
ATOM      9  C   UNL     1       2.617   6.486  18.237  0.00  0.00    +0.000 A 
ATOM     10  C   UNL     1       2.290   7.690  18.859  0.00  0.00    +0.000 A 
ATOM     11  N   UNL     1       2.664   8.855  18.167  0.00  0.00    +0.000 N 
ATOM     12  C   UNL     1       1.976  10.044  18.159  0.00  0.00    +0.000 C 
ATOM     13  O   UNL     1       2.451  11.027  17.592  0.00  0.00    +0.000 OA
ATOM     14  C   UNL     1       0.602  10.037  18.847  0.00  0.00    +0.000 C 
ATOM     15  H   UNL     1       3.419   8.816  17.490  0.00  0.00    +0.000 HD
ENDROOT
BRANCH   1  16
ATOM     16  C   UNL     1       1.089  11.360  20.989  0.00  0.00    +0.000 C 
BRANCH  16  20
ATOM     17  C   UNL     1      -2.260  13.068  23.107  0.00  0.00    +0.000 A 
ATOM     18  C   UNL     1      -1.544  13.869  22.212  0.00  0.00    +0.000 A 
ATOM     19  C   UNL     1      -0.502  13.312  21.463  0.00  0.00    +0.000 A 
ATOM     20  C   UNL     1      -0.153  11.962  21.621  0.00  0.00    +0.000 A 
ATOM     21  C   UNL     1      -1.018  11.138  22.361  0.00  0.00    +0.000 A 
ATOM     22  C   UNL     1      -2.064  11.688  23.109  0.00  0.00    +0.000 A 
BRANCH  17  24
ATOM     23  O   UNL     1      -3.207  14.844  24.392  0.00  0.00    +0.000 OA
ATOM     24  C   UNL     1      -3.176  13.660  24.111  0.00  0.00    +0.000 C 
BRANCH  24  25
ATOM     25  O   UNL     1      -4.050  12.752  24.604  0.00  0.00    +0.000 OA
ATOM     26  H   UNL     1      -4.798  12.570  24.004  0.00  0.00    +0.000 HD
ENDBRANCH  24  25
ENDBRANCH  17  24
ENDBRANCH  16  20
ENDBRANCH   1  16
BRANCH  14  27
ATOM     27  C   UNL     1      -0.293  11.097  18.180  0.00  0.00    +0.000 C 
BRANCH  27  28
ATOM     28  C   UNL     1      -1.794  10.889  18.190  0.00  0.00    +0.000 A 
ATOM     29  C   UNL     1      -2.439   9.806  17.583  0.00  0.00    +0.000 A 
ATOM     30  C   UNL     1      -3.834   9.699  17.602  0.00  0.00    +0.000 A 
ATOM     31  C   UNL     1      -4.590  10.688  18.220  0.00  0.00    +0.000 A 
ATOM     32  C   UNL     1      -3.974  11.767  18.835  0.00  0.00    +0.000 A 
ATOM     33  C   UNL     1      -2.583  11.859  18.832  0.00  0.00    +0.000 A 
BRANCH  31  34
ATOM     34  O   UNL     1      -5.952  10.645  18.236  0.00  0.00    +0.000 OA
ATOM     35  H   UNL     1      -6.272  10.913  19.112  0.00  0.00    +0.000 HD
ENDBRANCH  31  34
ENDBRANCH  27  28
ENDBRANCH  14  27
TORSDOF 7
ENDMDL
MODEL 5
REMARK VINA RESULT:      -7.3      1.854      2.424
REMARK  Name = 
REMARK  7 active torsions:
REMARK  status: ('A' for Active; 'I' for Inactive)
REMARK    1  A    between atoms: C_2  and  O_3
REMARK    2  A    between atoms: C_2  and  C_4
REMARK    3  A    between atoms: C_7  and  C_8
REMARK    4  A    between atoms: C_8  and  N_9
REMARK    5  A    between atoms: C_22  and  C_23
REMARK    6  A    between atoms: C_23  and  C_24
REMARK    7  A    between atoms: C_27  and  O_28
REMARK                            x       y       z     vdW  Elec       q    Type
REMARK                         _______ _______ _______ _____ _____    ______ ____
ROOT
ATOM      1  N   UNL     1      -0.873  11.441  21.106  0.00  0.00    +0.000 N 
ATOM      2  C   UNL     1      -0.024  10.545  21.766  0.00  0.00    +0.000 C 
ATOM      3  O   UNL     1       0.201  10.610  22.974  0.00  0.00    +0.000 OA
ATOM      4  C   UNL     1       0.653   9.456  20.994  0.00  0.00    +0.000 A 
ATOM      5  C   UNL     1       0.788   8.217  21.641  0.00  0.00    +0.000 A 
ATOM      6  C   UNL     1       1.475   7.165  21.032  0.00  0.00    +0.000 A 
ATOM      7  C   UNL     1       2.059   7.361  19.785  0.00  0.00    +0.000 A 
ATOM      8 CL   UNL     1       2.868   6.047  19.012  0.00  0.00    +0.000 Cl
ATOM      9  C   UNL     1       1.987   8.601  19.147  0.00  0.00    +0.000 A 
ATOM     10  C   UNL     1       1.265   9.640  19.734  0.00  0.00    +0.000 A 
ATOM     11  N   UNL     1       1.211  10.837  19.000  0.00  0.00    +0.000 N 
ATOM     12  C   UNL     1       0.155  11.713  18.963  0.00  0.00    +0.000 C 
ATOM     13  O   UNL     1       0.259  12.779  18.358  0.00  0.00    +0.000 OA
ATOM     14  C   UNL     1      -1.130  11.257  19.670  0.00  0.00    +0.000 C 
ATOM     15  H   UNL     1       1.932  11.037  18.313  0.00  0.00    +0.000 HD
ENDROOT
BRANCH   1  16
ATOM     16  C   UNL     1      -1.126  12.741  21.761  0.00  0.00    +0.000 C 
BRANCH  16  20
ATOM     17  C   UNL     1      -5.103  12.881  23.431  0.00  0.00    +0.000 A 
ATOM     18  C   UNL     1      -4.061  12.363  24.205  0.00  0.00    +0.000 A 
ATOM     19  C   UNL     1      -2.754  12.377  23.707  0.00  0.00    +0.000 A 
ATOM     20  C   UNL     1      -2.483  12.884  22.427  0.00  0.00    +0.000 A 
ATOM     21  C   UNL     1      -3.505  13.585  21.765  0.00  0.00    +0.000 A 
ATOM     22  C   UNL     1      -4.814  13.578  22.259  0.00  0.00    +0.000 A 
BRANCH  17  24
ATOM     23  O   UNL     1      -7.171  11.687  23.402  0.00  0.00    +0.000 OA
ATOM     24  C   UNL     1      -6.523  12.642  23.786  0.00  0.00    +0.000 C 
BRANCH  24  25
ATOM     25  O   UNL     1      -6.986  13.550  24.677  0.00  0.00    +0.000 OA
ATOM     26  H   UNL     1      -7.944  13.717  24.597  0.00  0.00    +0.000 HD
ENDBRANCH  24  25
ENDBRANCH  17  24
ENDBRANCH  16  20
ENDBRANCH   1  16
BRANCH  14  27
ATOM     27  C   UNL     1      -2.338  11.917  18.982  0.00  0.00    +0.000 C 
BRANCH  27  28
ATOM     28  C   UNL     1      -2.855  11.316  17.691  0.00  0.00    +0.000 A 
ATOM     29  C   UNL     1      -2.136  10.408  16.906  0.00  0.00    +0.000 A 
ATOM     30  C   UNL     1      -2.664   9.921  15.705  0.00  0.00    +0.000 A 
ATOM     31  C   UNL     1      -3.913  10.356  15.278  0.00  0.00    +0.000 A 
ATOM     32  C   UNL     1      -4.648  11.250  16.041  0.00  0.00    +0.000 A 
ATOM     33  C   UNL     1      -4.128  11.716  17.248  0.00  0.00    +0.000 A 
BRANCH  31  34
ATOM     34  O   UNL     1      -4.454   9.938  14.100  0.00  0.00    +0.000 OA
ATOM     35  H   UNL     1      -5.028  10.635  13.744  0.00  0.00    +0.000 HD
ENDBRANCH  31  34
ENDBRANCH  27  28
ENDBRANCH  14  27
TORSDOF 7
ENDMDL
MODEL 6
REMARK VINA RESULT:      -7.3      1.932      2.516
REMARK  Name = 
REMARK  7 active torsions:
REMARK  status: ('A' for Active; 'I' for Inactive)
REMARK    1  A    between atoms: C_2  and  O_3
REMARK    2  A    between atoms: C_2  and  C_4
REMARK    3  A    between atoms: C_7  and  C_8
REMARK    4  A    between atoms: C_8  and  N_9
REMARK    5  A    between atoms: C_22  and  C_23
REMARK    6  A    between atoms: C_23  and  C_24
REMARK    7  A    between atoms: C_27  and  O_28
REMARK                            x       y       z     vdW  Elec       q    Type
REMARK                         _______ _______ _______ _____ _____    ______ ____
ROOT
ATOM      1  N   UNL     1      -0.218  11.076  21.043  0.00  0.00    +0.000 N 
ATOM      2  C   UNL     1       0.683  10.103  21.492  0.00  0.00    +0.000 C 
ATOM      3  O   UNL     1       1.099  10.068  22.649  0.00  0.00    +0.000 OA
ATOM      4  C   UNL     1       1.178   9.054  20.546  0.00  0.00    +0.000 A 
ATOM      5  C   UNL     1       1.357   7.766  21.074  0.00  0.00    +0.000 A 
ATOM      6  C   UNL     1       1.890   6.741  20.289  0.00  0.00    +0.000 A 
ATOM      7  C   UNL     1       2.277   7.013  18.981  0.00  0.00    +0.000 A 
ATOM      8 CL   UNL     1       2.893   5.736  17.997  0.00  0.00    +0.000 Cl
ATOM      9  C   UNL     1       2.162   8.300  18.452  0.00  0.00    +0.000 A 
ATOM     10  C   UNL     1       1.590   9.314  19.220  0.00  0.00    +0.000 A 
ATOM     11  N   UNL     1       1.476  10.565  18.590  0.00  0.00    +0.000 N 
ATOM     12  C   UNL     1       0.468  11.477  18.786  0.00  0.00    +0.000 C 
ATOM     13  O   UNL     1       0.524  12.582  18.249  0.00  0.00    +0.000 OA
ATOM     14  C   UNL     1      -0.708  11.011  19.658  0.00  0.00    +0.000 C 
ATOM     15  H   UNL     1       2.087  10.794  17.812  0.00  0.00    +0.000 HD
ENDROOT
BRANCH   1  16
ATOM     16  C   UNL     1      -0.305  12.329  21.820  0.00  0.00    +0.000 C 
BRANCH  16  20
ATOM     17  C   UNL     1      -4.312  13.039  23.257  0.00  0.00    +0.000 A 
ATOM     18  C   UNL     1      -3.553  12.020  23.840  0.00  0.00    +0.000 A 
ATOM     19  C   UNL     1      -2.228  11.824  23.437  0.00  0.00    +0.000 A 
ATOM     20  C   UNL     1      -1.662  12.625  22.434  0.00  0.00    +0.000 A 
ATOM     21  C   UNL     1      -2.370  13.767  22.022  0.00  0.00    +0.000 A 
ATOM     22  C   UNL     1      -3.694  13.971  22.424  0.00  0.00    +0.000 A 
BRANCH  17  24
ATOM     23  O   UNL     1      -6.566  12.292  23.004  0.00  0.00    +0.000 OA
ATOM     24  C   UNL     1      -5.781  13.112  23.443  0.00  0.00    +0.000 C 
BRANCH  24  25
ATOM     25  O   UNL     1      -6.144  14.136  24.250  0.00  0.00    +0.000 OA
ATOM     26  H   UNL     1      -6.569  13.844  25.078  0.00  0.00    +0.000 HD
ENDBRANCH  24  25
ENDBRANCH  17  24
ENDBRANCH  16  20
ENDBRANCH   1  16
BRANCH  14  27
ATOM     27  C   UNL     1      -1.979  11.763  19.222  0.00  0.00    +0.000 C 
BRANCH  27  28
ATOM     28  C   UNL     1      -2.666  11.342  17.939  0.00  0.00    +0.000 A 
ATOM     29  C   UNL     1      -3.930  11.792  17.543  0.00  0.00    +0.000 A 
ATOM     30  C   UNL     1      -4.519  11.330  16.360  0.00  0.00    +0.000 A 
ATOM     31  C   UNL     1      -3.845  10.403  15.575  0.00  0.00    +0.000 A 
ATOM     32  C   UNL     1      -2.588   9.947  15.941  0.00  0.00    +0.000 A 
ATOM     33  C   UNL     1      -1.996  10.426  17.110  0.00  0.00    +0.000 A 
BRANCH  31  34
ATOM     34  O   UNL     1      -4.390   9.899  14.433  0.00  0.00    +0.000 OA
ATOM     35  H   UNL     1      -5.162   9.354  14.657  0.00  0.00    +0.000 HD
ENDBRANCH  31  34
ENDBRANCH  27  28
ENDBRANCH  14  27
TORSDOF 7
ENDMDL
MODEL 7
REMARK VINA RESULT:      -7.2      2.379      3.314
REMARK  Name = 
REMARK  7 active torsions:
REMARK  status: ('A' for Active; 'I' for Inactive)
REMARK    1  A    between atoms: C_2  and  O_3
REMARK    2  A    between atoms: C_2  and  C_4
REMARK    3  A    between atoms: C_7  and  C_8
REMARK    4  A    between atoms: C_8  and  N_9
REMARK    5  A    between atoms: C_22  and  C_23
REMARK    6  A    between atoms: C_23  and  C_24
REMARK    7  A    between atoms: C_27  and  O_28
REMARK                            x       y       z     vdW  Elec       q    Type
REMARK                         _______ _______ _______ _____ _____    ______ ____
ROOT
ATOM      1  N   UNL     1       0.331  10.466  20.882  0.00  0.00    +0.000 N 
ATOM      2  C   UNL     1       1.139   9.410  21.323  0.00  0.00    +0.000 C 
ATOM      3  O   UNL     1       1.557   9.332  22.477  0.00  0.00    +0.000 OA
ATOM      4  C   UNL     1       1.526   8.323  20.371  0.00  0.00    +0.000 A 
ATOM      5  C   UNL     1       1.586   7.021  20.895  0.00  0.00    +0.000 A 
ATOM      6  C   UNL     1       2.015   5.953  20.104  0.00  0.00    +0.000 A 
ATOM      7  C   UNL     1       2.418   6.191  18.794  0.00  0.00    +0.000 A 
ATOM      8 CL   UNL     1       2.904   4.864  17.803  0.00  0.00    +0.000 Cl
ATOM      9  C   UNL     1       2.421   7.485  18.269  0.00  0.00    +0.000 A 
ATOM     10  C   UNL     1       1.953   8.546  19.043  0.00  0.00    +0.000 A 
ATOM     11  N   UNL     1       1.953   9.804  18.417  0.00  0.00    +0.000 N 
ATOM     12  C   UNL     1       1.038  10.807  18.622  0.00  0.00    +0.000 C 
ATOM     13  O   UNL     1       1.194  11.904  18.087  0.00  0.00    +0.000 OA
ATOM     14  C   UNL     1      -0.172  10.452  19.500  0.00  0.00    +0.000 C 
ATOM     15  H   UNL     1       2.579   9.976  17.635  0.00  0.00    +0.000 HD
ENDROOT
BRANCH   1  16
ATOM     16  C   UNL     1       0.368  11.719  21.663  0.00  0.00    +0.000 C 
BRANCH  16  20
ATOM     17  C   UNL     1      -3.296  13.226  23.375  0.00  0.00    +0.000 A 
ATOM     18  C   UNL     1      -2.642  13.982  22.397  0.00  0.00    +0.000 A 
ATOM     19  C   UNL     1      -1.494  13.476  21.780  0.00  0.00    +0.000 A 
ATOM     20  C   UNL     1      -0.977  12.225  22.151  0.00  0.00    +0.000 A 
ATOM     21  C   UNL     1      -1.766  11.403  22.974  0.00  0.00    +0.000 A 
ATOM     22  C   UNL     1      -2.917  11.901  23.591  0.00  0.00    +0.000 A 
BRANCH  17  24
ATOM     23  O   UNL     1      -4.698  14.982  24.182  0.00  0.00    +0.000 OA
ATOM     24  C   UNL     1      -4.338  13.821  24.245  0.00  0.00    +0.000 C 
BRANCH  24  25
ATOM     25  O   UNL     1      -4.923  12.900  25.045  0.00  0.00    +0.000 OA
ATOM     26  H   UNL     1      -5.897  12.895  24.982  0.00  0.00    +0.000 HD
ENDBRANCH  24  25
ENDBRANCH  17  24
ENDBRANCH  16  20
ENDBRANCH   1  16
BRANCH  14  27
ATOM     27  C   UNL     1      -1.368  11.322  19.075  0.00  0.00    +0.000 C 
BRANCH  27  28
ATOM     28  C   UNL     1      -2.163  10.912  17.852  0.00  0.00    +0.000 A 
ATOM     29  C   UNL     1      -1.766   9.914  16.956  0.00  0.00    +0.000 A 
ATOM     30  C   UNL     1      -2.535   9.614  15.826  0.00  0.00    +0.000 A 
ATOM     31  C   UNL     1      -3.703  10.328  15.582  0.00  0.00    +0.000 A 
ATOM     32  C   UNL     1      -4.122  11.317  16.458  0.00  0.00    +0.000 A 
ATOM     33  C   UNL     1      -3.363  11.598  17.594  0.00  0.00    +0.000 A 
BRANCH  31  34
ATOM     34  O   UNL     1      -4.467  10.096  14.479  0.00  0.00    +0.000 OA
ATOM     35  H   UNL     1      -4.768   9.174  14.483  0.00  0.00    +0.000 HD
ENDBRANCH  31  34
ENDBRANCH  27  28
ENDBRANCH  14  27
TORSDOF 7
ENDMDL
MODEL 8
REMARK VINA RESULT:      -7.1      1.904      2.475
REMARK  Name = 
REMARK  7 active torsions:
REMARK  status: ('A' for Active; 'I' for Inactive)
REMARK    1  A    between atoms: C_2  and  O_3
REMARK    2  A    between atoms: C_2  and  C_4
REMARK    3  A    between atoms: C_7  and  C_8
REMARK    4  A    between atoms: C_8  and  N_9
REMARK    5  A    between atoms: C_22  and  C_23
REMARK    6  A    between atoms: C_23  and  C_24
REMARK    7  A    between atoms: C_27  and  O_28
REMARK                            x       y       z     vdW  Elec       q    Type
REMARK                         _______ _______ _______ _____ _____    ______ ____
ROOT
ATOM      1  N   UNL     1      -1.227  11.361  21.107  0.00  0.00    +0.000 N 
ATOM      2  C   UNL     1      -0.365  10.484  21.777  0.00  0.00    +0.000 C 
ATOM      3  O   UNL     1      -0.237  10.484  23.000  0.00  0.00    +0.000 OA
ATOM      4  C   UNL     1       0.446   9.498  20.996  0.00  0.00    +0.000 A 
ATOM      5  C   UNL     1       0.625   8.231  21.576  0.00  0.00    +0.000 A 
ATOM      6  C   UNL     1       1.433   7.273  20.961  0.00  0.00    +0.000 A 
ATOM      7  C   UNL     1       2.092   7.591  19.779  0.00  0.00    +0.000 A 
ATOM      8 CL   UNL     1       3.053   6.391  18.995  0.00  0.00    +0.000 Cl
ATOM      9  C   UNL     1       1.976   8.863  19.214  0.00  0.00    +0.000 A 
ATOM     10  C   UNL     1       1.136   9.807  19.803  0.00  0.00    +0.000 A 
ATOM     11  N   UNL     1       1.048  11.043  19.140  0.00  0.00    +0.000 N 
ATOM     12  C   UNL     1      -0.064  11.845  19.073  0.00  0.00    +0.000 C 
ATOM     13  O   UNL     1       0.005  12.953  18.544  0.00  0.00    +0.000 OA
ATOM     14  C   UNL     1      -1.361  11.254  19.647  0.00  0.00    +0.000 C 
ATOM     15  H   UNL     1       1.802  11.339  18.527  0.00  0.00    +0.000 HD
ENDROOT
BRANCH   1  16
ATOM     16  C   UNL     1      -1.625  12.593  21.817  0.00  0.00    +0.000 C 
BRANCH  16  20
ATOM     17  C   UNL     1      -5.627  13.020  23.373  0.00  0.00    +0.000 A 
ATOM     18  C   UNL     1      -5.436  13.007  21.989  0.00  0.00    +0.000 A 
ATOM     19  C   UNL     1      -4.155  12.796  21.467  0.00  0.00    +0.000 A 
ATOM     20  C   UNL     1      -3.057  12.624  22.322  0.00  0.00    +0.000 A 
ATOM     21  C   UNL     1      -3.309  12.430  23.691  0.00  0.00    +0.000 A 
ATOM     22  C   UNL     1      -4.587  12.635  24.219  0.00  0.00    +0.000 A 
BRANCH  17  24
ATOM     23  O   UNL     1      -7.129  14.678  24.210  0.00  0.00    +0.000 OA
ATOM     24  C   UNL     1      -6.892  13.507  23.975  0.00  0.00    +0.000 C 
BRANCH  24  25
ATOM     25  O   UNL     1      -7.799  12.515  24.132  0.00  0.00    +0.000 OA
ATOM     26  H   UNL     1      -8.683  12.836  24.390  0.00  0.00    +0.000 HD
ENDBRANCH  24  25
ENDBRANCH  17  24
ENDBRANCH  16  20
ENDBRANCH   1  16
BRANCH  14  27
ATOM     27  C   UNL     1      -2.560  11.873  18.906  0.00  0.00    +0.000 C 
BRANCH  27  28
ATOM     28  C   UNL     1      -2.991  11.263  17.587  0.00  0.00    +0.000 A 
ATOM     29  C   UNL     1      -2.221  10.351  16.857  0.00  0.00    +0.000 A 
ATOM     30  C   UNL     1      -2.668   9.857  15.626  0.00  0.00    +0.000 A 
ATOM     31  C   UNL     1      -3.886  10.289  15.115  0.00  0.00    +0.000 A 
ATOM     32  C   UNL     1      -4.670  11.187  15.822  0.00  0.00    +0.000 A 
ATOM     33  C   UNL     1      -4.231  11.660  17.059  0.00  0.00    +0.000 A 
BRANCH  31  34
ATOM     34  O   UNL     1      -4.348   9.863  13.906  0.00  0.00    +0.000 OA
ATOM     35  H   UNL     1      -4.693   8.961  13.993  0.00  0.00    +0.000 HD
ENDBRANCH  31  34
ENDBRANCH  27  28
ENDBRANCH  14  27
TORSDOF 7
ENDMDL
MODEL 9
REMARK VINA RESULT:      -7.1      3.835      7.292
REMARK  Name = 
REMARK  7 active torsions:
REMARK  status: ('A' for Active; 'I' for Inactive)
REMARK    1  A    between atoms: C_2  and  O_3
REMARK    2  A    between atoms: C_2  and  C_4
REMARK    3  A    between atoms: C_7  and  C_8
REMARK    4  A    between atoms: C_8  and  N_9
REMARK    5  A    between atoms: C_22  and  C_23
REMARK    6  A    between atoms: C_23  and  C_24
REMARK    7  A    between atoms: C_27  and  O_28
REMARK                            x       y       z     vdW  Elec       q    Type
REMARK                         _______ _______ _______ _____ _____    ______ ____
ROOT
ATOM      1  N   UNL     1       0.237  11.963  19.894  0.00  0.00    +0.000 N 
ATOM      2  C   UNL     1       1.142  13.026  19.781  0.00  0.00    +0.000 C 
ATOM      3  O   UNL     1       2.347  12.896  19.992  0.00  0.00    +0.000 OA
ATOM      4  C   UNL     1       0.649  14.385  19.393  0.00  0.00    +0.000 A 
ATOM      5  C   UNL     1       1.484  15.140  18.554  0.00  0.00    +0.000 A 
ATOM      6  C   UNL     1       1.147  16.449  18.204  0.00  0.00    +0.000 A 
ATOM      7  C   UNL     1      -0.012  17.018  18.720  0.00  0.00    +0.000 A 
ATOM      8 CL   UNL     1      -0.453  18.619  18.249  0.00  0.00    +0.000 Cl
ATOM      9  C   UNL     1      -0.829  16.306  19.601  0.00  0.00    +0.000 A 
ATOM     10  C   UNL     1      -0.517  14.985  19.919  0.00  0.00    +0.000 A 
ATOM     11  N   UNL     1      -1.418  14.335  20.779  0.00  0.00    +0.000 N 
ATOM     12  C   UNL     1      -1.742  13.001  20.748  0.00  0.00    +0.000 C 
ATOM     13  O   UNL     1      -2.474  12.524  21.614  0.00  0.00    +0.000 OA
ATOM     14  C   UNL     1      -1.178  12.193  19.569  0.00  0.00    +0.000 C 
ATOM     15  H   UNL     1      -2.010  14.884  21.395  0.00  0.00    +0.000 HD
ENDROOT
BRANCH   1  16
ATOM     16  C   UNL     1       0.648  10.808  20.717  0.00  0.00    +0.000 C 
BRANCH  16  20
ATOM     17  C   UNL     1       2.478   7.576  18.519  0.00  0.00    +0.000 A 
ATOM     18  C   UNL     1       2.118   7.370  19.855  0.00  0.00    +0.000 A 
ATOM     19  C   UNL     1       1.458   8.381  20.559  0.00  0.00    +0.000 A 
ATOM     20  C   UNL     1       1.177   9.611  19.946  0.00  0.00    +0.000 A 
ATOM     21  C   UNL     1       1.356   9.712  18.555  0.00  0.00    +0.000 A 
ATOM     22  C   UNL     1       2.012   8.703  17.844  0.00  0.00    +0.000 A 
BRANCH  17  24
ATOM     23  O   UNL     1       4.464   7.008  17.320  0.00  0.00    +0.000 OA
ATOM     24  C   UNL     1       3.410   6.659  17.820  0.00  0.00    +0.000 C 
BRANCH  24  25
ATOM     25  O   UNL     1       3.010   5.368  17.894  0.00  0.00    +0.000 OA
ATOM     26  H   UNL     1       3.701   4.733  17.628  0.00  0.00    +0.000 HD
ENDBRANCH  24  25
ENDBRANCH  17  24
ENDBRANCH  16  20
ENDBRANCH   1  16
BRANCH  14  27
ATOM     27  C   UNL     1      -2.131  11.022  19.268  0.00  0.00    +0.000 C 
BRANCH  27  28
ATOM     28  C   UNL     1      -2.620  10.833  17.846  0.00  0.00    +0.000 A 
ATOM     29  C   UNL     1      -3.753  11.460  17.316  0.00  0.00    +0.000 A 
ATOM     30  C   UNL     1      -4.166  11.209  16.003  0.00  0.00    +0.000 A 
ATOM     31  C   UNL     1      -3.450  10.312  15.219  0.00  0.00    +0.000 A 
ATOM     32  C   UNL     1      -2.320   9.682  15.718  0.00  0.00    +0.000 A 
ATOM     33  C   UNL     1      -1.900   9.952  17.020  0.00  0.00    +0.000 A 
BRANCH  31  34
ATOM     34  O   UNL     1      -3.831  10.009  13.947  0.00  0.00    +0.000 OA
ATOM     35  H   UNL     1      -4.525  10.625  13.663  0.00  0.00    +0.000 HD
ENDBRANCH  31  34
ENDBRANCH  27  28
ENDBRANCH  14  27
TORSDOF 7
ENDMDL
