MODEL 1
REMARK VINA RESULT:      -7.9      0.000      0.000
REMARK  Name = 
REMARK  5 active torsions:
REMARK  status: ('A' for Active; 'I' for Inactive)
REMARK    1  A    between atoms: C_2  and  C_3
REMARK    2  A    between atoms: C_6  and  C_7
REMARK    3  A    between atoms: C_18  and  C_20
REMARK    4  A    between atoms: CA_26  and  C_27
REMARK    5  A    between atoms: C_27  and  O_28
REMARK                            x       y       z     vdW  Elec       q    Type
REMARK                         _______ _______ _______ _____ _____    ______ ____
ROOT
ATOM      1  C   UNL     1       0.532   9.344  20.940  0.00  0.00    +0.000 A 
ATOM      2  C   UNL     1       0.222   8.931  22.239  0.00  0.00    +0.000 A 
ATOM      3  C   UNL     1      -0.589   9.709  23.073  0.00  0.00    +0.000 A 
ATOM      4  C   UNL     1      -1.111  10.925  22.633  0.00  0.00    +0.000 A 
ATOM      5  C   UNL     1      -0.762  11.401  21.363  0.00  0.00    +0.000 A 
ATOM      6  C   UNL     1       0.030  10.586  20.523  0.00  0.00    +0.000 A 
ATOM      7  C   UNL     1      -1.201  12.767  20.883  0.00  0.00    +0.000 C 
ATOM      8  C   UNL     1      -1.845  13.586  22.024  0.00  0.00    +0.000 C 
ATOM      9  C   UNL     1      -0.647  14.236  22.718  0.00  0.00    +0.000 C 
ATOM     10  C   UNL     1       0.295  14.528  21.580  0.00  0.00    +0.000 C 
ATOM     11  N   UNL     1      -0.061  13.622  20.493  0.00  0.00    +0.000 N 
ATOM     12  C   UNL     1       0.472  13.699  19.201  0.00  0.00    +0.000 C 
ATOM     13  O   UNL     1       0.130  12.972  18.271  0.00  0.00    +0.000 OA
ATOM     14  CA  UNL     1      -2.733  12.742  22.934  0.00  0.00    +0.000 C 
ATOM     15  N   UNL     1      -2.014  11.586  23.463  0.00  0.00    +0.000 N 
ATOM     16  H   UNL     1      -1.676  11.697  24.419  0.00  0.00    +0.000 HD
ENDROOT
BRANCH   1  20
ATOM     17  C   UNL     1       3.002   6.970  18.323  0.00  0.00    +0.000 A 
ATOM     18  C   UNL     1       2.520   8.205  17.903  0.00  0.00    +0.000 A 
ATOM     19  C   UNL     1       1.708   8.970  18.747  0.00  0.00    +0.000 A 
ATOM     20  C   UNL     1       1.370   8.518  20.037  0.00  0.00    +0.000 A 
ATOM     21  C   UNL     1       1.857   7.261  20.434  0.00  0.00    +0.000 A 
ATOM     22  C   UNL     1       2.658   6.492  19.593  0.00  0.00    +0.000 A 
BRANCH  17  24
ATOM     23  N   UNL     1       4.525   5.557  16.778  0.00  0.00    +0.000 NA
ATOM     24  C   UNL     1       3.844   6.190  17.471  0.00  0.00    +0.000 C 
ENDBRANCH  17  24
ENDBRANCH   1  20
BRANCH  12  25
ATOM     25  C   UNL     1       1.543  14.777  19.037  0.00  0.00    +0.000 C 
ATOM     26  C   UNL     1       1.184  16.190  18.583  0.00  0.00    +0.000 C 
ATOM     27  C   UNL     1       2.365  17.098  19.001  0.00  0.00    +0.000 C 
ATOM     28  C   UNL     1       3.729  16.592  18.493  0.00  0.00    +0.000 C 
ATOM     29  C   UNL     1       3.952  15.088  18.688  0.00  0.00    +0.000 C 
ATOM     30  C   UNL     1       2.738  14.301  18.209  0.00  0.00    +0.000 C 
ENDBRANCH  12  25
BRANCH  14  31
ATOM     31  C   UNL     1      -3.354  13.545  24.104  0.00  0.00    +0.000 C 
BRANCH  31  32
ATOM     32  O   UNL     1      -4.176  12.736  24.945  0.00  0.00    +0.000 OA
ATOM     33  H   UNL     1      -3.906  12.905  25.864  0.00  0.00    +0.000 HD
ENDBRANCH  31  32
ENDBRANCH  14  31
TORSDOF 5
ENDMDL
MODEL 2
REMARK VINA RESULT:      -7.5      0.867      1.242
REMARK  Name = 
REMARK  5 active torsions:
REMARK  status: ('A' for Active; 'I' for Inactive)
REMARK    1  A    between atoms: C_2  and  C_3
REMARK    2  A    between atoms: C_6  and  C_7
REMARK    3  A    between atoms: C_18  and  C_20
REMARK    4  A    between atoms: CA_26  and  C_27
REMARK    5  A    between atoms: C_27  and  O_28
REMARK                            x       y       z     vdW  Elec       q    Type
REMARK                         _______ _______ _______ _____ _____    ______ ____
ROOT
ATOM      1  C   UNL     1      -0.004   9.933  21.162  0.00  0.00    +0.000 A 
ATOM      2  C   UNL     1      -0.314   9.590  22.481  0.00  0.00    +0.000 A 
ATOM      3  C   UNL     1      -1.173  10.382  23.253  0.00  0.00    +0.000 A 
ATOM      4  C   UNL     1      -1.742  11.542  22.730  0.00  0.00    +0.000 A 
ATOM      5  C   UNL     1      -1.397  11.951  21.436  0.00  0.00    +0.000 A 
ATOM      6  C   UNL     1      -0.556  11.121  20.659  0.00  0.00    +0.000 A 
ATOM      7  C   UNL     1      -1.890  13.262  20.864  0.00  0.00    +0.000 C 
ATOM      8  C   UNL     1      -2.588  14.121  21.942  0.00  0.00    +0.000 C 
ATOM      9  C   UNL     1      -1.430  14.869  22.607  0.00  0.00    +0.000 C 
ATOM     10  C   UNL     1      -0.486  15.131  21.464  0.00  0.00    +0.000 C 
ATOM     11  N   UNL     1      -0.785  14.142  20.433  0.00  0.00    +0.000 N 
ATOM     12  C   UNL     1      -0.237  14.160  19.145  0.00  0.00    +0.000 C 
ATOM     13  O   UNL     1      -0.532  13.361  18.259  0.00  0.00    +0.000 OA
ATOM     14  CA  UNL     1      -3.449  13.297  22.894  0.00  0.00    +0.000 C 
ATOM     15  N   UNL     1      -2.687  12.212  23.505  0.00  0.00    +0.000 N 
ATOM     16  H   UNL     1      -2.368  12.400  24.456  0.00  0.00    +0.000 HD
ENDROOT
BRANCH   1  20
ATOM     17  C   UNL     1       2.540   7.457  18.717  0.00  0.00    +0.000 A 
ATOM     18  C   UNL     1       2.234   7.077  20.019  0.00  0.00    +0.000 A 
ATOM     19  C   UNL     1       1.419   7.886  20.817  0.00  0.00    +0.000 A 
ATOM     20  C   UNL     1       0.883   9.091  20.324  0.00  0.00    +0.000 A 
ATOM     21  C   UNL     1       1.217   9.461  19.010  0.00  0.00    +0.000 A 
ATOM     22  C   UNL     1       2.036   8.663  18.215  0.00  0.00    +0.000 A 
BRANCH  17  24
ATOM     23  N   UNL     1       4.028   5.956  17.222  0.00  0.00    +0.000 NA
ATOM     24  C   UNL     1       3.360   6.627  17.891  0.00  0.00    +0.000 C 
ENDBRANCH  17  24
ENDBRANCH   1  20
BRANCH  12  25
ATOM     25  C   UNL     1       0.787  15.274  18.924  0.00  0.00    +0.000 C 
ATOM     26  C   UNL     1       0.422  16.548  18.165  0.00  0.00    +0.000 C 
ATOM     27  C   UNL     1       1.477  17.609  18.557  0.00  0.00    +0.000 C 
ATOM     28  C   UNL     1       2.926  17.132  18.343  0.00  0.00    +0.000 C 
ATOM     29  C   UNL     1       3.200  15.711  18.851  0.00  0.00    +0.000 C 
ATOM     30  C   UNL     1       2.114  14.755  18.371  0.00  0.00    +0.000 C 
ENDBRANCH  12  25
BRANCH  14  31
ATOM     31  C   UNL     1      -4.123  14.144  24.002  0.00  0.00    +0.000 C 
BRANCH  31  32
ATOM     32  O   UNL     1      -3.698  13.766  25.312  0.00  0.00    +0.000 OA
ATOM     33  H   UNL     1      -3.215  12.926  25.230  0.00  0.00    +0.000 HD
ENDBRANCH  31  32
ENDBRANCH  14  31
TORSDOF 5
ENDMDL
MODEL 3
REMARK VINA RESULT:      -7.5      0.820      1.323
REMARK  Name = 
REMARK  5 active torsions:
REMARK  status: ('A' for Active; 'I' for Inactive)
REMARK    1  A    between atoms: C_2  and  C_3
REMARK    2  A    between atoms: C_6  and  C_7
REMARK    3  A    between atoms: C_18  and  C_20
REMARK    4  A    between atoms: CA_26  and  C_27
REMARK    5  A    between atoms: C_27  and  O_28
REMARK                            x       y       z     vdW  Elec       q    Type
REMARK                         _______ _______ _______ _____ _____    ______ ____
ROOT
ATOM      1  C   UNL     1       0.403   9.608  20.916  0.00  0.00    +0.000 A 
ATOM      2  C   UNL     1       0.296   9.246  22.261  0.00  0.00    +0.000 A 
ATOM      3  C   UNL     1      -0.551   9.940  23.134  0.00  0.00    +0.000 A 
ATOM      4  C   UNL     1      -1.312  11.019  22.686  0.00  0.00    +0.000 A 
ATOM      5  C   UNL     1      -1.174  11.452  21.361  0.00  0.00    +0.000 A 
ATOM      6  C   UNL     1      -0.341  10.718  20.487  0.00  0.00    +0.000 A 
ATOM      7  C   UNL     1      -1.883  12.689  20.857  0.00  0.00    +0.000 C 
ATOM      8  C   UNL     1      -2.543  13.473  22.014  0.00  0.00    +0.000 C 
ATOM      9  C   UNL     1      -1.410  14.359  22.537  0.00  0.00    +0.000 C 
ATOM     10  C   UNL     1      -0.648  14.717  21.289  0.00  0.00    +0.000 C 
ATOM     11  N   UNL     1      -0.948  13.688  20.299  0.00  0.00    +0.000 N 
ATOM     12  C   UNL     1      -0.564  13.757  18.954  0.00  0.00    +0.000 C 
ATOM     13  O   UNL     1      -0.867  12.918  18.108  0.00  0.00    +0.000 OA
ATOM     14  CA  UNL     1      -3.182  12.564  23.059  0.00  0.00    +0.000 C 
ATOM     15  N   UNL     1      -2.229  11.583  23.571  0.00  0.00    +0.000 N 
ATOM     16  H   UNL     1      -1.823  11.817  24.477  0.00  0.00    +0.000 HD
ENDROOT
BRANCH   1  20
ATOM     17  C   UNL     1       2.976   7.481  18.188  0.00  0.00    +0.000 A 
ATOM     18  C   UNL     1       2.401   8.690  17.811  0.00  0.00    +0.000 A 
ATOM     19  C   UNL     1       1.556   9.374  18.691  0.00  0.00    +0.000 A 
ATOM     20  C   UNL     1       1.277   8.867  19.974  0.00  0.00    +0.000 A 
ATOM     21  C   UNL     1       1.858   7.637  20.328  0.00  0.00    +0.000 A 
ATOM     22  C   UNL     1       2.693   6.948  19.451  0.00  0.00    +0.000 A 
BRANCH  17  24
ATOM     23  N   UNL     1       4.565   6.223  16.577  0.00  0.00    +0.000 NA
ATOM     24  C   UNL     1       3.852   6.784  17.299  0.00  0.00    +0.000 C 
ENDBRANCH  17  24
ENDBRANCH   1  20
BRANCH  12  25
ATOM     25  C   UNL     1       0.287  14.981  18.616  0.00  0.00    +0.000 C 
ATOM     26  C   UNL     1       1.687  15.159  19.198  0.00  0.00    +0.000 C 
ATOM     27  C   UNL     1       2.412  16.182  18.292  0.00  0.00    +0.000 C 
ATOM     28  C   UNL     1       1.626  17.494  18.108  0.00  0.00    +0.000 C 
ATOM     29  C   UNL     1       0.133  17.295  17.817  0.00  0.00    +0.000 C 
ATOM     30  C   UNL     1      -0.473  16.295  18.795  0.00  0.00    +0.000 C 
ENDBRANCH  12  25
BRANCH  14  31
ATOM     31  C   UNL     1      -3.813  13.338  24.243  0.00  0.00    +0.000 C 
BRANCH  31  32
ATOM     32  O   UNL     1      -4.646  12.510  25.054  0.00  0.00    +0.000 OA
ATOM     33  H   UNL     1      -5.502  12.962  25.148  0.00  0.00    +0.000 HD
ENDBRANCH  31  32
ENDBRANCH  14  31
TORSDOF 5
ENDMDL
MODEL 4
REMARK VINA RESULT:      -7.1      0.422      1.308
REMARK  Name = 
REMARK  5 active torsions:
REMARK  status: ('A' for Active; 'I' for Inactive)
REMARK    1  A    between atoms: C_2  and  C_3
REMARK    2  A    between atoms: C_6  and  C_7
REMARK    3  A    between atoms: C_18  and  C_20
REMARK    4  A    between atoms: CA_26  and  C_27
REMARK    5  A    between atoms: C_27  and  O_28
REMARK                            x       y       z     vdW  Elec       q    Type
REMARK                         _______ _______ _______ _____ _____    ______ ____
ROOT
ATOM      1  C   UNL     1       0.525   9.331  20.992  0.00  0.00    +0.000 A 
ATOM      2  C   UNL     1       0.275   8.960  22.316  0.00  0.00    +0.000 A 
ATOM      3  C   UNL     1      -0.555   9.728  23.140  0.00  0.00    +0.000 A 
ATOM      4  C   UNL     1      -1.156  10.893  22.665  0.00  0.00    +0.000 A 
ATOM      5  C   UNL     1      -0.871  11.331  21.366  0.00  0.00    +0.000 A 
ATOM      6  C   UNL     1      -0.058  10.524  20.537  0.00  0.00    +0.000 A 
ATOM      7  C   UNL     1      -1.399  12.648  20.842  0.00  0.00    +0.000 C 
ATOM      8  C   UNL     1      -2.055  13.480  21.966  0.00  0.00    +0.000 C 
ATOM      9  C   UNL     1      -0.876  14.225  22.594  0.00  0.00    +0.000 C 
ATOM     10  C   UNL     1       0.015  14.518  21.416  0.00  0.00    +0.000 C 
ATOM     11  N   UNL     1      -0.320  13.546  20.380  0.00  0.00    +0.000 N 
ATOM     12  C   UNL     1       0.171  13.594  19.070  0.00  0.00    +0.000 C 
ATOM     13  O   UNL     1      -0.156  12.809  18.183  0.00  0.00    +0.000 OA
ATOM     14  CA  UNL     1      -2.868  12.630  22.937  0.00  0.00    +0.000 C 
ATOM     15  N   UNL     1      -2.071  11.540  23.493  0.00  0.00    +0.000 N 
ATOM     16  H   UNL     1      -1.712  11.712  24.433  0.00  0.00    +0.000 HD
ENDROOT
BRANCH   1  20
ATOM     17  C   UNL     1       2.979   6.927  18.388  0.00  0.00    +0.000 A 
ATOM     18  C   UNL     1       2.676   6.484  19.671  0.00  0.00    +0.000 A 
ATOM     19  C   UNL     1       1.890   7.269  20.521  0.00  0.00    +0.000 A 
ATOM     20  C   UNL     1       1.381   8.513  20.099  0.00  0.00    +0.000 A 
ATOM     21  C   UNL     1       1.712   8.945  18.803  0.00  0.00    +0.000 A 
ATOM     22  C   UNL     1       2.502   8.171  17.957  0.00  0.00    +0.000 A 
BRANCH  17  24
ATOM     23  N   UNL     1       4.407   5.467  16.795  0.00  0.00    +0.000 NA
ATOM     24  C   UNL     1       3.769   6.122  17.509  0.00  0.00    +0.000 C 
ENDBRANCH  17  24
ENDBRANCH   1  20
BRANCH  12  25
ATOM     25  C   UNL     1       1.175  14.721  18.827  0.00  0.00    +0.000 C 
ATOM     26  C   UNL     1       2.540  14.730  19.511  0.00  0.00    +0.000 C 
ATOM     27  C   UNL     1       3.438  15.683  18.687  0.00  0.00    +0.000 C 
ATOM     28  C   UNL     1       2.817  17.079  18.486  0.00  0.00    +0.000 C 
ATOM     29  C   UNL     1       1.337  17.054  18.085  0.00  0.00    +0.000 C 
ATOM     30  C   UNL     1       0.554  16.109  18.989  0.00  0.00    +0.000 C 
ENDBRANCH  12  25
BRANCH  14  31
ATOM     31  C   UNL     1      -3.500  13.449  24.090  0.00  0.00    +0.000 C 
BRANCH  31  32
ATOM     32  O   UNL     1      -4.321  12.650  24.942  0.00  0.00    +0.000 OA
ATOM     33  H   UNL     1      -3.808  11.860  25.183  0.00  0.00    +0.000 HD
ENDBRANCH  31  32
ENDBRANCH  14  31
TORSDOF 5
ENDMDL
MODEL 5
REMARK VINA RESULT:      -7.0      4.681      9.127
REMARK  Name = 
REMARK  5 active torsions:
REMARK  status: ('A' for Active; 'I' for Inactive)
REMARK    1  A    between atoms: C_2  and  C_3
REMARK    2  A    between atoms: C_6  and  C_7
REMARK    3  A    between atoms: C_18  and  C_20
REMARK    4  A    between atoms: CA_26  and  C_27
REMARK    5  A    between atoms: C_27  and  O_28
REMARK                            x       y       z     vdW  Elec       q    Type
REMARK                         _______ _______ _______ _____ _____    ______ ____
ROOT
ATOM      1  C   UNL     1       7.178   7.363  18.145  0.00  0.00    +0.000 A 
ATOM      2  C   UNL     1       7.865   6.210  18.535  0.00  0.00    +0.000 A 
ATOM      3  C   UNL     1       7.251   4.953  18.503  0.00  0.00    +0.000 A 
ATOM      4  C   UNL     1       5.929   4.813  18.083  0.00  0.00    +0.000 A 
ATOM      5  C   UNL     1       5.190   5.956  17.753  0.00  0.00    +0.000 A 
ATOM      6  C   UNL     1       5.837   7.212  17.759  0.00  0.00    +0.000 A 
ATOM      7  C   UNL     1       3.719   5.873  17.408  0.00  0.00    +0.000 C 
ATOM      8  C   UNL     1       3.152   4.464  17.689  0.00  0.00    +0.000 C 
ATOM      9  C   UNL     1       2.781   4.517  19.173  0.00  0.00    +0.000 C 
ATOM     10  C   UNL     1       2.296   5.931  19.357  0.00  0.00    +0.000 C 
ATOM     11  N   UNL     1       2.885   6.723  18.282  0.00  0.00    +0.000 N 
ATOM     12  C   UNL     1       2.541   8.053  18.007  0.00  0.00    +0.000 C 
ATOM     13  O   UNL     1       2.994   8.701  17.067  0.00  0.00    +0.000 OA
ATOM     14  CA  UNL     1       4.119   3.347  17.310  0.00  0.00    +0.000 C 
ATOM     15  N   UNL     1       5.420   3.523  17.951  0.00  0.00    +0.000 N 
ATOM     16  H   UNL     1       5.568   2.944  18.778  0.00  0.00    +0.000 HD
ENDROOT
BRANCH   1  20
ATOM     17  C   UNL     1       9.088  11.227  18.135  0.00  0.00    +0.000 A 
ATOM     18  C   UNL     1       9.556  10.216  18.968  0.00  0.00    +0.000 A 
ATOM     19  C   UNL     1       8.928   8.967  18.981  0.00  0.00    +0.000 A 
ATOM     20  C   UNL     1       7.823   8.698  18.150  0.00  0.00    +0.000 A 
ATOM     21  C   UNL     1       7.361   9.739  17.327  0.00  0.00    +0.000 A 
ATOM     22  C   UNL     1       7.976  10.988  17.318  0.00  0.00    +0.000 A 
BRANCH  17  24
ATOM     23  N   UNL     1      10.261  13.535  18.085  0.00  0.00    +0.000 NA
ATOM     24  C   UNL     1       9.734  12.502  18.106  0.00  0.00    +0.000 C 
ENDBRANCH  17  24
ENDBRANCH   1  20
BRANCH  12  25
ATOM     25  C   UNL     1       1.540   8.649  18.997  0.00  0.00    +0.000 C 
ATOM     26  C   UNL     1       0.972  10.053  18.802  0.00  0.00    +0.000 C 
ATOM     27  C   UNL     1      -0.320  10.125  19.650  0.00  0.00    +0.000 C 
ATOM     28  C   UNL     1      -0.103   9.723  21.122  0.00  0.00    +0.000 C 
ATOM     29  C   UNL     1       0.739   8.455  21.308  0.00  0.00    +0.000 C 
ATOM     30  C   UNL     1       1.997   8.519  20.450  0.00  0.00    +0.000 C 
ENDBRANCH  12  25
BRANCH  14  31
ATOM     31  C   UNL     1       3.576   1.931  17.623  0.00  0.00    +0.000 C 
BRANCH  31  32
ATOM     32  O   UNL     1       4.276   1.302  18.697  0.00  0.00    +0.000 OA
ATOM     33  H   UNL     1       3.752   0.532  18.976  0.00  0.00    +0.000 HD
ENDBRANCH  31  32
ENDBRANCH  14  31
TORSDOF 5
ENDMDL
MODEL 6
REMARK VINA RESULT:      -6.9      6.349      9.671
REMARK  Name = 
REMARK  5 active torsions:
REMARK  status: ('A' for Active; 'I' for Inactive)
REMARK    1  A    between atoms: C_2  and  C_3
REMARK    2  A    between atoms: C_6  and  C_7
REMARK    3  A    between atoms: C_18  and  C_20
REMARK    4  A    between atoms: CA_26  and  C_27
REMARK    5  A    between atoms: C_27  and  O_28
REMARK                            x       y       z     vdW  Elec       q    Type
REMARK                         _______ _______ _______ _____ _____    ______ ____
ROOT
ATOM      1  C   UNL     1       8.497  12.440  22.460  0.00  0.00    +0.000 A 
ATOM      2  C   UNL     1       9.489  11.598  21.951  0.00  0.00    +0.000 A 
ATOM      3  C   UNL     1      10.152  11.899  20.756  0.00  0.00    +0.000 A 
ATOM      4  C   UNL     1       9.839  13.050  20.033  0.00  0.00    +0.000 A 
ATOM      5  C   UNL     1       8.801  13.878  20.479  0.00  0.00    +0.000 A 
ATOM      6  C   UNL     1       8.166  13.576  21.705  0.00  0.00    +0.000 A 
ATOM      7  C   UNL     1       8.340  15.071  19.671  0.00  0.00    +0.000 C 
ATOM      8  C   UNL     1       8.989  15.087  18.269  0.00  0.00    +0.000 C 
ATOM      9  C   UNL     1       8.066  14.193  17.437  0.00  0.00    +0.000 C 
ATOM     10  C   UNL     1       6.701  14.490  17.997  0.00  0.00    +0.000 C 
ATOM     11  N   UNL     1       6.900  15.011  19.346  0.00  0.00    +0.000 N 
ATOM     12  C   UNL     1       5.882  15.562  20.134  0.00  0.00    +0.000 C 
ATOM     13  O   UNL     1       6.061  16.052  21.246  0.00  0.00    +0.000 OA
ATOM     14  CA  UNL     1      10.453  14.660  18.285  0.00  0.00    +0.000 C 
ATOM     15  N   UNL     1      10.624  13.357  18.923  0.00  0.00    +0.000 N 
ATOM     16  H   UNL     1      10.728  12.576  18.274  0.00  0.00    +0.000 HD
ENDROOT
BRANCH   1  20
ATOM     17  C   UNL     1       6.468  11.632  26.177  0.00  0.00    +0.000 A 
ATOM     18  C   UNL     1       7.712  12.256  26.178  0.00  0.00    +0.000 A 
ATOM     19  C   UNL     1       8.376  12.506  24.973  0.00  0.00    +0.000 A 
ATOM     20  C   UNL     1       7.803  12.147  23.738  0.00  0.00    +0.000 A 
ATOM     21  C   UNL     1       6.553  11.506  23.763  0.00  0.00    +0.000 A 
ATOM     22  C   UNL     1       5.892  11.245  24.961  0.00  0.00    +0.000 A 
BRANCH  17  24
ATOM     23  N   UNL     1       5.215  11.189  28.399  0.00  0.00    +0.000 NA
ATOM     24  C   UNL     1       5.778  11.386  27.405  0.00  0.00    +0.000 C 
ENDBRANCH  17  24
ENDBRANCH   1  20
BRANCH  12  25
ATOM     25  C   UNL     1       4.498  15.497  19.489  0.00  0.00    +0.000 C 
ATOM     26  C   UNL     1       3.791  16.758  18.998  0.00  0.00    +0.000 C 
ATOM     27  C   UNL     1       2.708  16.292  17.996  0.00  0.00    +0.000 C 
ATOM     28  C   UNL     1       1.767  15.218  18.575  0.00  0.00    +0.000 C 
ATOM     29  C   UNL     1       2.488  14.098  19.336  0.00  0.00    +0.000 C 
ATOM     30  C   UNL     1       3.500  14.683  20.314  0.00  0.00    +0.000 C 
ENDBRANCH  12  25
BRANCH  14  31
ATOM     31  C   UNL     1      11.102  14.636  16.879  0.00  0.00    +0.000 C 
BRANCH  31  32
ATOM     32  O   UNL     1      10.833  15.823  16.134  0.00  0.00    +0.000 OA
ATOM     33  H   UNL     1       9.907  16.068  16.300  0.00  0.00    +0.000 HD
ENDBRANCH  31  32
ENDBRANCH  14  31
TORSDOF 5
ENDMDL
MODEL 7
REMARK VINA RESULT:      -6.8      6.261      9.618
REMARK  Name = 
REMARK  5 active torsions:
REMARK  status: ('A' for Active; 'I' for Inactive)
REMARK    1  A    between atoms: C_2  and  C_3
REMARK    2  A    between atoms: C_6  and  C_7
REMARK    3  A    between atoms: C_18  and  C_20
REMARK    4  A    between atoms: CA_26  and  C_27
REMARK    5  A    between atoms: C_27  and  O_28
REMARK                            x       y       z     vdW  Elec       q    Type
REMARK                         _______ _______ _______ _____ _____    ______ ____
ROOT
ATOM      1  C   UNL     1       7.952  12.464  22.627  0.00  0.00    +0.000 A 
ATOM      2  C   UNL     1       8.802  11.400  22.314  0.00  0.00    +0.000 A 
ATOM      3  C   UNL     1       9.565  11.403  21.140  0.00  0.00    +0.000 A 
ATOM      4  C   UNL     1       9.496  12.469  20.244  0.00  0.00    +0.000 A 
ATOM      5  C   UNL     1       8.603  13.517  20.493  0.00  0.00    +0.000 A 
ATOM      6  C   UNL     1       7.866  13.514  21.700  0.00  0.00    +0.000 A 
ATOM      7  C   UNL     1       8.401  14.637  19.496  0.00  0.00    +0.000 C 
ATOM      8  C   UNL     1       9.108  14.334  18.157  0.00  0.00    +0.000 C 
ATOM      9  C   UNL     1       8.082  13.495  17.392  0.00  0.00    +0.000 C 
ATOM     10  C   UNL     1       6.766  14.099  17.804  0.00  0.00    +0.000 C 
ATOM     11  N   UNL     1       6.990  14.774  19.078  0.00  0.00    +0.000 N 
ATOM     12  C   UNL     1       6.049  15.600  19.705  0.00  0.00    +0.000 C 
ATOM     13  O   UNL     1       6.259  16.214  20.749  0.00  0.00    +0.000 OA
ATOM     14  CA  UNL     1      10.470  13.673  18.340  0.00  0.00    +0.000 C 
ATOM     15  N   UNL     1      10.376  12.470  19.163  0.00  0.00    +0.000 N 
ATOM     16  H   UNL     1      10.370  11.595  18.638  0.00  0.00    +0.000 HD
ENDROOT
BRANCH   1  20
ATOM     17  C   UNL     1       5.604  12.522  26.242  0.00  0.00    +0.000 A 
ATOM     18  C   UNL     1       5.622  13.629  25.400  0.00  0.00    +0.000 A 
ATOM     19  C   UNL     1       6.393  13.615  24.234  0.00  0.00    +0.000 A 
ATOM     20  C   UNL     1       7.157  12.486  23.879  0.00  0.00    +0.000 A 
ATOM     21  C   UNL     1       7.134  11.386  24.752  0.00  0.00    +0.000 A 
ATOM     22  C   UNL     1       6.375  11.399  25.920  0.00  0.00    +0.000 A 
BRANCH  17  24
ATOM     23  N   UNL     1       4.160  12.524  28.391  0.00  0.00    +0.000 NA
ATOM     24  C   UNL     1       4.805  12.524  27.428  0.00  0.00    +0.000 C 
ENDBRANCH  17  24
ENDBRANCH   1  20
BRANCH  12  25
ATOM     25  C   UNL     1       4.708  15.674  18.976  0.00  0.00    +0.000 C 
ATOM     26  C   UNL     1       4.086  17.015  18.592  0.00  0.00    +0.000 C 
ATOM     27  C   UNL     1       3.053  16.717  17.480  0.00  0.00    +0.000 C 
ATOM     28  C   UNL     1       2.033  15.631  17.874  0.00  0.00    +0.000 C 
ATOM     29  C   UNL     1       2.657  14.399  18.543  0.00  0.00    +0.000 C 
ATOM     30  C   UNL     1       3.627  14.821  19.641  0.00  0.00    +0.000 C 
ENDBRANCH  12  25
BRANCH  14  31
ATOM     31  C   UNL     1      11.172  13.330  17.002  0.00  0.00    +0.000 C 
BRANCH  31  32
ATOM     32  O   UNL     1      12.153  12.303  17.148  0.00  0.00    +0.000 OA
ATOM     33  H   UNL     1      13.023  12.705  16.982  0.00  0.00    +0.000 HD
ENDBRANCH  31  32
ENDBRANCH  14  31
TORSDOF 5
ENDMDL
MODEL 8
REMARK VINA RESULT:      -6.7      4.548      9.097
REMARK  Name = 
REMARK  5 active torsions:
REMARK  status: ('A' for Active; 'I' for Inactive)
REMARK    1  A    between atoms: C_2  and  C_3
REMARK    2  A    between atoms: C_6  and  C_7
REMARK    3  A    between atoms: C_18  and  C_20
REMARK    4  A    between atoms: CA_26  and  C_27
REMARK    5  A    between atoms: C_27  and  O_28
REMARK                            x       y       z     vdW  Elec       q    Type
REMARK                         _______ _______ _______ _____ _____    ______ ____
ROOT
ATOM      1  C   UNL     1       7.194   7.386  18.069  0.00  0.00    +0.000 A 
ATOM      2  C   UNL     1       7.875   6.192  18.324  0.00  0.00    +0.000 A 
ATOM      3  C   UNL     1       7.221   4.957  18.264  0.00  0.00    +0.000 A 
ATOM      4  C   UNL     1       5.864   4.879  17.951  0.00  0.00    +0.000 A 
ATOM      5  C   UNL     1       5.136   6.060  17.759  0.00  0.00    +0.000 A 
ATOM      6  C   UNL     1       5.822   7.296  17.790  0.00  0.00    +0.000 A 
ATOM      7  C   UNL     1       3.640   6.039  17.537  0.00  0.00    +0.000 C 
ATOM      8  C   UNL     1       3.054   4.630  17.776  0.00  0.00    +0.000 C 
ATOM      9  C   UNL     1       2.811   4.595  19.286  0.00  0.00    +0.000 C 
ATOM     10  C   UNL     1       2.389   6.005  19.600  0.00  0.00    +0.000 C 
ATOM     11  N   UNL     1       2.910   6.852  18.532  0.00  0.00    +0.000 N 
ATOM     12  C   UNL     1       2.586   8.205  18.374  0.00  0.00    +0.000 C 
ATOM     13  O   UNL     1       2.980   8.902  17.441  0.00  0.00    +0.000 OA
ATOM     14  CA  UNL     1       3.950   3.515  17.244  0.00  0.00    +0.000 C 
ATOM     15  N   UNL     1       5.305   3.614  17.781  0.00  0.00    +0.000 N 
ATOM     16  H   UNL     1       5.503   2.978  18.554  0.00  0.00    +0.000 HD
ENDROOT
BRANCH   1  20
ATOM     17  C   UNL     1       9.155  11.223  18.195  0.00  0.00    +0.000 A 
ATOM     18  C   UNL     1       8.074  11.015  17.344  0.00  0.00    +0.000 A 
ATOM     19  C   UNL     1       7.446   9.767  17.294  0.00  0.00    +0.000 A 
ATOM     20  C   UNL     1       7.880   8.700  18.103  0.00  0.00    +0.000 A 
ATOM     21  C   UNL     1       8.982   8.929  18.945  0.00  0.00    +0.000 A 
ATOM     22  C   UNL     1       9.617  10.168  18.991  0.00  0.00    +0.000 A 
BRANCH  17  24
ATOM     23  N   UNL     1      10.312  13.536  18.316  0.00  0.00    +0.000 NA
ATOM     24  C   UNL     1       9.792  12.501  18.262  0.00  0.00    +0.000 C 
ENDBRANCH  17  24
ENDBRANCH   1  20
BRANCH  12  25
ATOM     25  C   UNL     1       1.691   8.760  19.481  0.00  0.00    +0.000 C 
ATOM     26  C   UNL     1       1.315   7.916  20.696  0.00  0.00    +0.000 C 
ATOM     27  C   UNL     1       0.857   8.905  21.793  0.00  0.00    +0.000 C 
ATOM     28  C   UNL     1      -0.249   9.868  21.318  0.00  0.00    +0.000 C 
ATOM     29  C   UNL     1       0.007  10.484  19.938  0.00  0.00    +0.000 C 
ATOM     30  C   UNL     1       0.416   9.408  18.940  0.00  0.00    +0.000 C 
ENDBRANCH  12  25
BRANCH  14  31
ATOM     31  C   UNL     1       3.390   2.096  17.512  0.00  0.00    +0.000 C 
BRANCH  31  32
ATOM     32  O   UNL     1       4.174   1.370  18.458  0.00  0.00    +0.000 OA
ATOM     33  H   UNL     1       3.899   0.438  18.411  0.00  0.00    +0.000 HD
ENDBRANCH  31  32
ENDBRANCH  14  31
TORSDOF 5
ENDMDL
MODEL 9
REMARK VINA RESULT:      -6.6      2.701      7.872
REMARK  Name = 
REMARK  5 active torsions:
REMARK  status: ('A' for Active; 'I' for Inactive)
REMARK    1  A    between atoms: C_2  and  C_3
REMARK    2  A    between atoms: C_6  and  C_7
REMARK    3  A    between atoms: C_18  and  C_20
REMARK    4  A    between atoms: CA_26  and  C_27
REMARK    5  A    between atoms: C_27  and  O_28
REMARK                            x       y       z     vdW  Elec       q    Type
REMARK                         _______ _______ _______ _____ _____    ______ ____
ROOT
ATOM      1  C   UNL     1      -2.270  14.740  21.395  0.00  0.00    +0.000 A 
ATOM      2  C   UNL     1      -1.771  15.920  21.955  0.00  0.00    +0.000 A 
ATOM      3  C   UNL     1      -0.626  16.538  21.440  0.00  0.00    +0.000 A 
ATOM      4  C   UNL     1       0.056  15.992  20.353  0.00  0.00    +0.000 A 
ATOM      5  C   UNL     1      -0.376  14.774  19.815  0.00  0.00    +0.000 A 
ATOM      6  C   UNL     1      -1.554  14.182  20.325  0.00  0.00    +0.000 A 
ATOM      7  C   UNL     1       0.396  14.078  18.716  0.00  0.00    +0.000 C 
ATOM      8  C   UNL     1       1.762  14.756  18.469  0.00  0.00    +0.000 C 
ATOM      9  C   UNL     1       2.679  14.099  19.504  0.00  0.00    +0.000 C 
ATOM     10  C   UNL     1       2.174  12.682  19.563  0.00  0.00    +0.000 C 
ATOM     11  N   UNL     1       0.794  12.704  19.088  0.00  0.00    +0.000 N 
ATOM     12  C   UNL     1       0.033  11.557  18.834  0.00  0.00    +0.000 C 
ATOM     13  O   UNL     1      -1.110  11.575  18.380  0.00  0.00    +0.000 OA
ATOM     14  CA  UNL     1       1.693  16.278  18.547  0.00  0.00    +0.000 C 
ATOM     15  N   UNL     1       1.110  16.724  19.810  0.00  0.00    +0.000 N 
ATOM     16  H   UNL     1       1.789  17.032  20.507  0.00  0.00    +0.000 HD
ENDROOT
BRANCH   1  20
ATOM     17  C   UNL     1      -5.816  12.803  22.899  0.00  0.00    +0.000 A 
ATOM     18  C   UNL     1      -5.510  12.751  21.543  0.00  0.00    +0.000 A 
ATOM     19  C   UNL     1      -4.367  13.391  21.053  0.00  0.00    +0.000 A 
ATOM     20  C   UNL     1      -3.497  14.088  21.914  0.00  0.00    +0.000 A 
ATOM     21  C   UNL     1      -3.833  14.137  23.277  0.00  0.00    +0.000 A 
ATOM     22  C   UNL     1      -4.976  13.511  23.768  0.00  0.00    +0.000 A 
BRANCH  17  24
ATOM     23  N   UNL     1      -7.916  11.601  23.819  0.00  0.00    +0.000 NA
ATOM     24  C   UNL     1      -6.974  12.139  23.409  0.00  0.00    +0.000 C 
ENDBRANCH  17  24
ENDBRANCH   1  20
BRANCH  12  25
ATOM     25  C   UNL     1       0.748  10.251  19.180  0.00  0.00    +0.000 C 
ATOM     26  C   UNL     1       1.083   9.221  18.105  0.00  0.00    +0.000 C 
ATOM     27  C   UNL     1       2.194   8.319  18.692  0.00  0.00    +0.000 C 
ATOM     28  C   UNL     1       1.826   7.716  20.062  0.00  0.00    +0.000 C 
ATOM     29  C   UNL     1       1.202   8.717  21.041  0.00  0.00    +0.000 C 
ATOM     30  C   UNL     1       0.100   9.518  20.356  0.00  0.00    +0.000 C 
ENDBRANCH  12  25
BRANCH  14  31
ATOM     31  C   UNL     1       3.065  16.966  18.339  0.00  0.00    +0.000 C 
BRANCH  31  32
ATOM     32  O   UNL     1       3.244  17.434  17.002  0.00  0.00    +0.000 OA
ATOM     33  H   UNL     1       3.318  16.653  16.428  0.00  0.00    +0.000 HD
ENDBRANCH  31  32
ENDBRANCH  14  31
TORSDOF 5
ENDMDL
