MODEL 1
REMARK VINA RESULT:      -7.9      0.000      0.000
REMARK  Name = 
REMARK  11 active torsions:
REMARK  status: ('A' for Active; 'I' for Inactive)
REMARK    1  A    between atoms: C_1  and  O_2
REMARK    2  A    between atoms: O_2  and  C_3
REMARK    3  A    between atoms: C_5  and  O_6
REMARK    4  A    between atoms: C_10  and  O_11
REMARK    5  A    between atoms: O_11  and  C_12
REMARK    6  A    between atoms: C_13  and  C_14
REMARK    7  A    between atoms: C_16  and  O_17
REMARK    8  A    between atoms: C_18  and  O_19
REMARK    9  A    between atoms: O_19  and  C_20
REMARK   10  A    between atoms: C_21  and  O_22
REMARK   11  A    between atoms: O_22  and  C_23
REMARK                            x       y       z     vdW  Elec       q    Type
REMARK                         _______ _______ _______ _____ _____    ______ ____
ROOT
ATOM      1  C   UNL     1       6.181   3.411  12.283  0.00  0.00    +0.000 A 
ATOM      2  C   UNL     1       7.254   4.298  12.340  0.00  0.00    +0.000 A 
ATOM      3  C   UNL     1       7.503   5.029  13.503  0.00  0.00    +0.000 A 
ATOM      4  C   UNL     1       6.675   4.886  14.624  0.00  0.00    +0.000 A 
ATOM      5  C   UNL     1       6.904   5.630  15.888  0.00  0.00    +0.000 A 
ATOM      6  O   UNL     1       7.854   6.388  16.007  0.00  0.00    +0.000 OA
ATOM      7  C   UNL     1       5.927   5.399  17.000  0.00  0.00    +0.000 A 
ATOM      8  C   UNL     1       4.931   4.521  16.766  0.00  0.00    +0.000 A 
ATOM      9  O   UNL     1       4.725   3.820  15.596  0.00  0.00    +0.000 OA
ATOM     10  C   UNL     1       5.590   4.018  14.553  0.00  0.00    +0.000 A 
ATOM     11  C   UNL     1       5.337   3.286  13.386  0.00  0.00    +0.000 A 
ENDROOT
BRANCH   8  12
ATOM     12  C   UNL     1       3.928   4.204  17.794  0.00  0.00    +0.000 A 
ATOM     13  C   UNL     1       3.478   2.892  17.945  0.00  0.00    +0.000 A 
ATOM     14  C   UNL     1       2.478   2.593  18.876  0.00  0.00    +0.000 A 
ATOM     15  C   UNL     1       1.923   3.599  19.683  0.00  0.00    +0.000 A 
ATOM     16  C   UNL     1       2.404   4.925  19.544  0.00  0.00    +0.000 A 
ATOM     17  C   UNL     1       3.400   5.215  18.602  0.00  0.00    +0.000 A 
BRANCH  14  18
ATOM     18  O   UNL     1       2.057   1.291  18.952  0.00  0.00    +0.000 OA
ATOM     19  H   UNL     1       1.344   1.144  18.311  0.00  0.00    +0.000 HD
ENDBRANCH  14  18
BRANCH  15  20
ATOM     20  O   UNL     1       0.931   3.445  20.622  0.00  0.00    +0.000 OA
ATOM     21  C   UNL     1       1.223   2.746  21.821  0.00  0.00    +0.000 C 
ENDBRANCH  15  20
BRANCH  16  22
ATOM     22  O   UNL     1       1.827   5.869  20.362  0.00  0.00    +0.000 OA
ATOM     23  C   UNL     1       2.048   7.238  20.050  0.00  0.00    +0.000 C 
ENDBRANCH  16  22
ENDBRANCH   8  12
BRANCH   1  25
ATOM     24  C   UNL     1       6.543   1.408  11.087  0.00  0.00    +0.000 C 
ATOM     25  O   UNL     1       5.859   2.657  11.187  0.00  0.00    +0.000 OA
ENDBRANCH   1  25
BRANCH   3  26
ATOM     26  O   UNL     1       8.570   5.882  13.512  0.00  0.00    +0.000 OA
ATOM     27  H   UNL     1       8.467   6.572  12.839  0.00  0.00    +0.000 HD
ENDBRANCH   3  26
BRANCH   7  28
ATOM     28  O   UNL     1       6.003   6.026  18.240  0.00  0.00    +0.000 OA
ATOM     29  C   UNL     1       6.984   5.577  19.165  0.00  0.00    +0.000 C 
ENDBRANCH   7  28
TORSDOF 7
ENDMDL
MODEL 2
REMARK VINA RESULT:      -7.2      1.345      2.245
REMARK  Name = 
REMARK  11 active torsions:
REMARK  status: ('A' for Active; 'I' for Inactive)
REMARK    1  A    between atoms: C_1  and  O_2
REMARK    2  A    between atoms: O_2  and  C_3
REMARK    3  A    between atoms: C_5  and  O_6
REMARK    4  A    between atoms: C_10  and  O_11
REMARK    5  A    between atoms: O_11  and  C_12
REMARK    6  A    between atoms: C_13  and  C_14
REMARK    7  A    between atoms: C_16  and  O_17
REMARK    8  A    between atoms: C_18  and  O_19
REMARK    9  A    between atoms: O_19  and  C_20
REMARK   10  A    between atoms: C_21  and  O_22
REMARK   11  A    between atoms: O_22  and  C_23
REMARK                            x       y       z     vdW  Elec       q    Type
REMARK                         _______ _______ _______ _____ _____    ______ ____
ROOT
ATOM      1  C   UNL     1       5.835   3.409  12.599  0.00  0.00    +0.000 A 
ATOM      2  C   UNL     1       6.908   4.288  12.479  0.00  0.00    +0.000 A 
ATOM      3  C   UNL     1       7.338   5.030  13.581  0.00  0.00    +0.000 A 
ATOM      4  C   UNL     1       6.691   4.906  14.818  0.00  0.00    +0.000 A 
ATOM      5  C   UNL     1       7.116   5.663  16.022  0.00  0.00    +0.000 A 
ATOM      6  O   UNL     1       8.078   6.415  15.984  0.00  0.00    +0.000 OA
ATOM      7  C   UNL     1       6.321   5.451  17.274  0.00  0.00    +0.000 A 
ATOM      8  C   UNL     1       5.296   4.578  17.207  0.00  0.00    +0.000 A 
ATOM      9  O   UNL     1       4.908   3.866  16.091  0.00  0.00    +0.000 OA
ATOM     10  C   UNL     1       5.603   4.045  14.925  0.00  0.00    +0.000 A 
ATOM     11  C   UNL     1       5.170   3.302  13.819  0.00  0.00    +0.000 A 
ENDROOT
BRANCH   8  12
ATOM     12  C   UNL     1       4.461   4.281  18.380  0.00  0.00    +0.000 A 
ATOM     13  C   UNL     1       3.356   5.082  18.669  0.00  0.00    +0.000 A 
ATOM     14  C   UNL     1       2.595   4.846  19.818  0.00  0.00    +0.000 A 
ATOM     15  C   UNL     1       2.916   3.793  20.689  0.00  0.00    +0.000 A 
ATOM     16  C   UNL     1       4.023   2.965  20.376  0.00  0.00    +0.000 A 
ATOM     17  C   UNL     1       4.784   3.216  19.227  0.00  0.00    +0.000 A 
BRANCH  14  18
ATOM     18  O   UNL     1       1.542   5.689  20.061  0.00  0.00    +0.000 OA
ATOM     19  H   UNL     1       0.972   5.304  20.746  0.00  0.00    +0.000 HD
ENDBRANCH  14  18
BRANCH  15  20
ATOM     20  O   UNL     1       2.264   3.461  21.853  0.00  0.00    +0.000 OA
ATOM     21  C   UNL     1       1.133   2.607  21.786  0.00  0.00    +0.000 C 
ENDBRANCH  15  20
BRANCH  16  22
ATOM     22  O   UNL     1       4.290   1.947  21.263  0.00  0.00    +0.000 OA
ATOM     23  C   UNL     1       5.239   0.962  20.873  0.00  0.00    +0.000 C 
ENDBRANCH  16  22
ENDBRANCH   8  12
BRANCH   1  25
ATOM     24  C   UNL     1       4.055   3.027  11.095  0.00  0.00    +0.000 C 
ATOM     25  O   UNL     1       5.344   2.645  11.574  0.00  0.00    +0.000 OA
ENDBRANCH   1  25
BRANCH   3  26
ATOM     26  O   UNL     1       8.398   5.876  13.415  0.00  0.00    +0.000 OA
ATOM     27  H   UNL     1       9.236   5.391  13.450  0.00  0.00    +0.000 HD
ENDBRANCH   3  26
BRANCH   7  28
ATOM     28  O   UNL     1       6.590   6.092  18.480  0.00  0.00    +0.000 OA
ATOM     29  C   UNL     1       7.738   5.691  19.216  0.00  0.00    +0.000 C 
ENDBRANCH   7  28
TORSDOF 7
ENDMDL
MODEL 3
REMARK VINA RESULT:      -7.0      2.857      5.764
REMARK  Name = 
REMARK  11 active torsions:
REMARK  status: ('A' for Active; 'I' for Inactive)
REMARK    1  A    between atoms: C_1  and  O_2
REMARK    2  A    between atoms: O_2  and  C_3
REMARK    3  A    between atoms: C_5  and  O_6
REMARK    4  A    between atoms: C_10  and  O_11
REMARK    5  A    between atoms: O_11  and  C_12
REMARK    6  A    between atoms: C_13  and  C_14
REMARK    7  A    between atoms: C_16  and  O_17
REMARK    8  A    between atoms: C_18  and  O_19
REMARK    9  A    between atoms: O_19  and  C_20
REMARK   10  A    between atoms: C_21  and  O_22
REMARK   11  A    between atoms: O_22  and  C_23
REMARK                            x       y       z     vdW  Elec       q    Type
REMARK                         _______ _______ _______ _____ _____    ______ ____
ROOT
ATOM      1  C   UNL     1       5.785   5.379  15.608  0.00  0.00    +0.000 A 
ATOM      2  C   UNL     1       5.646   4.063  16.042  0.00  0.00    +0.000 A 
ATOM      3  C   UNL     1       4.762   3.751  17.077  0.00  0.00    +0.000 A 
ATOM      4  C   UNL     1       4.010   4.758  17.697  0.00  0.00    +0.000 A 
ATOM      5  C   UNL     1       3.048   4.478  18.792  0.00  0.00    +0.000 A 
ATOM      6  O   UNL     1       2.855   3.337  19.182  0.00  0.00    +0.000 OA
ATOM      7  C   UNL     1       2.327   5.652  19.382  0.00  0.00    +0.000 A 
ATOM      8  C   UNL     1       2.600   6.863  18.856  0.00  0.00    +0.000 A 
ATOM      9  O   UNL     1       3.484   7.122  17.829  0.00  0.00    +0.000 OA
ATOM     10  C   UNL     1       4.172   6.075  17.277  0.00  0.00    +0.000 A 
ATOM     11  C   UNL     1       5.060   6.389  16.241  0.00  0.00    +0.000 A 
ENDROOT
BRANCH   8  12
ATOM     12  C   UNL     1       1.935   8.080  19.345  0.00  0.00    +0.000 A 
ATOM     13  C   UNL     1       1.489   9.042  18.437  0.00  0.00    +0.000 A 
ATOM     14  C   UNL     1       0.915  10.232  18.895  0.00  0.00    +0.000 A 
ATOM     15  C   UNL     1       0.762  10.472  20.270  0.00  0.00    +0.000 A 
ATOM     16  C   UNL     1       1.191   9.481  21.186  0.00  0.00    +0.000 A 
ATOM     17  C   UNL     1       1.773   8.296  20.716  0.00  0.00    +0.000 A 
BRANCH  14  18
ATOM     18  O   UNL     1       0.528  11.148  17.953  0.00  0.00    +0.000 OA
ATOM     19  H   UNL     1       1.143  11.899  17.961  0.00  0.00    +0.000 HD
ENDBRANCH  14  18
BRANCH  15  20
ATOM     20  O   UNL     1       0.229  11.598  20.853  0.00  0.00    +0.000 OA
ATOM     21  C   UNL     1       1.018  12.774  20.920  0.00  0.00    +0.000 C 
ENDBRANCH  15  20
BRANCH  16  22
ATOM     22  O   UNL     1       1.014   9.768  22.520  0.00  0.00    +0.000 OA
ATOM     23  C   UNL     1      -0.211   9.373  23.125  0.00  0.00    +0.000 C 
ENDBRANCH  16  22
ENDBRANCH   8  12
BRANCH   1  25
ATOM     24  C   UNL     1       6.981   4.760  13.669  0.00  0.00    +0.000 C 
ATOM     25  O   UNL     1       6.627   5.778  14.605  0.00  0.00    +0.000 OA
ENDBRANCH   1  25
BRANCH   3  26
ATOM     26  O   UNL     1       4.657   2.446  17.463  0.00  0.00    +0.000 OA
ATOM     27  H   UNL     1       5.512   1.995  17.398  0.00  0.00    +0.000 HD
ENDBRANCH   3  26
BRANCH   7  28
ATOM     28  O   UNL     1       1.402   5.553  20.417  0.00  0.00    +0.000 OA
ATOM     29  C   UNL     1       0.715   4.322  20.592  0.00  0.00    +0.000 C 
ENDBRANCH   7  28
TORSDOF 7
ENDMDL
MODEL 4
REMARK VINA RESULT:      -7.0      4.089      8.208
REMARK  Name = 
REMARK  11 active torsions:
REMARK  status: ('A' for Active; 'I' for Inactive)
REMARK    1  A    between atoms: C_1  and  O_2
REMARK    2  A    between atoms: O_2  and  C_3
REMARK    3  A    between atoms: C_5  and  O_6
REMARK    4  A    between atoms: C_10  and  O_11
REMARK    5  A    between atoms: O_11  and  C_12
REMARK    6  A    between atoms: C_13  and  C_14
REMARK    7  A    between atoms: C_16  and  O_17
REMARK    8  A    between atoms: C_18  and  O_19
REMARK    9  A    between atoms: O_19  and  C_20
REMARK   10  A    between atoms: C_21  and  O_22
REMARK   11  A    between atoms: O_22  and  C_23
REMARK                            x       y       z     vdW  Elec       q    Type
REMARK                         _______ _______ _______ _____ _____    ______ ____
ROOT
ATOM      1  C   UNL     1      -0.084  10.374  22.069  0.00  0.00    +0.000 A 
ATOM      2  C   UNL     1       0.010  11.294  21.028  0.00  0.00    +0.000 A 
ATOM      3  C   UNL     1       0.638  10.944  19.831  0.00  0.00    +0.000 A 
ATOM      4  C   UNL     1       1.189   9.666  19.665  0.00  0.00    +0.000 A 
ATOM      5  C   UNL     1       1.856   9.240  18.410  0.00  0.00    +0.000 A 
ATOM      6  O   UNL     1       1.928   9.992  17.450  0.00  0.00    +0.000 OA
ATOM      7  C   UNL     1       2.421   7.852  18.376  0.00  0.00    +0.000 A 
ATOM      8  C   UNL     1       2.261   7.101  19.484  0.00  0.00    +0.000 A 
ATOM      9  O   UNL     1       1.631   7.492  20.647  0.00  0.00    +0.000 OA
ATOM     10  C   UNL     1       1.115   8.759  20.718  0.00  0.00    +0.000 A 
ATOM     11  C   UNL     1       0.487   9.111  21.920  0.00  0.00    +0.000 A 
ENDROOT
BRANCH   8  12
ATOM     12  C   UNL     1       2.759   5.719  19.555  0.00  0.00    +0.000 A 
ATOM     13  C   UNL     1       4.127   5.465  19.432  0.00  0.00    +0.000 A 
ATOM     14  C   UNL     1       4.602   4.151  19.432  0.00  0.00    +0.000 A 
ATOM     15  C   UNL     1       3.720   3.068  19.573  0.00  0.00    +0.000 A 
ATOM     16  C   UNL     1       2.336   3.332  19.725  0.00  0.00    +0.000 A 
ATOM     17  C   UNL     1       1.869   4.653  19.714  0.00  0.00    +0.000 A 
BRANCH  14  18
ATOM     18  O   UNL     1       5.951   3.969  19.276  0.00  0.00    +0.000 OA
ATOM     19  H   UNL     1       6.429   4.656  19.768  0.00  0.00    +0.000 HD
ENDBRANCH  14  18
BRANCH  15  20
ATOM     20  O   UNL     1       4.052   1.733  19.577  0.00  0.00    +0.000 OA
ATOM     21  C   UNL     1       4.063   1.026  18.347  0.00  0.00    +0.000 C 
ENDBRANCH  15  20
BRANCH  16  22
ATOM     22  O   UNL     1       1.519   2.234  19.862  0.00  0.00    +0.000 OA
ATOM     23  C   UNL     1       0.508   2.035  18.883  0.00  0.00    +0.000 C 
ENDBRANCH  16  22
ENDBRANCH   8  12
BRANCH   1  25
ATOM     24  C   UNL     1      -1.671  11.654  23.259  0.00  0.00    +0.000 C 
ATOM     25  O   UNL     1      -0.677  10.630  23.276  0.00  0.00    +0.000 OA
ENDBRANCH   1  25
BRANCH   3  26
ATOM     26  O   UNL     1       0.700  11.879  18.838  0.00  0.00    +0.000 OA
ATOM     27  H   UNL     1       0.380  11.515  17.999  0.00  0.00    +0.000 HD
ENDBRANCH   3  26
BRANCH   7  28
ATOM     28  O   UNL     1       3.080   7.311  17.277  0.00  0.00    +0.000 OA
ATOM     29  C   UNL     1       4.448   7.642  17.080  0.00  0.00    +0.000 C 
ENDBRANCH   7  28
TORSDOF 7
ENDMDL
MODEL 5
REMARK VINA RESULT:      -6.9      3.914      8.244
REMARK  Name = 
REMARK  11 active torsions:
REMARK  status: ('A' for Active; 'I' for Inactive)
REMARK    1  A    between atoms: C_1  and  O_2
REMARK    2  A    between atoms: O_2  and  C_3
REMARK    3  A    between atoms: C_5  and  O_6
REMARK    4  A    between atoms: C_10  and  O_11
REMARK    5  A    between atoms: O_11  and  C_12
REMARK    6  A    between atoms: C_13  and  C_14
REMARK    7  A    between atoms: C_16  and  O_17
REMARK    8  A    between atoms: C_18  and  O_19
REMARK    9  A    between atoms: O_19  and  C_20
REMARK   10  A    between atoms: C_21  and  O_22
REMARK   11  A    between atoms: O_22  and  C_23
REMARK                            x       y       z     vdW  Elec       q    Type
REMARK                         _______ _______ _______ _____ _____    ______ ____
ROOT
ATOM      1  C   UNL     1      -0.149  10.473  22.121  0.00  0.00    +0.000 A 
ATOM      2  C   UNL     1      -0.063  11.391  21.078  0.00  0.00    +0.000 A 
ATOM      3  C   UNL     1       0.551  11.037  19.875  0.00  0.00    +0.000 A 
ATOM      4  C   UNL     1       1.095   9.757  19.704  0.00  0.00    +0.000 A 
ATOM      5  C   UNL     1       1.746   9.327  18.443  0.00  0.00    +0.000 A 
ATOM      6  O   UNL     1       1.811  10.077  17.481  0.00  0.00    +0.000 OA
ATOM      7  C   UNL     1       2.306   7.937  18.405  0.00  0.00    +0.000 A 
ATOM      8  C   UNL     1       2.155   7.188  19.516  0.00  0.00    +0.000 A 
ATOM      9  O   UNL     1       1.539   7.583  20.685  0.00  0.00    +0.000 OA
ATOM     10  C   UNL     1       1.029   8.851  20.759  0.00  0.00    +0.000 A 
ATOM     11  C   UNL     1       0.415   9.207  21.968  0.00  0.00    +0.000 A 
ENDROOT
BRANCH   8  12
ATOM     12  C   UNL     1       2.649   5.804  19.582  0.00  0.00    +0.000 A 
ATOM     13  C   UNL     1       1.782   4.772  19.946  0.00  0.00    +0.000 A 
ATOM     14  C   UNL     1       2.257   3.464  20.075  0.00  0.00    +0.000 A 
ATOM     15  C   UNL     1       3.605   3.162  19.824  0.00  0.00    +0.000 A 
ATOM     16  C   UNL     1       4.475   4.208  19.429  0.00  0.00    +0.000 A 
ATOM     17  C   UNL     1       3.990   5.517  19.312  0.00  0.00    +0.000 A 
BRANCH  14  18
ATOM     18  O   UNL     1       1.362   2.504  20.466  0.00  0.00    +0.000 OA
ATOM     19  H   UNL     1       1.789   1.901  21.096  0.00  0.00    +0.000 HD
ENDBRANCH  14  18
BRANCH  15  20
ATOM     20  O   UNL     1       4.204   1.928  19.926  0.00  0.00    +0.000 OA
ATOM     21  C   UNL     1       4.033   0.994  18.872  0.00  0.00    +0.000 C 
ENDBRANCH  15  20
BRANCH  16  22
ATOM     22  O   UNL     1       5.784   3.854  19.194  0.00  0.00    +0.000 OA
ATOM     23  C   UNL     1       6.562   4.707  18.364  0.00  0.00    +0.000 C 
ENDBRANCH  16  22
ENDBRANCH   8  12
BRANCH   1  25
ATOM     24  C   UNL     1      -1.891  11.559  23.287  0.00  0.00    +0.000 C 
ATOM     25  O   UNL     1      -0.729  10.733  23.334  0.00  0.00    +0.000 OA
ENDBRANCH   1  25
BRANCH   3  26
ATOM     26  O   UNL     1       0.606  11.970  18.880  0.00  0.00    +0.000 OA
ATOM     27  H   UNL     1       0.087  12.755  19.112  0.00  0.00    +0.000 HD
ENDBRANCH   3  26
BRANCH   7  28
ATOM     28  O   UNL     1       2.952   7.391  17.299  0.00  0.00    +0.000 OA
ATOM     29  C   UNL     1       4.320   7.713  17.090  0.00  0.00    +0.000 C 
ENDBRANCH   7  28
TORSDOF 7
ENDMDL
MODEL 6
REMARK VINA RESULT:      -6.9      1.397      1.901
REMARK  Name = 
REMARK  11 active torsions:
REMARK  status: ('A' for Active; 'I' for Inactive)
REMARK    1  A    between atoms: C_1  and  O_2
REMARK    2  A    between atoms: O_2  and  C_3
REMARK    3  A    between atoms: C_5  and  O_6
REMARK    4  A    between atoms: C_10  and  O_11
REMARK    5  A    between atoms: O_11  and  C_12
REMARK    6  A    between atoms: C_13  and  C_14
REMARK    7  A    between atoms: C_16  and  O_17
REMARK    8  A    between atoms: C_18  and  O_19
REMARK    9  A    between atoms: O_19  and  C_20
REMARK   10  A    between atoms: C_21  and  O_22
REMARK   11  A    between atoms: O_22  and  C_23
REMARK                            x       y       z     vdW  Elec       q    Type
REMARK                         _______ _______ _______ _____ _____    ______ ____
ROOT
ATOM      1  C   UNL     1       6.550   3.412  12.114  0.00  0.00    +0.000 A 
ATOM      2  C   UNL     1       7.489   4.435  12.222  0.00  0.00    +0.000 A 
ATOM      3  C   UNL     1       7.645   5.124  13.427  0.00  0.00    +0.000 A 
ATOM      4  C   UNL     1       6.855   4.802  14.538  0.00  0.00    +0.000 A 
ATOM      5  C   UNL     1       6.990   5.496  15.843  0.00  0.00    +0.000 A 
ATOM      6  O   UNL     1       7.827   6.371  16.006  0.00  0.00    +0.000 OA
ATOM      7  C   UNL     1       6.066   5.067  16.941  0.00  0.00    +0.000 A 
ATOM      8  C   UNL     1       5.199   4.074  16.656  0.00  0.00    +0.000 A 
ATOM      9  O   UNL     1       5.081   3.420  15.447  0.00  0.00    +0.000 OA
ATOM     10  C   UNL     1       5.900   3.797  14.417  0.00  0.00    +0.000 A 
ATOM     11  C   UNL     1       5.741   3.106  13.208  0.00  0.00    +0.000 A 
ENDROOT
BRANCH   8  12
ATOM     12  C   UNL     1       4.259   3.561  17.665  0.00  0.00    +0.000 A 
ATOM     13  C   UNL     1       2.885   3.609  17.424  0.00  0.00    +0.000 A 
ATOM     14  C   UNL     1       1.982   3.184  18.403  0.00  0.00    +0.000 A 
ATOM     15  C   UNL     1       2.439   2.686  19.634  0.00  0.00    +0.000 A 
ATOM     16  C   UNL     1       3.836   2.614  19.862  0.00  0.00    +0.000 A 
ATOM     17  C   UNL     1       4.732   3.051  18.878  0.00  0.00    +0.000 A 
BRANCH  14  18
ATOM     18  O   UNL     1       0.647   3.287  18.116  0.00  0.00    +0.000 OA
ATOM     19  H   UNL     1       0.366   2.514  17.601  0.00  0.00    +0.000 HD
ENDBRANCH  14  18
BRANCH  15  20
ATOM     20  O   UNL     1       1.664   2.250  20.682  0.00  0.00    +0.000 OA
ATOM     21  C   UNL     1       1.409   3.135  21.761  0.00  0.00    +0.000 C 
ENDBRANCH  15  20
BRANCH  16  22
ATOM     22  O   UNL     1       4.226   2.116  21.084  0.00  0.00    +0.000 OA
ATOM     23  C   UNL     1       5.255   1.134  21.100  0.00  0.00    +0.000 C 
ENDBRANCH  16  22
ENDBRANCH   8  12
BRANCH   1  25
ATOM     24  C   UNL     1       6.693   1.309  11.052  0.00  0.00    +0.000 C 
ATOM     25  O   UNL     1       6.326   2.686  10.976  0.00  0.00    +0.000 OA
ENDBRANCH   1  25
BRANCH   3  26
ATOM     26  O   UNL     1       8.583   6.116  13.484  0.00  0.00    +0.000 OA
ATOM     27  H   UNL     1       9.462   5.774  13.263  0.00  0.00    +0.000 HD
ENDBRANCH   3  26
BRANCH   7  28
ATOM     28  O   UNL     1       6.064   5.625  18.216  0.00  0.00    +0.000 OA
ATOM     29  C   UNL     1       7.265   5.577  18.975  0.00  0.00    +0.000 C 
ENDBRANCH   7  28
TORSDOF 7
ENDMDL
MODEL 7
REMARK VINA RESULT:      -6.8      0.780      2.082
REMARK  Name = 
REMARK  11 active torsions:
REMARK  status: ('A' for Active; 'I' for Inactive)
REMARK    1  A    between atoms: C_1  and  O_2
REMARK    2  A    between atoms: O_2  and  C_3
REMARK    3  A    between atoms: C_5  and  O_6
REMARK    4  A    between atoms: C_10  and  O_11
REMARK    5  A    between atoms: O_11  and  C_12
REMARK    6  A    between atoms: C_13  and  C_14
REMARK    7  A    between atoms: C_16  and  O_17
REMARK    8  A    between atoms: C_18  and  O_19
REMARK    9  A    between atoms: O_19  and  C_20
REMARK   10  A    between atoms: C_21  and  O_22
REMARK   11  A    between atoms: O_22  and  C_23
REMARK                            x       y       z     vdW  Elec       q    Type
REMARK                         _______ _______ _______ _____ _____    ______ ____
ROOT
ATOM      1  C   UNL     1       5.952   3.623  12.381  0.00  0.00    +0.000 A 
ATOM      2  C   UNL     1       7.108   4.400  12.403  0.00  0.00    +0.000 A 
ATOM      3  C   UNL     1       7.460   5.107  13.555  0.00  0.00    +0.000 A 
ATOM      4  C   UNL     1       6.652   5.052  14.699  0.00  0.00    +0.000 A 
ATOM      5  C   UNL     1       6.988   5.775  15.950  0.00  0.00    +0.000 A 
ATOM      6  O   UNL     1       8.011   6.436  16.039  0.00  0.00    +0.000 OA
ATOM      7  C   UNL     1       6.023   5.646  17.090  0.00  0.00    +0.000 A 
ATOM      8  C   UNL     1       4.940   4.870  16.888  0.00  0.00    +0.000 A 
ATOM      9  O   UNL     1       4.633   4.188  15.729  0.00  0.00    +0.000 OA
ATOM     10  C   UNL     1       5.485   4.294  14.662  0.00  0.00    +0.000 A 
ATOM     11  C   UNL     1       5.130   3.586  13.507  0.00  0.00    +0.000 A 
ENDROOT
BRANCH   8  12
ATOM     12  C   UNL     1       3.939   4.658  17.944  0.00  0.00    +0.000 A 
ATOM     13  C   UNL     1       3.598   5.706  18.801  0.00  0.00    +0.000 A 
ATOM     14  C   UNL     1       2.696   5.496  19.848  0.00  0.00    +0.000 A 
ATOM     15  C   UNL     1       2.105   4.238  20.046  0.00  0.00    +0.000 A 
ATOM     16  C   UNL     1       2.434   3.185  19.157  0.00  0.00    +0.000 A 
ATOM     17  C   UNL     1       3.346   3.403  18.117  0.00  0.00    +0.000 A 
BRANCH  14  18
ATOM     18  O   UNL     1       2.428   6.558  20.672  0.00  0.00    +0.000 OA
ATOM     19  H   UNL     1       2.094   6.231  21.522  0.00  0.00    +0.000 HD
ENDBRANCH  14  18
BRANCH  15  20
ATOM     20  O   UNL     1       1.218   3.894  21.039  0.00  0.00    +0.000 OA
ATOM     21  C   UNL     1       1.642   3.005  22.059  0.00  0.00    +0.000 C 
ENDBRANCH  15  20
BRANCH  16  22
ATOM     22  O   UNL     1       1.824   1.975  19.397  0.00  0.00    +0.000 OA
ATOM     23  C   UNL     1       0.610   1.698  18.710  0.00  0.00    +0.000 C 
ENDBRANCH  16  22
ENDBRANCH   8  12
BRANCH   1  25
ATOM     24  C   UNL     1       4.113   2.862  11.111  0.00  0.00    +0.000 C 
ATOM     25  O   UNL     1       5.527   2.900  11.299  0.00  0.00    +0.000 OA
ENDBRANCH   1  25
BRANCH   3  26
ATOM     26  O   UNL     1       8.605   5.851  13.529  0.00  0.00    +0.000 OA
ATOM     27  H   UNL     1       9.388   5.281  13.546  0.00  0.00    +0.000 HD
ENDBRANCH   3  26
BRANCH   7  28
ATOM     28  O   UNL     1       6.194   6.268  18.323  0.00  0.00    +0.000 OA
ATOM     29  C   UNL     1       7.190   5.763  19.201  0.00  0.00    +0.000 C 
ENDBRANCH   7  28
TORSDOF 7
ENDMDL
MODEL 8
REMARK VINA RESULT:      -6.8      2.819      5.703
REMARK  Name = 
REMARK  11 active torsions:
REMARK  status: ('A' for Active; 'I' for Inactive)
REMARK    1  A    between atoms: C_1  and  O_2
REMARK    2  A    between atoms: O_2  and  C_3
REMARK    3  A    between atoms: C_5  and  O_6
REMARK    4  A    between atoms: C_10  and  O_11
REMARK    5  A    between atoms: O_11  and  C_12
REMARK    6  A    between atoms: C_13  and  C_14
REMARK    7  A    between atoms: C_16  and  O_17
REMARK    8  A    between atoms: C_18  and  O_19
REMARK    9  A    between atoms: O_19  and  C_20
REMARK   10  A    between atoms: C_21  and  O_22
REMARK   11  A    between atoms: O_22  and  C_23
REMARK                            x       y       z     vdW  Elec       q    Type
REMARK                         _______ _______ _______ _____ _____    ______ ____
ROOT
ATOM      1  C   UNL     1       5.714   5.398  15.599  0.00  0.00    +0.000 A 
ATOM      2  C   UNL     1       5.605   4.068  15.997  0.00  0.00    +0.000 A 
ATOM      3  C   UNL     1       4.749   3.712  17.042  0.00  0.00    +0.000 A 
ATOM      4  C   UNL     1       3.995   4.689  17.707  0.00  0.00    +0.000 A 
ATOM      5  C   UNL     1       3.063   4.362  18.814  0.00  0.00    +0.000 A 
ATOM      6  O   UNL     1       2.896   3.207  19.175  0.00  0.00    +0.000 OA
ATOM      7  C   UNL     1       2.336   5.506  19.452  0.00  0.00    +0.000 A 
ATOM      8  C   UNL     1       2.578   6.736  18.955  0.00  0.00    +0.000 A 
ATOM      9  O   UNL     1       3.436   7.039  17.918  0.00  0.00    +0.000 OA
ATOM     10  C   UNL     1       4.127   6.019  17.322  0.00  0.00    +0.000 A 
ATOM     11  C   UNL     1       4.988   6.377  16.276  0.00  0.00    +0.000 A 
ENDROOT
BRANCH   8  12
ATOM     12  C   UNL     1       1.905   7.928  19.493  0.00  0.00    +0.000 A 
ATOM     13  C   UNL     1       1.880   8.151  20.871  0.00  0.00    +0.000 A 
ATOM     14  C   UNL     1       1.188   9.246  21.396  0.00  0.00    +0.000 A 
ATOM     15  C   UNL     1       0.524  10.148  20.550  0.00  0.00    +0.000 A 
ATOM     16  C   UNL     1       0.575   9.933  19.150  0.00  0.00    +0.000 A 
ATOM     17  C   UNL     1       1.264   8.827  18.635  0.00  0.00    +0.000 A 
BRANCH  14  18
ATOM     18  O   UNL     1       1.175   9.390  22.758  0.00  0.00    +0.000 OA
ATOM     19  H   UNL     1       0.258   9.384  23.075  0.00  0.00    +0.000 HD
ENDBRANCH  14  18
BRANCH  15  20
ATOM     20  O   UNL     1      -0.201  11.253  20.933  0.00  0.00    +0.000 OA
ATOM     21  C   UNL     1       0.490  12.448  21.256  0.00  0.00    +0.000 C 
ENDBRANCH  15  20
BRANCH  16  22
ATOM     22  O   UNL     1      -0.091  10.850  18.369  0.00  0.00    +0.000 OA
ATOM     23  C   UNL     1      -1.337  10.459  17.808  0.00  0.00    +0.000 C 
ENDBRANCH  16  22
ENDBRANCH   8  12
BRANCH   1  25
ATOM     24  C   UNL     1       7.093   4.813  13.775  0.00  0.00    +0.000 C 
ATOM     25  O   UNL     1       6.528   5.838  14.590  0.00  0.00    +0.000 OA
ENDBRANCH   1  25
BRANCH   3  26
ATOM     26  O   UNL     1       4.673   2.395  17.393  0.00  0.00    +0.000 OA
ATOM     27  H   UNL     1       4.971   1.825  16.668  0.00  0.00    +0.000 HD
ENDBRANCH   3  26
BRANCH   7  28
ATOM     28  O   UNL     1       1.436   5.363  20.504  0.00  0.00    +0.000 OA
ATOM     29  C   UNL     1       0.663   4.172  20.573  0.00  0.00    +0.000 C 
ENDBRANCH   7  28
TORSDOF 7
ENDMDL
MODEL 9
REMARK VINA RESULT:      -6.7      3.819      6.714
REMARK  Name = 
REMARK  11 active torsions:
REMARK  status: ('A' for Active; 'I' for Inactive)
REMARK    1  A    between atoms: C_1  and  O_2
REMARK    2  A    between atoms: O_2  and  C_3
REMARK    3  A    between atoms: C_5  and  O_6
REMARK    4  A    between atoms: C_10  and  O_11
REMARK    5  A    between atoms: O_11  and  C_12
REMARK    6  A    between atoms: C_13  and  C_14
REMARK    7  A    between atoms: C_16  and  O_17
REMARK    8  A    between atoms: C_18  and  O_19
REMARK    9  A    between atoms: O_19  and  C_20
REMARK   10  A    between atoms: C_21  and  O_22
REMARK   11  A    between atoms: O_22  and  C_23
REMARK                            x       y       z     vdW  Elec       q    Type
REMARK                         _______ _______ _______ _____ _____    ______ ____
ROOT
ATOM      1  C   UNL     1       5.673   5.679  16.222  0.00  0.00    +0.000 A 
ATOM      2  C   UNL     1       5.660   4.685  17.198  0.00  0.00    +0.000 A 
ATOM      3  C   UNL     1       4.794   4.780  18.289  0.00  0.00    +0.000 A 
ATOM      4  C   UNL     1       3.932   5.878  18.421  0.00  0.00    +0.000 A 
ATOM      5  C   UNL     1       2.985   6.020  19.553  0.00  0.00    +0.000 A 
ATOM      6  O   UNL     1       2.901   5.157  20.415  0.00  0.00    +0.000 OA
ATOM      7  C   UNL     1       2.138   7.255  19.582  0.00  0.00    +0.000 A 
ATOM      8  C   UNL     1       2.295   8.127  18.565  0.00  0.00    +0.000 A 
ATOM      9  O   UNL     1       3.168   7.990  17.505  0.00  0.00    +0.000 OA
ATOM     10  C   UNL     1       3.967   6.880  17.455  0.00  0.00    +0.000 A 
ATOM     11  C   UNL     1       4.839   6.787  16.362  0.00  0.00    +0.000 A 
ENDROOT
BRANCH   8  12
ATOM     12  C   UNL     1       1.503   9.363  18.482  0.00  0.00    +0.000 A 
ATOM     13  C   UNL     1       2.120  10.600  18.676  0.00  0.00    +0.000 A 
ATOM     14  C   UNL     1       1.362  11.775  18.663  0.00  0.00    +0.000 A 
ATOM     15  C   UNL     1      -0.023  11.735  18.439  0.00  0.00    +0.000 A 
ATOM     16  C   UNL     1      -0.640  10.478  18.217  0.00  0.00    +0.000 A 
ATOM     17  C   UNL     1       0.127   9.306  18.240  0.00  0.00    +0.000 A 
BRANCH  14  18
ATOM     18  O   UNL     1       2.024  12.953  18.891  0.00  0.00    +0.000 OA
ATOM     19  H   UNL     1       2.909  12.764  19.242  0.00  0.00    +0.000 HD
ENDBRANCH  14  18
BRANCH  15  20
ATOM     20  O   UNL     1      -0.883  12.807  18.415  0.00  0.00    +0.000 OA
ATOM     21  C   UNL     1      -1.236  13.431  19.639  0.00  0.00    +0.000 C 
ENDBRANCH  15  20
BRANCH  16  22
ATOM     22  O   UNL     1      -1.999  10.499  18.000  0.00  0.00    +0.000 OA
ATOM     23  C   UNL     1      -2.470  10.109  16.717  0.00  0.00    +0.000 C 
ENDBRANCH  16  22
ENDBRANCH   8  12
BRANCH   1  25
ATOM     24  C   UNL     1       6.668   4.396  14.509  0.00  0.00    +0.000 C 
ATOM     25  O   UNL     1       6.489   5.671  15.123  0.00  0.00    +0.000 OA
ENDBRANCH   1  25
BRANCH   3  26
ATOM     26  O   UNL     1       4.815   3.779  19.218  0.00  0.00    +0.000 OA
ATOM     27  H   UNL     1       4.604   2.924  18.811  0.00  0.00    +0.000 HD
ENDBRANCH   3  26
BRANCH   7  28
ATOM     28  O   UNL     1       1.209   7.536  20.580  0.00  0.00    +0.000 OA
ATOM     29  C   UNL     1       1.580   8.441  21.611  0.00  0.00    +0.000 C 
ENDBRANCH   7  28
TORSDOF 7
ENDMDL
