MODEL 1
REMARK VINA RESULT:      -6.5      0.000      0.000
REMARK  Name = 
REMARK  5 active torsions:
REMARK  status: ('A' for Active; 'I' for Inactive)
REMARK    1  A    between atoms: C_2  and  C_4
REMARK    2  A    between atoms: N_8  and  C_9
REMARK    3  A    between atoms: C_9  and  C_10
REMARK    4  A    between atoms: C_10  and  C_11
REMARK    5  A    between atoms: C_11  and  N_12
REMARK                            x       y       z     vdW  Elec       q    Type
REMARK                         _______ _______ _______ _____ _____    ______ ____
ROOT
ATOM      1  C   UNL     1       2.555   3.253  19.553  0.00  0.00    +0.000 A 
ATOM      2  N   UNL     1       2.708   4.492  19.973  0.00  0.00    +0.000 NA
ATOM      3  N   UNL     1       3.996   4.947  19.779  0.00  0.00    +0.000 NA
ATOM      4  C   UNL     1       4.781   4.050  19.220  0.00  0.00    +0.000 A 
ATOM      5  N   UNL     1       6.082   4.218  18.899  0.00  0.00    +0.000 N 
ATOM      6  S   UNL     1       3.983   2.556  18.901  0.00  0.00    +0.000 S 
ATOM      7  H   UNL     1       6.627   3.440  18.549  0.00  0.00    +0.000 HD
ENDROOT
BRANCH   1   9
ATOM      8  F   UNL     1       0.259   3.228  20.113  0.00  0.00    +0.000 F 
ATOM      9  C   UNL     1       1.284   2.481  19.615  0.00  0.00    +0.000 C 
ATOM     10  F   UNL     1       0.884   2.066  18.380  0.00  0.00    +0.000 F 
ENDBRANCH   1   9
BRANCH   5  11
ATOM     11  C   UNL     1       6.777   5.451  19.207  0.00  0.00    +0.000 C 
BRANCH  11  12
ATOM     12  C   UNL     1       7.385   6.072  17.953  0.00  0.00    +0.000 C 
BRANCH  12  13
ATOM     13  C   UNL     1       6.287   6.441  16.960  0.00  0.00    +0.000 C 
BRANCH  13  14
ATOM     14  N   UNL     1       6.284   5.578  15.794  0.00  0.00    +0.000 N 
ATOM     15  C   UNL     1       5.293   4.720  15.412  0.00  0.00    +0.000 A 
ATOM     16  C   UNL     1       5.748   4.097  14.273  0.00  0.00    +0.000 A 
ATOM     17  C   UNL     1       7.025   4.643  14.055  0.00  0.00    +0.000 A 
ATOM     18  N   UNL     1       7.357   5.549  14.980  0.00  0.00    +0.000 NA
ENDBRANCH  13  14
ENDBRANCH  12  13
ENDBRANCH  11  12
ENDBRANCH   5  11
TORSDOF 5
ENDMDL
MODEL 2
REMARK VINA RESULT:      -6.4      0.945      1.058
REMARK  Name = 
REMARK  5 active torsions:
REMARK  status: ('A' for Active; 'I' for Inactive)
REMARK    1  A    between atoms: C_2  and  C_4
REMARK    2  A    between atoms: N_8  and  C_9
REMARK    3  A    between atoms: C_9  and  C_10
REMARK    4  A    between atoms: C_10  and  C_11
REMARK    5  A    between atoms: C_11  and  N_12
REMARK                            x       y       z     vdW  Elec       q    Type
REMARK                         _______ _______ _______ _____ _____    ______ ____
ROOT
ATOM      1  C   UNL     1       2.400   3.863  19.300  0.00  0.00    +0.000 A 
ATOM      2  N   UNL     1       2.587   5.163  19.194  0.00  0.00    +0.000 NA
ATOM      3  N   UNL     1       3.926   5.494  19.223  0.00  0.00    +0.000 NA
ATOM      4  C   UNL     1       4.714   4.447  19.348  0.00  0.00    +0.000 A 
ATOM      5  N   UNL     1       6.064   4.465  19.389  0.00  0.00    +0.000 N 
ATOM      6  S   UNL     1       3.852   2.959  19.453  0.00  0.00    +0.000 S 
ATOM      7  H   UNL     1       6.582   3.615  19.573  0.00  0.00    +0.000 HD
ENDROOT
BRANCH   1   9
ATOM      8  F   UNL     1       0.463   3.277  18.079  0.00  0.00    +0.000 F 
ATOM      9  C   UNL     1       1.073   3.188  19.294  0.00  0.00    +0.000 C 
ATOM     10  F   UNL     1       1.182   1.857  19.565  0.00  0.00    +0.000 F 
ENDBRANCH   1   9
BRANCH   5  11
ATOM     11  C   UNL     1       6.799   5.713  19.351  0.00  0.00    +0.000 C 
BRANCH  11  12
ATOM     12  C   UNL     1       7.586   5.853  18.052  0.00  0.00    +0.000 C 
BRANCH  12  13
ATOM     13  C   UNL     1       7.699   4.500  17.355  0.00  0.00    +0.000 C 
BRANCH  13  14
ATOM     14  N   UNL     1       7.084   4.503  16.041  0.00  0.00    +0.000 N 
ATOM     15  C   UNL     1       5.941   3.856  15.670  0.00  0.00    +0.000 A 
ATOM     16  C   UNL     1       5.772   4.122  14.331  0.00  0.00    +0.000 A 
ATOM     17  C   UNL     1       6.869   4.930  13.987  0.00  0.00    +0.000 A 
ATOM     18  N   UNL     1       7.674   5.167  15.028  0.00  0.00    +0.000 NA
ENDBRANCH  13  14
ENDBRANCH  12  13
ENDBRANCH  11  12
ENDBRANCH   5  11
TORSDOF 5
ENDMDL
MODEL 3
REMARK VINA RESULT:      -6.4      4.024      6.621
REMARK  Name = 
REMARK  5 active torsions:
REMARK  status: ('A' for Active; 'I' for Inactive)
REMARK    1  A    between atoms: C_2  and  C_4
REMARK    2  A    between atoms: N_8  and  C_9
REMARK    3  A    between atoms: C_9  and  C_10
REMARK    4  A    between atoms: C_10  and  C_11
REMARK    5  A    between atoms: C_11  and  N_12
REMARK                            x       y       z     vdW  Elec       q    Type
REMARK                         _______ _______ _______ _____ _____    ______ ____
ROOT
ATOM      1  C   UNL     1       7.265   4.843  13.972  0.00  0.00    +0.000 A 
ATOM      2  N   UNL     1       7.736   5.445  15.045  0.00  0.00    +0.000 NA
ATOM      3  N   UNL     1       7.004   5.136  16.172  0.00  0.00    +0.000 NA
ATOM      4  C   UNL     1       6.005   4.314  15.929  0.00  0.00    +0.000 A 
ATOM      5  N   UNL     1       5.132   3.828  16.839  0.00  0.00    +0.000 N 
ATOM      6  S   UNL     1       5.886   3.865  14.269  0.00  0.00    +0.000 S 
ATOM      7  H   UNL     1       4.343   3.267  16.542  0.00  0.00    +0.000 HD
ENDROOT
BRANCH   1   9
ATOM      8  F   UNL     1       7.013   4.434  11.658  0.00  0.00    +0.000 F 
ATOM      9  C   UNL     1       7.837   4.966  12.604  0.00  0.00    +0.000 C 
ATOM     10  F   UNL     1       8.027   6.268  12.249  0.00  0.00    +0.000 F 
ENDBRANCH   1   9
BRANCH   5  11
ATOM     11  C   UNL     1       5.192   4.236  18.227  0.00  0.00    +0.000 C 
BRANCH  11  12
ATOM     12  C   UNL     1       4.281   5.432  18.492  0.00  0.00    +0.000 C 
BRANCH  12  13
ATOM     13  C   UNL     1       2.941   5.242  17.787  0.00  0.00    +0.000 C 
BRANCH  13  14
ATOM     14  N   UNL     1       2.111   4.245  18.437  0.00  0.00    +0.000 N 
ATOM     15  C   UNL     1       1.609   4.297  19.704  0.00  0.00    +0.000 A 
ATOM     16  C   UNL     1       0.917   3.122  19.887  0.00  0.00    +0.000 A 
ATOM     17  C   UNL     1       1.068   2.428  18.674  0.00  0.00    +0.000 A 
ATOM     18  N   UNL     1       1.796   3.109  17.784  0.00  0.00    +0.000 NA
ENDBRANCH  13  14
ENDBRANCH  12  13
ENDBRANCH  11  12
ENDBRANCH   5  11
TORSDOF 5
ENDMDL
MODEL 4
REMARK VINA RESULT:      -6.3      1.903      3.089
REMARK  Name = 
REMARK  5 active torsions:
REMARK  status: ('A' for Active; 'I' for Inactive)
REMARK    1  A    between atoms: C_2  and  C_4
REMARK    2  A    between atoms: N_8  and  C_9
REMARK    3  A    between atoms: C_9  and  C_10
REMARK    4  A    between atoms: C_10  and  C_11
REMARK    5  A    between atoms: C_11  and  N_12
REMARK                            x       y       z     vdW  Elec       q    Type
REMARK                         _______ _______ _______ _____ _____    ______ ____
ROOT
ATOM      1  C   UNL     1       2.701   3.029  20.053  0.00  0.00    +0.000 A 
ATOM      2  N   UNL     1       3.120   2.089  19.230  0.00  0.00    +0.000 NA
ATOM      3  N   UNL     1       3.628   2.617  18.061  0.00  0.00    +0.000 NA
ATOM      4  C   UNL     1       3.584   3.932  18.027  0.00  0.00    +0.000 A 
ATOM      5  N   UNL     1       4.024   4.719  17.021  0.00  0.00    +0.000 N 
ATOM      6  S   UNL     1       2.892   4.624  19.446  0.00  0.00    +0.000 S 
ATOM      7  H   UNL     1       3.869   5.720  17.049  0.00  0.00    +0.000 HD
ENDROOT
BRANCH   1   9
ATOM      8  F   UNL     1       2.432   3.770  22.280  0.00  0.00    +0.000 F 
ATOM      9  C   UNL     1       2.109   2.785  21.396  0.00  0.00    +0.000 C 
ATOM     10  F   UNL     1       0.747   2.753  21.350  0.00  0.00    +0.000 F 
ENDBRANCH   1   9
BRANCH   5  11
ATOM     11  C   UNL     1       4.561   4.149  15.803  0.00  0.00    +0.000 C 
BRANCH  11  12
ATOM     12  C   UNL     1       5.593   5.075  15.167  0.00  0.00    +0.000 C 
BRANCH  12  13
ATOM     13  C   UNL     1       6.991   4.741  15.680  0.00  0.00    +0.000 C 
BRANCH  13  14
ATOM     14  N   UNL     1       7.346   5.511  16.857  0.00  0.00    +0.000 N 
ATOM     15  C   UNL     1       7.495   5.041  18.129  0.00  0.00    +0.000 A 
ATOM     16  C   UNL     1       7.800   6.135  18.906  0.00  0.00    +0.000 A 
ATOM     17  C   UNL     1       7.804   7.217  18.009  0.00  0.00    +0.000 A 
ATOM     18  N   UNL     1       7.528   6.842  16.756  0.00  0.00    +0.000 NA
ENDBRANCH  13  14
ENDBRANCH  12  13
ENDBRANCH  11  12
ENDBRANCH   5  11
TORSDOF 5
ENDMDL
MODEL 5
REMARK VINA RESULT:      -6.3      3.459      6.162
REMARK  Name = 
REMARK  5 active torsions:
REMARK  status: ('A' for Active; 'I' for Inactive)
REMARK    1  A    between atoms: C_2  and  C_4
REMARK    2  A    between atoms: N_8  and  C_9
REMARK    3  A    between atoms: C_9  and  C_10
REMARK    4  A    between atoms: C_10  and  C_11
REMARK    5  A    between atoms: C_11  and  N_12
REMARK                            x       y       z     vdW  Elec       q    Type
REMARK                         _______ _______ _______ _____ _____    ______ ____
ROOT
ATOM      1  C   UNL     1       6.810   4.341  13.460  0.00  0.00    +0.000 A 
ATOM      2  N   UNL     1       7.591   5.328  13.850  0.00  0.00    +0.000 NA
ATOM      3  N   UNL     1       7.622   5.449  15.223  0.00  0.00    +0.000 NA
ATOM      4  C   UNL     1       6.873   4.557  15.837  0.00  0.00    +0.000 A 
ATOM      5  N   UNL     1       6.722   4.425  17.173  0.00  0.00    +0.000 N 
ATOM      6  S   UNL     1       6.054   3.498  14.751  0.00  0.00    +0.000 S 
ATOM      7  H   UNL     1       6.056   3.762  17.550  0.00  0.00    +0.000 HD
ENDROOT
BRANCH   1   9
ATOM      8  F   UNL     1       7.460   3.007  11.621  0.00  0.00    +0.000 F 
ATOM      9  C   UNL     1       6.571   3.949  12.045  0.00  0.00    +0.000 C 
ATOM     10  F   UNL     1       5.334   3.403  11.873  0.00  0.00    +0.000 F 
ENDBRANCH   1   9
BRANCH   5  11
ATOM     11  C   UNL     1       7.366   5.339  18.094  0.00  0.00    +0.000 C 
BRANCH  11  12
ATOM     12  C   UNL     1       6.611   5.414  19.417  0.00  0.00    +0.000 C 
BRANCH  12  13
ATOM     13  C   UNL     1       5.112   5.548  19.165  0.00  0.00    +0.000 C 
BRANCH  13  14
ATOM     14  N   UNL     1       4.392   4.322  19.450  0.00  0.00    +0.000 N 
ATOM     15  C   UNL     1       3.046   4.185  19.630  0.00  0.00    +0.000 A 
ATOM     16  C   UNL     1       2.833   2.855  19.908  0.00  0.00    +0.000 A 
ATOM     17  C   UNL     1       4.114   2.276  19.880  0.00  0.00    +0.000 A 
ATOM     18  N   UNL     1       5.070   3.167  19.600  0.00  0.00    +0.000 NA
ENDBRANCH  13  14
ENDBRANCH  12  13
ENDBRANCH  11  12
ENDBRANCH   5  11
TORSDOF 5
ENDMDL
MODEL 6
REMARK VINA RESULT:      -6.3      3.926      5.830
REMARK  Name = 
REMARK  5 active torsions:
REMARK  status: ('A' for Active; 'I' for Inactive)
REMARK    1  A    between atoms: C_2  and  C_4
REMARK    2  A    between atoms: N_8  and  C_9
REMARK    3  A    between atoms: C_9  and  C_10
REMARK    4  A    between atoms: C_10  and  C_11
REMARK    5  A    between atoms: C_11  and  N_12
REMARK                            x       y       z     vdW  Elec       q    Type
REMARK                         _______ _______ _______ _____ _____    ______ ____
ROOT
ATOM      1  C   UNL     1       6.593   5.663  18.379  0.00  0.00    +0.000 A 
ATOM      2  N   UNL     1       6.169   5.149  19.516  0.00  0.00    +0.000 NA
ATOM      3  N   UNL     1       5.337   4.067  19.313  0.00  0.00    +0.000 NA
ATOM      4  C   UNL     1       5.152   3.790  18.039  0.00  0.00    +0.000 A 
ATOM      5  N   UNL     1       4.403   2.781  17.543  0.00  0.00    +0.000 N 
ATOM      6  S   UNL     1       5.992   4.863  16.984  0.00  0.00    +0.000 S 
ATOM      7  H   UNL     1       4.252   2.699  16.546  0.00  0.00    +0.000 HD
ENDROOT
BRANCH   1   9
ATOM      8  F   UNL     1       8.638   6.670  19.005  0.00  0.00    +0.000 F 
ATOM      9  C   UNL     1       7.509   6.830  18.259  0.00  0.00    +0.000 C 
ATOM     10  F   UNL     1       7.928   7.014  16.975  0.00  0.00    +0.000 F 
ENDBRANCH   1   9
BRANCH   5  11
ATOM     11  C   UNL     1       3.654   1.904  18.419  0.00  0.00    +0.000 C 
BRANCH  11  12
ATOM     12  C   UNL     1       2.151   2.124  18.269  0.00  0.00    +0.000 C 
BRANCH  12  13
ATOM     13  C   UNL     1       1.629   2.998  19.406  0.00  0.00    +0.000 C 
BRANCH  13  14
ATOM     14  N   UNL     1       1.911   4.405  19.197  0.00  0.00    +0.000 N 
ATOM     15  C   UNL     1       1.901   5.074  18.007  0.00  0.00    +0.000 A 
ATOM     16  C   UNL     1       2.259   6.370  18.297  0.00  0.00    +0.000 A 
ATOM     17  C   UNL     1       2.471   6.378  19.686  0.00  0.00    +0.000 A 
ATOM     18  N   UNL     1       2.259   5.181  20.241  0.00  0.00    +0.000 NA
ENDBRANCH  13  14
ENDBRANCH  12  13
ENDBRANCH  11  12
ENDBRANCH   5  11
TORSDOF 5
ENDMDL
MODEL 7
REMARK VINA RESULT:      -6.3      3.761      6.770
REMARK  Name = 
REMARK  5 active torsions:
REMARK  status: ('A' for Active; 'I' for Inactive)
REMARK    1  A    between atoms: C_2  and  C_4
REMARK    2  A    between atoms: N_8  and  C_9
REMARK    3  A    between atoms: C_9  and  C_10
REMARK    4  A    between atoms: C_10  and  C_11
REMARK    5  A    between atoms: C_11  and  N_12
REMARK                            x       y       z     vdW  Elec       q    Type
REMARK                         _______ _______ _______ _____ _____    ______ ____
ROOT
ATOM      1  C   UNL     1       7.064   4.830  13.838  0.00  0.00    +0.000 A 
ATOM      2  N   UNL     1       7.761   5.548  14.695  0.00  0.00    +0.000 NA
ATOM      3  N   UNL     1       7.121   5.666  15.911  0.00  0.00    +0.000 NA
ATOM      4  C   UNL     1       5.964   5.038  15.947  0.00  0.00    +0.000 A 
ATOM      5  N   UNL     1       5.127   4.968  17.006  0.00  0.00    +0.000 N 
ATOM      6  S   UNL     1       5.569   4.258  14.462  0.00  0.00    +0.000 S 
ATOM      7  H   UNL     1       4.218   4.533  16.911  0.00  0.00    +0.000 HD
ENDROOT
BRANCH   1   9
ATOM      8  F   UNL     1       6.505   3.868  11.753  0.00  0.00    +0.000 F 
ATOM      9  C   UNL     1       7.485   4.513  12.447  0.00  0.00    +0.000 C 
ATOM     10  F   UNL     1       7.770   5.640  11.736  0.00  0.00    +0.000 F 
ENDBRANCH   1   9
BRANCH   5  11
ATOM     11  C   UNL     1       5.425   5.661  18.243  0.00  0.00    +0.000 C 
BRANCH  11  12
ATOM     12  C   UNL     1       5.033   4.821  19.455  0.00  0.00    +0.000 C 
BRANCH  12  13
ATOM     13  C   UNL     1       4.239   3.595  19.014  0.00  0.00    +0.000 C 
BRANCH  13  14
ATOM     14  N   UNL     1       2.968   3.483  19.704  0.00  0.00    +0.000 N 
ATOM     15  C   UNL     1       1.758   3.942  19.271  0.00  0.00    +0.000 A 
ATOM     16  C   UNL     1       0.858   3.638  20.266  0.00  0.00    +0.000 A 
ATOM     17  C   UNL     1       1.626   3.003  21.258  0.00  0.00    +0.000 A 
ATOM     18  N   UNL     1       2.915   2.905  20.919  0.00  0.00    +0.000 NA
ENDBRANCH  13  14
ENDBRANCH  12  13
ENDBRANCH  11  12
ENDBRANCH   5  11
TORSDOF 5
ENDMDL
MODEL 8
REMARK VINA RESULT:      -6.2      3.899      6.654
REMARK  Name = 
REMARK  5 active torsions:
REMARK  status: ('A' for Active; 'I' for Inactive)
REMARK    1  A    between atoms: C_2  and  C_4
REMARK    2  A    between atoms: N_8  and  C_9
REMARK    3  A    between atoms: C_9  and  C_10
REMARK    4  A    between atoms: C_10  and  C_11
REMARK    5  A    between atoms: C_11  and  N_12
REMARK                            x       y       z     vdW  Elec       q    Type
REMARK                         _______ _______ _______ _____ _____    ______ ____
ROOT
ATOM      1  C   UNL     1       7.269   4.841  13.988  0.00  0.00    +0.000 A 
ATOM      2  N   UNL     1       7.747   5.580  14.968  0.00  0.00    +0.000 NA
ATOM      3  N   UNL     1       7.094   5.342  16.159  0.00  0.00    +0.000 NA
ATOM      4  C   UNL     1       6.145   4.435  16.055  0.00  0.00    +0.000 A 
ATOM      5  N   UNL     1       5.354   3.990  17.056  0.00  0.00    +0.000 N 
ATOM      6  S   UNL     1       5.978   3.810  14.458  0.00  0.00    +0.000 S 
ATOM      7  H   UNL     1       4.594   3.350  16.860  0.00  0.00    +0.000 HD
ENDROOT
BRANCH   1   9
ATOM      8  F   UNL     1       6.841   4.363  11.714  0.00  0.00    +0.000 F 
ATOM      9  C   UNL     1       7.764   4.858  12.585  0.00  0.00    +0.000 C 
ATOM     10  F   UNL     1       8.041   6.124  12.162  0.00  0.00    +0.000 F 
ENDBRANCH   1   9
BRANCH   5  11
ATOM     11  C   UNL     1       5.452   4.542  18.391  0.00  0.00    +0.000 C 
BRANCH  11  12
ATOM     12  C   UNL     1       4.394   5.617  18.624  0.00  0.00    +0.000 C 
BRANCH  12  13
ATOM     13  C   UNL     1       3.094   5.241  17.918  0.00  0.00    +0.000 C 
BRANCH  13  14
ATOM     14  N   UNL     1       2.213   4.458  18.764  0.00  0.00    +0.000 N 
ATOM     15  C   UNL     1       1.626   3.266  18.453  0.00  0.00    +0.000 A 
ATOM     16  C   UNL     1       0.858   2.925  19.543  0.00  0.00    +0.000 A 
ATOM     17  C   UNL     1       1.044   3.981  20.453  0.00  0.00    +0.000 A 
ATOM     18  N   UNL     1       1.872   4.919  19.982  0.00  0.00    +0.000 NA
ENDBRANCH  13  14
ENDBRANCH  12  13
ENDBRANCH  11  12
ENDBRANCH   5  11
TORSDOF 5
ENDMDL
MODEL 9
REMARK VINA RESULT:      -6.2      3.777      6.557
REMARK  Name = 
REMARK  5 active torsions:
REMARK  status: ('A' for Active; 'I' for Inactive)
REMARK    1  A    between atoms: C_2  and  C_4
REMARK    2  A    between atoms: N_8  and  C_9
REMARK    3  A    between atoms: C_9  and  C_10
REMARK    4  A    between atoms: C_10  and  C_11
REMARK    5  A    between atoms: C_11  and  N_12
REMARK                            x       y       z     vdW  Elec       q    Type
REMARK                         _______ _______ _______ _____ _____    ______ ____
ROOT
ATOM      1  C   UNL     1       6.905   4.805  14.124  0.00  0.00    +0.000 A 
ATOM      2  N   UNL     1       7.652   5.380  15.044  0.00  0.00    +0.000 NA
ATOM      3  N   UNL     1       7.168   5.152  16.316  0.00  0.00    +0.000 NA
ATOM      4  C   UNL     1       6.077   4.415  16.329  0.00  0.00    +0.000 A 
ATOM      5  N   UNL     1       5.394   4.020  17.425  0.00  0.00    +0.000 N 
ATOM      6  S   UNL     1       5.553   3.953  14.753  0.00  0.00    +0.000 S 
ATOM      7  H   UNL     1       4.516   3.525  17.330  0.00  0.00    +0.000 HD
ENDROOT
BRANCH   1   9
ATOM      8  F   UNL     1       8.353   5.457  12.374  0.00  0.00    +0.000 F 
ATOM      9  C   UNL     1       7.164   4.856  12.659  0.00  0.00    +0.000 C 
ATOM     10  F   UNL     1       7.231   3.610  12.113  0.00  0.00    +0.000 F 
ENDBRANCH   1   9
BRANCH   5  11
ATOM     11  C   UNL     1       5.796   4.443  18.751  0.00  0.00    +0.000 C 
BRANCH  11  12
ATOM     12  C   UNL     1       4.789   5.421  19.350  0.00  0.00    +0.000 C 
BRANCH  12  13
ATOM     13  C   UNL     1       3.406   5.188  18.749  0.00  0.00    +0.000 C 
BRANCH  13  14
ATOM     14  N   UNL     1       2.626   4.232  19.512  0.00  0.00    +0.000 N 
ATOM     15  C   UNL     1       1.993   4.453  20.700  0.00  0.00    +0.000 A 
ATOM     16  C   UNL     1       1.416   3.255  21.053  0.00  0.00    +0.000 A 
ATOM     17  C   UNL     1       1.766   2.374  20.015  0.00  0.00    +0.000 A 
ATOM     18  N   UNL     1       2.504   2.965  19.071  0.00  0.00    +0.000 NA
ENDBRANCH  13  14
ENDBRANCH  12  13
ENDBRANCH  11  12
ENDBRANCH   5  11
TORSDOF 5
ENDMDL
