MODEL 1
REMARK VINA RESULT:      -7.2      0.000      0.000
REMARK  Name = 
REMARK  5 active torsions:
REMARK  status: ('A' for Active; 'I' for Inactive)
REMARK    1  A    between atoms: C_1  and  O_2
REMARK    2  A    between atoms: O_2  and  C_3
REMARK    3  A    between atoms: C_4  and  C_5
REMARK    4  A    between atoms: C_7  and  C_8
REMARK    5  A    between atoms: C_14  and  C_15
REMARK                            x       y       z     vdW  Elec       q    Type
REMARK                         _______ _______ _______ _____ _____    ______ ____
ROOT
ATOM      1  C   UNL     1       1.955   7.038  20.281  0.00  0.00    +0.000 C 
ATOM      2  C   UNL     1       2.296   7.085  18.965  0.00  0.00    +0.000 C 
ATOM      3  C   UNL     1       2.688   5.804  18.216  0.00  0.00    +0.000 C 
ATOM      4  C   UNL     1       2.246   4.541  18.943  0.00  0.00    +0.000 C 
ATOM      5  C   UNL     1       1.919   4.615  20.239  0.00  0.00    +0.000 C 
ATOM      6 CL   UNL     1       1.431   3.317  21.242  0.00  0.00    +0.000 Cl
ATOM      7  N   UNL     1       1.907   5.809  20.909  0.00  0.00    +0.000 N 
ATOM      8  H   UNL     1       1.525   5.811  21.849  0.00  0.00    +0.000 HD
ENDROOT
BRANCH   3   9
ATOM      9  C   UNL     1       4.197   5.788  17.964  0.00  0.00    +0.000 A 
ATOM     10  C   UNL     1       4.727   6.077  16.691  0.00  0.00    +0.000 A 
ATOM     11  C   UNL     1       6.104   6.046  16.467  0.00  0.00    +0.000 A 
ATOM     12  C   UNL     1       6.969   5.738  17.513  0.00  0.00    +0.000 A 
ATOM     13  C   UNL     1       6.462   5.457  18.780  0.00  0.00    +0.000 A 
ATOM     14  C   UNL     1       5.083   5.484  19.007  0.00  0.00    +0.000 A 
ENDBRANCH   3   9
BRANCH   1  16
ATOM     15  C   UNL     1       0.283   8.527  21.266  0.00  0.00    +0.000 C 
ATOM     16  O   UNL     1       1.614   8.050  21.137  0.00  0.00    +0.000 OA
ENDBRANCH   1  16
BRANCH   2  17
ATOM     17  C   UNL     1       2.286   8.374  18.159  0.00  0.00    +0.000 C 
ATOM     18  N   UNL     1       2.277   9.443  17.490  0.00  0.00    +0.000 NA
ENDBRANCH   2  17
BRANCH   4  19
ATOM     19  C   UNL     1       2.156   3.290  18.163  0.00  0.00    +0.000 C 
ATOM     20  O   UNL     1       2.135   3.286  16.937  0.00  0.00    +0.000 OA
ENDBRANCH   4  19
TORSDOF 4
ENDMDL
MODEL 2
REMARK VINA RESULT:      -7.1      0.057      1.109
REMARK  Name = 
REMARK  5 active torsions:
REMARK  status: ('A' for Active; 'I' for Inactive)
REMARK    1  A    between atoms: C_1  and  O_2
REMARK    2  A    between atoms: O_2  and  C_3
REMARK    3  A    between atoms: C_4  and  C_5
REMARK    4  A    between atoms: C_7  and  C_8
REMARK    5  A    between atoms: C_14  and  C_15
REMARK                            x       y       z     vdW  Elec       q    Type
REMARK                         _______ _______ _______ _____ _____    ______ ____
ROOT
ATOM      1  C   UNL     1       1.966   7.093  20.288  0.00  0.00    +0.000 C 
ATOM      2  C   UNL     1       2.303   7.124  18.971  0.00  0.00    +0.000 C 
ATOM      3  C   UNL     1       2.692   5.834  18.236  0.00  0.00    +0.000 C 
ATOM      4  C   UNL     1       2.254   4.580  18.979  0.00  0.00    +0.000 C 
ATOM      5  C   UNL     1       1.930   4.669  20.276  0.00  0.00    +0.000 C 
ATOM      6 CL   UNL     1       1.446   3.383  21.296  0.00  0.00    +0.000 Cl
ATOM      7  N   UNL     1       1.921   5.871  20.931  0.00  0.00    +0.000 N 
ATOM      8  H   UNL     1       1.542   5.884  21.872  0.00  0.00    +0.000 HD
ENDROOT
BRANCH   3   9
ATOM      9  C   UNL     1       4.201   5.815  17.979  0.00  0.00    +0.000 A 
ATOM     10  C   UNL     1       5.111   5.492  19.005  0.00  0.00    +0.000 A 
ATOM     11  C   UNL     1       6.486   5.491  18.765  0.00  0.00    +0.000 A 
ATOM     12  C   UNL     1       6.968   5.801  17.498  0.00  0.00    +0.000 A 
ATOM     13  C   UNL     1       6.082   6.116  16.470  0.00  0.00    +0.000 A 
ATOM     14  C   UNL     1       4.704   6.121  16.707  0.00  0.00    +0.000 A 
ENDBRANCH   3   9
BRANCH   1  16
ATOM     15  C   UNL     1       0.285   8.534  21.327  0.00  0.00    +0.000 C 
ATOM     16  O   UNL     1       1.628   8.115  21.133  0.00  0.00    +0.000 OA
ENDBRANCH   1  16
BRANCH   2  17
ATOM     17  C   UNL     1       2.289   8.403  18.149  0.00  0.00    +0.000 C 
ATOM     18  N   UNL     1       2.278   9.463  17.467  0.00  0.00    +0.000 NA
ENDBRANCH   2  17
BRANCH   4  19
ATOM     19  C   UNL     1       2.161   3.319  18.215  0.00  0.00    +0.000 C 
ATOM     20  O   UNL     1       2.081   3.303  16.992  0.00  0.00    +0.000 OA
ENDBRANCH   4  19
TORSDOF 4
ENDMDL
MODEL 3
REMARK VINA RESULT:      -7.0      2.641      4.413
REMARK  Name = 
REMARK  5 active torsions:
REMARK  status: ('A' for Active; 'I' for Inactive)
REMARK    1  A    between atoms: C_1  and  O_2
REMARK    2  A    between atoms: O_2  and  C_3
REMARK    3  A    between atoms: C_4  and  C_5
REMARK    4  A    between atoms: C_7  and  C_8
REMARK    5  A    between atoms: C_14  and  C_15
REMARK                            x       y       z     vdW  Elec       q    Type
REMARK                         _______ _______ _______ _____ _____    ______ ____
ROOT
ATOM      1  C   UNL     1       2.691   7.806  17.992  0.00  0.00    +0.000 C 
ATOM      2  C   UNL     1       2.564   7.229  19.218  0.00  0.00    +0.000 C 
ATOM      3  C   UNL     1       3.371   5.972  19.573  0.00  0.00    +0.000 C 
ATOM      4  C   UNL     1       4.550   5.747  18.638  0.00  0.00    +0.000 C 
ATOM      5  C   UNL     1       4.577   6.381  17.458  0.00  0.00    +0.000 C 
ATOM      6 CL   UNL     1       5.787   6.243  16.255  0.00  0.00    +0.000 Cl
ATOM      7  N   UNL     1       3.604   7.276  17.102  0.00  0.00    +0.000 N 
ATOM      8  H   UNL     1       3.755   7.814  16.255  0.00  0.00    +0.000 HD
ENDROOT
BRANCH   3   9
ATOM      9  C   UNL     1       2.450   4.750  19.593  0.00  0.00    +0.000 A 
ATOM     10  C   UNL     1       1.971   4.179  18.398  0.00  0.00    +0.000 A 
ATOM     11  C   UNL     1       1.120   3.073  18.425  0.00  0.00    +0.000 A 
ATOM     12  C   UNL     1       0.748   2.516  19.645  0.00  0.00    +0.000 A 
ATOM     13  C   UNL     1       1.218   3.064  20.837  0.00  0.00    +0.000 A 
ATOM     14  C   UNL     1       2.068   4.174  20.813  0.00  0.00    +0.000 A 
ENDBRANCH   3   9
BRANCH   1  16
ATOM     15  C   UNL     1       2.156  10.192  18.022  0.00  0.00    +0.000 C 
ATOM     16  O   UNL     1       2.048   8.891  17.462  0.00  0.00    +0.000 OA
ENDBRANCH   1  16
BRANCH   2  17
ATOM     17  C   UNL     1       1.659   7.791  20.302  0.00  0.00    +0.000 C 
ATOM     18  N   UNL     1       0.908   8.258  21.201  0.00  0.00    +0.000 NA
ENDBRANCH   2  17
BRANCH   4  19
ATOM     19  C   UNL     1       5.643   4.867  19.100  0.00  0.00    +0.000 C 
ATOM     20  O   UNL     1       6.590   5.292  19.751  0.00  0.00    +0.000 OA
ENDBRANCH   4  19
TORSDOF 4
ENDMDL
MODEL 4
REMARK VINA RESULT:      -7.0      2.639      4.541
REMARK  Name = 
REMARK  5 active torsions:
REMARK  status: ('A' for Active; 'I' for Inactive)
REMARK    1  A    between atoms: C_1  and  O_2
REMARK    2  A    between atoms: O_2  and  C_3
REMARK    3  A    between atoms: C_4  and  C_5
REMARK    4  A    between atoms: C_7  and  C_8
REMARK    5  A    between atoms: C_14  and  C_15
REMARK                            x       y       z     vdW  Elec       q    Type
REMARK                         _______ _______ _______ _____ _____    ______ ____
ROOT
ATOM      1  C   UNL     1       2.669   7.834  17.986  0.00  0.00    +0.000 C 
ATOM      2  C   UNL     1       2.551   7.255  19.211  0.00  0.00    +0.000 C 
ATOM      3  C   UNL     1       3.358   5.996  19.559  0.00  0.00    +0.000 C 
ATOM      4  C   UNL     1       4.530   5.771  18.614  0.00  0.00    +0.000 C 
ATOM      5  C   UNL     1       4.549   6.406  17.435  0.00  0.00    +0.000 C 
ATOM      6 CL   UNL     1       5.749   6.269  16.223  0.00  0.00    +0.000 Cl
ATOM      7  N   UNL     1       3.574   7.304  17.088  0.00  0.00    +0.000 N 
ATOM      8  H   UNL     1       3.720   7.843  16.241  0.00  0.00    +0.000 HD
ENDROOT
BRANCH   3   9
ATOM      9  C   UNL     1       2.435   4.775  19.584  0.00  0.00    +0.000 A 
ATOM     10  C   UNL     1       2.037   4.187  20.800  0.00  0.00    +0.000 A 
ATOM     11  C   UNL     1       1.207   3.066  20.813  0.00  0.00    +0.000 A 
ATOM     12  C   UNL     1       0.755   2.524  19.613  0.00  0.00    +0.000 A 
ATOM     13  C   UNL     1       1.134   3.098  18.401  0.00  0.00    +0.000 A 
ATOM     14  C   UNL     1       1.968   4.220  18.384  0.00  0.00    +0.000 A 
ENDBRANCH   3   9
BRANCH   1  16
ATOM     15  C   UNL     1       2.149  10.223  18.015  0.00  0.00    +0.000 C 
ATOM     16  O   UNL     1       2.024   8.921  17.462  0.00  0.00    +0.000 OA
ENDBRANCH   1  16
BRANCH   2  17
ATOM     17  C   UNL     1       1.655   7.817  20.303  0.00  0.00    +0.000 C 
ATOM     18  N   UNL     1       0.912   8.283  21.209  0.00  0.00    +0.000 NA
ENDBRANCH   2  17
BRANCH   4  19
ATOM     19  C   UNL     1       5.624   4.888  19.066  0.00  0.00    +0.000 C 
ATOM     20  O   UNL     1       6.553   5.301  19.751  0.00  0.00    +0.000 OA
ENDBRANCH   4  19
TORSDOF 4
ENDMDL
MODEL 5
REMARK VINA RESULT:      -6.8      3.063      4.969
REMARK  Name = 
REMARK  5 active torsions:
REMARK  status: ('A' for Active; 'I' for Inactive)
REMARK    1  A    between atoms: C_1  and  O_2
REMARK    2  A    between atoms: O_2  and  C_3
REMARK    3  A    between atoms: C_4  and  C_5
REMARK    4  A    between atoms: C_7  and  C_8
REMARK    5  A    between atoms: C_14  and  C_15
REMARK                            x       y       z     vdW  Elec       q    Type
REMARK                         _______ _______ _______ _____ _____    ______ ____
ROOT
ATOM      1  C   UNL     1       4.261   3.768  19.280  0.00  0.00    +0.000 C 
ATOM      2  C   UNL     1       3.382   4.349  18.420  0.00  0.00    +0.000 C 
ATOM      3  C   UNL     1       3.741   5.662  17.710  0.00  0.00    +0.000 C 
ATOM      4  C   UNL     1       5.234   5.956  17.739  0.00  0.00    +0.000 C 
ATOM      5  C   UNL     1       6.009   5.312  18.621  0.00  0.00    +0.000 C 
ATOM      6 CL   UNL     1       7.694   5.518  18.837  0.00  0.00    +0.000 Cl
ATOM      7  N   UNL     1       5.502   4.348  19.451  0.00  0.00    +0.000 N 
ATOM      8  H   UNL     1       6.166   3.812  19.999  0.00  0.00    +0.000 HD
ENDROOT
BRANCH   3   9
ATOM      9  C   UNL     1       2.946   6.819  18.320  0.00  0.00    +0.000 A 
ATOM     10  C   UNL     1       2.527   6.786  19.665  0.00  0.00    +0.000 A 
ATOM     11  C   UNL     1       1.791   7.839  20.209  0.00  0.00    +0.000 A 
ATOM     12  C   UNL     1       1.473   8.942  19.422  0.00  0.00    +0.000 A 
ATOM     13  C   UNL     1       1.886   8.993  18.092  0.00  0.00    +0.000 A 
ATOM     14  C   UNL     1       2.621   7.939  17.543  0.00  0.00    +0.000 A 
ENDBRANCH   3   9
BRANCH   1  16
ATOM     15  C   UNL     1       3.223   2.543  21.125  0.00  0.00    +0.000 C 
ATOM     16  O   UNL     1       4.130   2.634  20.036  0.00  0.00    +0.000 OA
ENDBRANCH   1  16
BRANCH   2  17
ATOM     17  C   UNL     1       2.030   3.739  18.088  0.00  0.00    +0.000 C 
ATOM     18  N   UNL     1       0.908   3.233  17.814  0.00  0.00    +0.000 NA
ENDBRANCH   2  17
BRANCH   4  19
ATOM     19  C   UNL     1       5.770   6.915  16.750  0.00  0.00    +0.000 C 
ATOM     20  O   UNL     1       5.489   6.848  15.560  0.00  0.00    +0.000 OA
ENDBRANCH   4  19
TORSDOF 4
ENDMDL
MODEL 6
REMARK VINA RESULT:      -6.8      3.072      4.861
REMARK  Name = 
REMARK  5 active torsions:
REMARK  status: ('A' for Active; 'I' for Inactive)
REMARK    1  A    between atoms: C_1  and  O_2
REMARK    2  A    between atoms: O_2  and  C_3
REMARK    3  A    between atoms: C_4  and  C_5
REMARK    4  A    between atoms: C_7  and  C_8
REMARK    5  A    between atoms: C_14  and  C_15
REMARK                            x       y       z     vdW  Elec       q    Type
REMARK                         _______ _______ _______ _____ _____    ______ ____
ROOT
ATOM      1  C   UNL     1       4.303   3.763  19.306  0.00  0.00    +0.000 C 
ATOM      2  C   UNL     1       3.423   4.331  18.438  0.00  0.00    +0.000 C 
ATOM      3  C   UNL     1       3.770   5.648  17.729  0.00  0.00    +0.000 C 
ATOM      4  C   UNL     1       5.260   5.960  17.769  0.00  0.00    +0.000 C 
ATOM      5  C   UNL     1       6.036   5.328  18.658  0.00  0.00    +0.000 C 
ATOM      6 CL   UNL     1       7.717   5.556  18.887  0.00  0.00    +0.000 Cl
ATOM      7  N   UNL     1       5.535   4.359  19.486  0.00  0.00    +0.000 N 
ATOM      8  H   UNL     1       6.202   3.832  20.040  0.00  0.00    +0.000 HD
ENDROOT
BRANCH   3   9
ATOM      9  C   UNL     1       2.957   6.795  18.331  0.00  0.00    +0.000 A 
ATOM     10  C   UNL     1       2.602   7.920  17.561  0.00  0.00    +0.000 A 
ATOM     11  C   UNL     1       1.871   8.968  18.122  0.00  0.00    +0.000 A 
ATOM     12  C   UNL     1       1.477   8.902  19.455  0.00  0.00    +0.000 A 
ATOM     13  C   UNL     1       1.813   7.793  20.229  0.00  0.00    +0.000 A 
ATOM     14  C   UNL     1       2.547   6.743  19.671  0.00  0.00    +0.000 A 
ENDBRANCH   3   9
BRANCH   1  16
ATOM     15  C   UNL     1       3.219   2.503  21.101  0.00  0.00    +0.000 C 
ATOM     16  O   UNL     1       4.181   2.629  20.063  0.00  0.00    +0.000 OA
ENDBRANCH   1  16
BRANCH   2  17
ATOM     17  C   UNL     1       2.081   3.704  18.098  0.00  0.00    +0.000 C 
ATOM     18  N   UNL     1       0.968   3.183  17.816  0.00  0.00    +0.000 NA
ENDBRANCH   2  17
BRANCH   4  19
ATOM     19  C   UNL     1       5.791   6.924  16.783  0.00  0.00    +0.000 C 
ATOM     20  O   UNL     1       5.513   6.857  15.591  0.00  0.00    +0.000 OA
ENDBRANCH   4  19
TORSDOF 4
ENDMDL
MODEL 7
REMARK VINA RESULT:      -6.8      2.179      2.759
REMARK  Name = 
REMARK  5 active torsions:
REMARK  status: ('A' for Active; 'I' for Inactive)
REMARK    1  A    between atoms: C_1  and  O_2
REMARK    2  A    between atoms: O_2  and  C_3
REMARK    3  A    between atoms: C_4  and  C_5
REMARK    4  A    between atoms: C_7  and  C_8
REMARK    5  A    between atoms: C_14  and  C_15
REMARK                            x       y       z     vdW  Elec       q    Type
REMARK                         _______ _______ _______ _____ _____    ______ ____
ROOT
ATOM      1  C   UNL     1       2.684   5.039  19.022  0.00  0.00    +0.000 C 
ATOM      2  C   UNL     1       3.266   5.947  18.194  0.00  0.00    +0.000 C 
ATOM      3  C   UNL     1       4.386   5.521  17.234  0.00  0.00    +0.000 C 
ATOM      4  C   UNL     1       4.436   4.014  17.024  0.00  0.00    +0.000 C 
ATOM      5  C   UNL     1       3.812   3.212  17.897  0.00  0.00    +0.000 C 
ATOM      6 CL   UNL     1       3.773   1.502  17.862  0.00  0.00    +0.000 Cl
ATOM      7  N   UNL     1       3.076   3.718  18.935  0.00  0.00    +0.000 N 
ATOM      8  H   UNL     1       2.525   3.060  19.478  0.00  0.00    +0.000 HD
ENDROOT
BRANCH   3   9
ATOM      9  C   UNL     1       5.732   6.046  17.737  0.00  0.00    +0.000 A 
ATOM     10  C   UNL     1       6.356   7.154  17.129  0.00  0.00    +0.000 A 
ATOM     11  C   UNL     1       7.590   7.617  17.584  0.00  0.00    +0.000 A 
ATOM     12  C   UNL     1       8.212   6.989  18.659  0.00  0.00    +0.000 A 
ATOM     13  C   UNL     1       7.606   5.896  19.276  0.00  0.00    +0.000 A 
ATOM     14  C   UNL     1       6.371   5.428  18.820  0.00  0.00    +0.000 A 
ENDBRANCH   3   9
BRANCH   1  16
ATOM     15  C   UNL     1       0.883   4.147  20.415  0.00  0.00    +0.000 C 
ATOM     16  O   UNL     1       1.710   5.211  19.968  0.00  0.00    +0.000 OA
ENDBRANCH   1  16
BRANCH   2  17
ATOM     17  C   UNL     1       2.840   7.406  18.143  0.00  0.00    +0.000 C 
ATOM     18  N   UNL     1       2.487   8.616  18.101  0.00  0.00    +0.000 NA
ENDBRANCH   2  17
BRANCH   4  19
ATOM     19  C   UNL     1       5.140   3.504  15.830  0.00  0.00    +0.000 C 
ATOM     20  O   UNL     1       5.328   4.199  14.838  0.00  0.00    +0.000 OA
ENDBRANCH   4  19
TORSDOF 4
ENDMDL
MODEL 8
REMARK VINA RESULT:      -6.8      2.197      2.979
REMARK  Name = 
REMARK  5 active torsions:
REMARK  status: ('A' for Active; 'I' for Inactive)
REMARK    1  A    between atoms: C_1  and  O_2
REMARK    2  A    between atoms: O_2  and  C_3
REMARK    3  A    between atoms: C_4  and  C_5
REMARK    4  A    between atoms: C_7  and  C_8
REMARK    5  A    between atoms: C_14  and  C_15
REMARK                            x       y       z     vdW  Elec       q    Type
REMARK                         _______ _______ _______ _____ _____    ______ ____
ROOT
ATOM      1  C   UNL     1       2.693   5.012  19.043  0.00  0.00    +0.000 C 
ATOM      2  C   UNL     1       3.264   5.923  18.209  0.00  0.00    +0.000 C 
ATOM      3  C   UNL     1       4.372   5.500  17.235  0.00  0.00    +0.000 C 
ATOM      4  C   UNL     1       4.422   3.993  17.022  0.00  0.00    +0.000 C 
ATOM      5  C   UNL     1       3.810   3.189  17.901  0.00  0.00    +0.000 C 
ATOM      6 CL   UNL     1       3.774   1.479  17.863  0.00  0.00    +0.000 Cl
ATOM      7  N   UNL     1       3.086   3.692  18.948  0.00  0.00    +0.000 N 
ATOM      8  H   UNL     1       2.543   3.032  19.497  0.00  0.00    +0.000 HD
ENDROOT
BRANCH   3   9
ATOM      9  C   UNL     1       5.724   6.026  17.722  0.00  0.00    +0.000 A 
ATOM     10  C   UNL     1       6.398   5.419  18.799  0.00  0.00    +0.000 A 
ATOM     11  C   UNL     1       7.624   5.914  19.246  0.00  0.00    +0.000 A 
ATOM     12  C   UNL     1       8.197   7.014  18.615  0.00  0.00    +0.000 A 
ATOM     13  C   UNL     1       7.547   7.623  17.544  0.00  0.00    +0.000 A 
ATOM     14  C   UNL     1       6.318   7.131  17.096  0.00  0.00    +0.000 A 
ENDBRANCH   3   9
BRANCH   1  16
ATOM     15  C   UNL     1       0.902   4.117  20.448  0.00  0.00    +0.000 C 
ATOM     16  O   UNL     1       1.731   5.181  20.001  0.00  0.00    +0.000 OA
ENDBRANCH   1  16
BRANCH   2  17
ATOM     17  C   UNL     1       2.835   7.381  18.166  0.00  0.00    +0.000 C 
ATOM     18  N   UNL     1       2.479   8.590  18.131  0.00  0.00    +0.000 NA
ENDBRANCH   2  17
BRANCH   4  19
ATOM     19  C   UNL     1       5.112   3.487  15.818  0.00  0.00    +0.000 C 
ATOM     20  O   UNL     1       6.307   3.677  15.623  0.00  0.00    +0.000 OA
ENDBRANCH   4  19
TORSDOF 4
ENDMDL
MODEL 9
REMARK VINA RESULT:      -6.2      2.507      4.766
REMARK  Name = 
REMARK  5 active torsions:
REMARK  status: ('A' for Active; 'I' for Inactive)
REMARK    1  A    between atoms: C_1  and  O_2
REMARK    2  A    between atoms: O_2  and  C_3
REMARK    3  A    between atoms: C_4  and  C_5
REMARK    4  A    between atoms: C_7  and  C_8
REMARK    5  A    between atoms: C_14  and  C_15
REMARK                            x       y       z     vdW  Elec       q    Type
REMARK                         _______ _______ _______ _____ _____    ______ ____
ROOT
ATOM      1  C   UNL     1       4.304   3.779  17.714  0.00  0.00    +0.000 C 
ATOM      2  C   UNL     1       4.527   4.706  18.685  0.00  0.00    +0.000 C 
ATOM      3  C   UNL     1       3.442   5.023  19.723  0.00  0.00    +0.000 C 
ATOM      4  C   UNL     1       2.367   3.947  19.795  0.00  0.00    +0.000 C 
ATOM      5  C   UNL     1       2.246   3.076  18.785  0.00  0.00    +0.000 C 
ATOM      6 CL   UNL     1       1.092   1.819  18.656  0.00  0.00    +0.000 Cl
ATOM      7  N   UNL     1       3.109   3.088  17.722  0.00  0.00    +0.000 N 
ATOM      8  H   UNL     1       3.041   2.321  17.060  0.00  0.00    +0.000 HD
ENDROOT
BRANCH   3   9
ATOM      9  C   UNL     1       2.824   6.392  19.429  0.00  0.00    +0.000 A 
ATOM     10  C   UNL     1       2.134   7.109  20.427  0.00  0.00    +0.000 A 
ATOM     11  C   UNL     1       1.561   8.350  20.147  0.00  0.00    +0.000 A 
ATOM     12  C   UNL     1       1.680   8.896  18.872  0.00  0.00    +0.000 A 
ATOM     13  C   UNL     1       2.365   8.203  17.876  0.00  0.00    +0.000 A 
ATOM     14  C   UNL     1       2.937   6.958  18.152  0.00  0.00    +0.000 A 
ENDBRANCH   3   9
BRANCH   1  16
ATOM     15  C   UNL     1       5.324   4.173  15.526  0.00  0.00    +0.000 C 
ATOM     16  O   UNL     1       5.108   3.377  16.682  0.00  0.00    +0.000 OA
ENDBRANCH   1  16
BRANCH   2  17
ATOM     17  C   UNL     1       5.844   5.452  18.822  0.00  0.00    +0.000 C 
ATOM     18  N   UNL     1       6.937   6.071  18.936  0.00  0.00    +0.000 NA
ENDBRANCH   2  17
BRANCH   4  19
ATOM     19  C   UNL     1       1.528   3.887  21.010  0.00  0.00    +0.000 C 
ATOM     20  O   UNL     1       1.901   3.320  22.031  0.00  0.00    +0.000 OA
ENDBRANCH   4  19
TORSDOF 4
ENDMDL
