MODEL 1
REMARK VINA RESULT:      -8.0      0.000      0.000
REMARK  Name = 
REMARK  3 active torsions:
REMARK  status: ('A' for Active; 'I' for Inactive)
REMARK    1  A    between atoms: C_1  and  C_2
REMARK    2  A    between atoms: C_9  and  S_10
REMARK    3  A    between atoms: S_10  and  N_13
REMARK                            x       y       z     vdW  Elec       q    Type
REMARK                         _______ _______ _______ _____ _____    ______ ____
ROOT
ATOM      1  C   UNL     1       2.092   4.800  21.563  0.00  0.00    +0.000 C 
ATOM      2  C   UNL     1       1.965   3.413  21.000  0.00  0.00    +0.000 C 
ATOM      3  O   UNL     1       1.357   2.556  21.649  0.00  0.00    +0.000 OA
ATOM      4  N   UNL     1       2.535   3.117  19.780  0.00  0.00    +0.000 N 
ATOM      5  C   UNL     1       2.425   1.750  19.249  0.00  0.00    +0.000 C 
ATOM      6  C   UNL     1       3.329   1.657  18.019  0.00  0.00    +0.000 C 
ATOM      7  C   UNL     1       3.695   3.091  17.801  0.00  0.00    +0.000 A 
ATOM      8  C   UNL     1       4.448   3.610  16.750  0.00  0.00    +0.000 A 
ATOM      9  C   UNL     1       4.710   4.981  16.748  0.00  0.00    +0.000 A 
ATOM     10  C   UNL     1       4.226   5.808  17.771  0.00  0.00    +0.000 A 
ATOM     11  C   UNL     1       3.485   5.269  18.826  0.00  0.00    +0.000 A 
ATOM     12  C   UNL     1       3.229   3.908  18.844  0.00  0.00    +0.000 A 
ENDROOT
BRANCH   9  13
ATOM     13  S   UNL     1       5.699   5.713  15.469  0.00  0.00    +0.000 S 
ATOM     14  O   UNL     1       5.778   4.748  14.392  0.00  0.00    +0.000 OA
ATOM     15  O   UNL     1       5.223   7.060  15.237  0.00  0.00    +0.000 OA
BRANCH  13  16
ATOM     16  N   UNL     1       7.248   5.832  16.182  0.00  0.00    +0.000 NA
ATOM     17  C   UNL     1       7.708   4.672  16.981  0.00  0.00    +0.000 C 
ATOM     18  C   UNL     1       7.476   5.072  18.424  0.00  0.00    +0.000 C 
ATOM     19  C   UNL     1       7.755   6.562  18.436  0.00  0.00    +0.000 C 
ATOM     20  C   UNL     1       7.429   7.049  17.028  0.00  0.00    +0.000 C 
ENDBRANCH  13  16
ENDBRANCH   9  13
TORSDOF 2
ENDMDL
MODEL 2
REMARK VINA RESULT:      -8.0      0.646      2.023
REMARK  Name = 
REMARK  3 active torsions:
REMARK  status: ('A' for Active; 'I' for Inactive)
REMARK    1  A    between atoms: C_1  and  C_2
REMARK    2  A    between atoms: C_9  and  S_10
REMARK    3  A    between atoms: S_10  and  N_13
REMARK                            x       y       z     vdW  Elec       q    Type
REMARK                         _______ _______ _______ _____ _____    ______ ____
ROOT
ATOM      1  C   UNL     1       1.576   1.593  19.589  0.00  0.00    +0.000 C 
ATOM      2  C   UNL     1       1.445   2.881  20.351  0.00  0.00    +0.000 C 
ATOM      3  O   UNL     1       0.748   2.906  21.371  0.00  0.00    +0.000 OA
ATOM      4  N   UNL     1       2.091   4.012  19.897  0.00  0.00    +0.000 N 
ATOM      5  C   UNL     1       1.937   5.272  20.637  0.00  0.00    +0.000 C 
ATOM      6  C   UNL     1       2.562   6.384  19.794  0.00  0.00    +0.000 C 
ATOM      7  C   UNL     1       3.261   5.600  18.728  0.00  0.00    +0.000 A 
ATOM      8  C   UNL     1       4.076   6.107  17.719  0.00  0.00    +0.000 A 
ATOM      9  C   UNL     1       4.610   5.206  16.795  0.00  0.00    +0.000 A 
ATOM     10  C   UNL     1       4.334   3.835  16.884  0.00  0.00    +0.000 A 
ATOM     11  C   UNL     1       3.502   3.345  17.895  0.00  0.00    +0.000 A 
ATOM     12  C   UNL     1       2.959   4.232  18.810  0.00  0.00    +0.000 A 
ENDROOT
BRANCH   9  13
ATOM     13  S   UNL     1       5.621   5.777  15.452  0.00  0.00    +0.000 S 
ATOM     14  O   UNL     1       5.631   4.727  14.455  0.00  0.00    +0.000 OA
ATOM     15  O   UNL     1       5.218   7.127  15.118  0.00  0.00    +0.000 OA
BRANCH  13  16
ATOM     16  N   UNL     1       7.183   5.864  16.139  0.00  0.00    +0.000 NA
ATOM     17  C   UNL     1       7.642   4.685  16.912  0.00  0.00    +0.000 C 
ATOM     18  C   UNL     1       7.441   5.065  18.364  0.00  0.00    +0.000 C 
ATOM     19  C   UNL     1       7.741   6.550  18.395  0.00  0.00    +0.000 C 
ATOM     20  C   UNL     1       7.396   7.065  17.002  0.00  0.00    +0.000 C 
ENDBRANCH  13  16
ENDBRANCH   9  13
TORSDOF 2
ENDMDL
MODEL 3
REMARK VINA RESULT:      -7.4      4.014      5.092
REMARK  Name = 
REMARK  3 active torsions:
REMARK  status: ('A' for Active; 'I' for Inactive)
REMARK    1  A    between atoms: C_1  and  C_2
REMARK    2  A    between atoms: C_9  and  S_10
REMARK    3  A    between atoms: S_10  and  N_13
REMARK                            x       y       z     vdW  Elec       q    Type
REMARK                         _______ _______ _______ _____ _____    ______ ____
ROOT
ATOM      1  C   UNL     1      -0.391   8.885  22.143  0.00  0.00    +0.000 C 
ATOM      2  C   UNL     1      -0.073   9.865  21.049  0.00  0.00    +0.000 C 
ATOM      3  O   UNL     1      -0.587  10.988  21.082  0.00  0.00    +0.000 OA
ATOM      4  N   UNL     1       0.774   9.493  20.026  0.00  0.00    +0.000 N 
ATOM      5  C   UNL     1       1.060  10.452  18.949  0.00  0.00    +0.000 C 
ATOM      6  C   UNL     1       1.826   9.705  17.856  0.00  0.00    +0.000 C 
ATOM      7  C   UNL     1       2.139   8.408  18.536  0.00  0.00    +0.000 A 
ATOM      8  C   UNL     1       2.905   7.363  18.027  0.00  0.00    +0.000 A 
ATOM      9  C   UNL     1       3.049   6.216  18.810  0.00  0.00    +0.000 A 
ATOM     10  C   UNL     1       2.442   6.124  20.070  0.00  0.00    +0.000 A 
ATOM     11  C   UNL     1       1.663   7.176  20.559  0.00  0.00    +0.000 A 
ATOM     12  C   UNL     1       1.505   8.315  19.785  0.00  0.00    +0.000 A 
ENDROOT
BRANCH   9  13
ATOM     13  S   UNL     1       3.972   4.821  18.215  0.00  0.00    +0.000 S 
ATOM     14  O   UNL     1       4.487   4.129  19.377  0.00  0.00    +0.000 OA
ATOM     15  O   UNL     1       3.172   4.133  17.224  0.00  0.00    +0.000 OA
BRANCH  13  16
ATOM     16  N   UNL     1       5.293   5.537  17.401  0.00  0.00    +0.000 NA
ATOM     17  C   UNL     1       5.435   5.232  15.957  0.00  0.00    +0.000 C 
ATOM     18  C   UNL     1       6.510   4.167  15.885  0.00  0.00    +0.000 C 
ATOM     19  C   UNL     1       7.464   4.540  17.001  0.00  0.00    +0.000 C 
ATOM     20  C   UNL     1       6.615   5.263  18.040  0.00  0.00    +0.000 C 
ENDBRANCH  13  16
ENDBRANCH   9  13
TORSDOF 2
ENDMDL
MODEL 4
REMARK VINA RESULT:      -7.3      1.965      2.626
REMARK  Name = 
REMARK  3 active torsions:
REMARK  status: ('A' for Active; 'I' for Inactive)
REMARK    1  A    between atoms: C_1  and  C_2
REMARK    2  A    between atoms: C_9  and  S_10
REMARK    3  A    between atoms: S_10  and  N_13
REMARK                            x       y       z     vdW  Elec       q    Type
REMARK                         _______ _______ _______ _____ _____    ______ ____
ROOT
ATOM      1  C   UNL     1       1.510   5.495  20.774  0.00  0.00    +0.000 C 
ATOM      2  C   UNL     1       1.412   4.069  20.309  0.00  0.00    +0.000 C 
ATOM      3  O   UNL     1       0.517   3.350  20.765  0.00  0.00    +0.000 OA
ATOM      4  N   UNL     1       2.324   3.586  19.395  0.00  0.00    +0.000 N 
ATOM      5  C   UNL     1       2.234   2.183  18.965  0.00  0.00    +0.000 C 
ATOM      6  C   UNL     1       3.485   1.868  18.144  0.00  0.00    +0.000 C 
ATOM      7  C   UNL     1       4.078   3.230  17.961  0.00  0.00    +0.000 A 
ATOM      8  C   UNL     1       5.203   3.555  17.207  0.00  0.00    +0.000 A 
ATOM      9  C   UNL     1       5.618   4.888  17.193  0.00  0.00    +0.000 A 
ATOM     10  C   UNL     1       4.921   5.867  17.914  0.00  0.00    +0.000 A 
ATOM     11  C   UNL     1       3.802   5.521  18.677  0.00  0.00    +0.000 A 
ATOM     12  C   UNL     1       3.389   4.199  18.707  0.00  0.00    +0.000 A 
ENDROOT
BRANCH   9  13
ATOM     13  S   UNL     1       7.069   5.377  16.294  0.00  0.00    +0.000 S 
ATOM     14  O   UNL     1       7.452   6.682  16.789  0.00  0.00    +0.000 OA
ATOM     15  O   UNL     1       8.001   4.269  16.294  0.00  0.00    +0.000 OA
BRANCH  13  16
ATOM     16  N   UNL     1       6.500   5.568  14.694  0.00  0.00    +0.000 NA
ATOM     17  C   UNL     1       5.224   4.895  14.352  0.00  0.00    +0.000 C 
ATOM     18  C   UNL     1       5.630   3.639  13.609  0.00  0.00    +0.000 C 
ATOM     19  C   UNL     1       6.863   4.059  12.834  0.00  0.00    +0.000 C 
ATOM     20  C   UNL     1       7.495   5.181  13.650  0.00  0.00    +0.000 C 
ENDBRANCH  13  16
ENDBRANCH   9  13
TORSDOF 2
ENDMDL
MODEL 5
REMARK VINA RESULT:      -7.3      3.615      5.500
REMARK  Name = 
REMARK  3 active torsions:
REMARK  status: ('A' for Active; 'I' for Inactive)
REMARK    1  A    between atoms: C_1  and  C_2
REMARK    2  A    between atoms: C_9  and  S_10
REMARK    3  A    between atoms: S_10  and  N_13
REMARK                            x       y       z     vdW  Elec       q    Type
REMARK                         _______ _______ _______ _____ _____    ______ ____
ROOT
ATOM      1  C   UNL     1      -0.049   8.444  21.863  0.00  0.00    +0.000 C 
ATOM      2  C   UNL     1       0.251   9.333  20.689  0.00  0.00    +0.000 C 
ATOM      3  O   UNL     1      -0.314  10.429  20.606  0.00  0.00    +0.000 OA
ATOM      4  N   UNL     1       1.139   8.910  19.723  0.00  0.00    +0.000 N 
ATOM      5  C   UNL     1       1.408   9.778  18.567  0.00  0.00    +0.000 C 
ATOM      6  C   UNL     1       2.234   8.971  17.565  0.00  0.00    +0.000 C 
ATOM      7  C   UNL     1       2.589   7.759  18.369  0.00  0.00    +0.000 A 
ATOM      8  C   UNL     1       3.415   6.710  17.975  0.00  0.00    +0.000 A 
ATOM      9  C   UNL     1       3.592   5.647  18.865  0.00  0.00    +0.000 A 
ATOM     10  C   UNL     1       2.958   5.643  20.114  0.00  0.00    +0.000 A 
ATOM     11  C   UNL     1       2.120   6.697  20.488  0.00  0.00    +0.000 A 
ATOM     12  C   UNL     1       1.930   7.751  19.608  0.00  0.00    +0.000 A 
ENDROOT
BRANCH   9  13
ATOM     13  S   UNL     1       4.593   4.250  18.421  0.00  0.00    +0.000 S 
ATOM     14  O   UNL     1       5.364   4.636  17.258  0.00  0.00    +0.000 OA
ATOM     15  O   UNL     1       5.236   3.751  19.617  0.00  0.00    +0.000 OA
BRANCH  13  16
ATOM     16  N   UNL     1       3.448   3.081  17.928  0.00  0.00    +0.000 NA
ATOM     17  C   UNL     1       2.209   3.584  17.289  0.00  0.00    +0.000 C 
ATOM     18  C   UNL     1       1.159   3.539  18.380  0.00  0.00    +0.000 C 
ATOM     19  C   UNL     1       1.526   2.311  19.187  0.00  0.00    +0.000 C 
ATOM     20  C   UNL     1       3.033   2.148  19.018  0.00  0.00    +0.000 C 
ENDBRANCH  13  16
ENDBRANCH   9  13
TORSDOF 2
ENDMDL
MODEL 6
REMARK VINA RESULT:      -7.3      2.215      6.227
REMARK  Name = 
REMARK  3 active torsions:
REMARK  status: ('A' for Active; 'I' for Inactive)
REMARK    1  A    between atoms: C_1  and  C_2
REMARK    2  A    between atoms: C_9  and  S_10
REMARK    3  A    between atoms: S_10  and  N_13
REMARK                            x       y       z     vdW  Elec       q    Type
REMARK                         _______ _______ _______ _____ _____    ______ ____
ROOT
ATOM      1  C   UNL     1       6.385   4.068  13.661  0.00  0.00    +0.000 C 
ATOM      2  C   UNL     1       7.145   4.972  14.590  0.00  0.00    +0.000 C 
ATOM      3  O   UNL     1       8.073   5.652  14.139  0.00  0.00    +0.000 OA
ATOM      4  N   UNL     1       6.806   5.019  15.926  0.00  0.00    +0.000 N 
ATOM      5  C   UNL     1       7.572   5.889  16.830  0.00  0.00    +0.000 C 
ATOM      6  C   UNL     1       7.134   5.570  18.260  0.00  0.00    +0.000 C 
ATOM      7  C   UNL     1       5.942   4.697  18.025  0.00  0.00    +0.000 A 
ATOM      8  C   UNL     1       5.086   4.176  18.993  0.00  0.00    +0.000 A 
ATOM      9  C   UNL     1       4.045   3.348  18.567  0.00  0.00    +0.000 A 
ATOM     10  C   UNL     1       3.867   3.056  17.209  0.00  0.00    +0.000 A 
ATOM     11  C   UNL     1       4.743   3.576  16.252  0.00  0.00    +0.000 A 
ATOM     12  C   UNL     1       5.787   4.389  16.665  0.00  0.00    +0.000 A 
ENDROOT
BRANCH   9  13
ATOM     13  S   UNL     1       2.938   2.607  19.742  0.00  0.00    +0.000 S 
ATOM     14  O   UNL     1       2.323   1.474  19.084  0.00  0.00    +0.000 OA
ATOM     15  O   UNL     1       3.640   2.457  20.999  0.00  0.00    +0.000 OA
BRANCH  13  16
ATOM     16  N   UNL     1       1.737   3.802  19.965  0.00  0.00    +0.000 NA
ATOM     17  C   UNL     1       1.351   4.595  18.773  0.00  0.00    +0.000 C 
ATOM     18  C   UNL     1       2.089   5.910  18.923  0.00  0.00    +0.000 C 
ATOM     19  C   UNL     1       2.095   6.154  20.418  0.00  0.00    +0.000 C 
ATOM     20  C   UNL     1       2.046   4.771  21.058  0.00  0.00    +0.000 C 
ENDBRANCH  13  16
ENDBRANCH   9  13
TORSDOF 2
ENDMDL
MODEL 7
REMARK VINA RESULT:      -7.2      2.109      2.639
REMARK  Name = 
REMARK  3 active torsions:
REMARK  status: ('A' for Active; 'I' for Inactive)
REMARK    1  A    between atoms: C_1  and  C_2
REMARK    2  A    between atoms: C_9  and  S_10
REMARK    3  A    between atoms: S_10  and  N_13
REMARK                            x       y       z     vdW  Elec       q    Type
REMARK                         _______ _______ _______ _____ _____    ______ ____
ROOT
ATOM      1  C   UNL     1       1.572   9.097  19.882  0.00  0.00    +0.000 C 
ATOM      2  C   UNL     1       1.329   7.772  20.547  0.00  0.00    +0.000 C 
ATOM      3  O   UNL     1       0.557   7.717  21.510  0.00  0.00    +0.000 OA
ATOM      4  N   UNL     1       1.976   6.647  20.082  0.00  0.00    +0.000 N 
ATOM      5  C   UNL     1       1.749   5.360  20.755  0.00  0.00    +0.000 C 
ATOM      6  C   UNL     1       2.752   4.356  20.184  0.00  0.00    +0.000 C 
ATOM      7  C   UNL     1       3.314   5.114  19.023  0.00  0.00    +0.000 A 
ATOM      8  C   UNL     1       4.226   4.643  18.082  0.00  0.00    +0.000 A 
ATOM      9  C   UNL     1       4.656   5.526  17.089  0.00  0.00    +0.000 A 
ATOM     10  C   UNL     1       4.181   6.843  17.043  0.00  0.00    +0.000 A 
ATOM     11  C   UNL     1       3.277   7.305  18.004  0.00  0.00    +0.000 A 
ATOM     12  C   UNL     1       2.852   6.440  19.000  0.00  0.00    +0.000 A 
ENDROOT
BRANCH   9  13
ATOM     13  S   UNL     1       5.852   5.017  15.880  0.00  0.00    +0.000 S 
ATOM     14  O   UNL     1       5.762   3.576  15.779  0.00  0.00    +0.000 OA
ATOM     15  O   UNL     1       5.710   5.862  14.713  0.00  0.00    +0.000 OA
BRANCH  13  16
ATOM     16  N   UNL     1       7.347   5.401  16.612  0.00  0.00    +0.000 NA
ATOM     17  C   UNL     1       7.705   4.650  17.839  0.00  0.00    +0.000 C 
ATOM     18  C   UNL     1       7.384   5.590  18.982  0.00  0.00    +0.000 C 
ATOM     19  C   UNL     1       7.716   6.961  18.428  0.00  0.00    +0.000 C 
ATOM     20  C   UNL     1       7.512   6.853  16.921  0.00  0.00    +0.000 C 
ENDBRANCH  13  16
ENDBRANCH   9  13
TORSDOF 2
ENDMDL
MODEL 8
REMARK VINA RESULT:      -7.2      4.569      6.414
REMARK  Name = 
REMARK  3 active torsions:
REMARK  status: ('A' for Active; 'I' for Inactive)
REMARK    1  A    between atoms: C_1  and  C_2
REMARK    2  A    between atoms: C_9  and  S_10
REMARK    3  A    between atoms: S_10  and  N_13
REMARK                            x       y       z     vdW  Elec       q    Type
REMARK                         _______ _______ _______ _____ _____    ______ ____
ROOT
ATOM      1  C   UNL     1      -0.600   9.888  22.666  0.00  0.00    +0.000 C 
ATOM      2  C   UNL     1      -0.372  10.723  21.438  0.00  0.00    +0.000 C 
ATOM      3  O   UNL     1      -0.874  11.851  21.378  0.00  0.00    +0.000 OA
ATOM      4  N   UNL     1       0.382  10.218  20.400  0.00  0.00    +0.000 N 
ATOM      5  C   UNL     1       0.580  11.035  19.194  0.00  0.00    +0.000 C 
ATOM      6  C   UNL     1       1.245  10.149  18.139  0.00  0.00    +0.000 C 
ATOM      7  C   UNL     1       1.607   8.939  18.943  0.00  0.00    +0.000 A 
ATOM      8  C   UNL     1       2.321   7.828  18.502  0.00  0.00    +0.000 A 
ATOM      9  C   UNL     1       2.525   6.782  19.404  0.00  0.00    +0.000 A 
ATOM     10  C   UNL     1       2.028   6.852  20.712  0.00  0.00    +0.000 A 
ATOM     11  C   UNL     1       1.301   7.968  21.134  0.00  0.00    +0.000 A 
ATOM     12  C   UNL     1       1.083   9.007  20.243  0.00  0.00    +0.000 A 
ENDROOT
BRANCH   9  13
ATOM     13  S   UNL     1       3.386   5.311  18.906  0.00  0.00    +0.000 S 
ATOM     14  O   UNL     1       3.161   5.151  17.485  0.00  0.00    +0.000 OA
ATOM     15  O   UNL     1       4.725   5.357  19.455  0.00  0.00    +0.000 OA
BRANCH  13  16
ATOM     16  N   UNL     1       2.543   4.064  19.715  0.00  0.00    +0.000 NA
ATOM     17  C   UNL     1       3.269   2.786  19.915  0.00  0.00    +0.000 C 
ATOM     18  C   UNL     1       2.745   1.864  18.834  0.00  0.00    +0.000 C 
ATOM     19  C   UNL     1       1.289   2.260  18.693  0.00  0.00    +0.000 C 
ATOM     20  C   UNL     1       1.225   3.729  19.098  0.00  0.00    +0.000 C 
ENDBRANCH  13  16
ENDBRANCH   9  13
TORSDOF 2
ENDMDL
MODEL 9
REMARK VINA RESULT:      -7.1      2.047      3.291
REMARK  Name = 
REMARK  3 active torsions:
REMARK  status: ('A' for Active; 'I' for Inactive)
REMARK    1  A    between atoms: C_1  and  C_2
REMARK    2  A    between atoms: C_9  and  S_10
REMARK    3  A    between atoms: S_10  and  N_13
REMARK                            x       y       z     vdW  Elec       q    Type
REMARK                         _______ _______ _______ _____ _____    ______ ____
ROOT
ATOM      1  C   UNL     1       1.682   1.888  19.240  0.00  0.00    +0.000 C 
ATOM      2  C   UNL     1       1.382   3.253  19.790  0.00  0.00    +0.000 C 
ATOM      3  O   UNL     1       0.389   3.406  20.508  0.00  0.00    +0.000 OA
ATOM      4  N   UNL     1       2.209   4.311  19.476  0.00  0.00    +0.000 N 
ATOM      5  C   UNL     1       1.894   5.648  20.001  0.00  0.00    +0.000 C 
ATOM      6  C   UNL     1       2.829   6.646  19.317  0.00  0.00    +0.000 C 
ATOM      7  C   UNL     1       3.795   5.734  18.627  0.00  0.00    +0.000 A 
ATOM      8  C   UNL     1       4.928   6.108  17.909  0.00  0.00    +0.000 A 
ATOM      9  C   UNL     1       5.684   5.099  17.307  0.00  0.00    +0.000 A 
ATOM     10  C   UNL     1       5.312   3.754  17.427  0.00  0.00    +0.000 A 
ATOM     11  C   UNL     1       4.163   3.396  18.139  0.00  0.00    +0.000 A 
ATOM     12  C   UNL     1       3.401   4.391  18.730  0.00  0.00    +0.000 A 
ENDROOT
BRANCH   9  13
ATOM     13  S   UNL     1       7.116   5.496  16.337  0.00  0.00    +0.000 S 
ATOM     14  O   UNL     1       7.543   6.820  16.737  0.00  0.00    +0.000 OA
ATOM     15  O   UNL     1       8.024   4.369  16.380  0.00  0.00    +0.000 OA
BRANCH  13  16
ATOM     16  N   UNL     1       6.503   5.600  14.745  0.00  0.00    +0.000 NA
ATOM     17  C   UNL     1       5.248   4.862  14.461  0.00  0.00    +0.000 C 
ATOM     18  C   UNL     1       5.689   3.595  13.758  0.00  0.00    +0.000 C 
ATOM     19  C   UNL     1       6.885   4.033  12.937  0.00  0.00    +0.000 C 
ATOM     20  C   UNL     1       7.489   5.212  13.693  0.00  0.00    +0.000 C 
ENDBRANCH  13  16
ENDBRANCH   9  13
TORSDOF 2
ENDMDL
