MODEL 1
REMARK VINA RESULT:      -8.4      0.000      0.000
REMARK  Name = 
REMARK  12 active torsions:
REMARK  status: ('A' for Active; 'I' for Inactive)
REMARK    1  A    between atoms: C_1  and  C_2
REMARK    2  A    between atoms: C_2  and  O_3
REMARK    3  A    between atoms: O_3  and  C_4
REMARK    4  A    between atoms: C_4  and  C_6
REMARK    5  A    between atoms: N_8  and  C_9
REMARK    6  A    between atoms: C_9  and  C_10
REMARK    7  A    between atoms: C_13  and  C_14
REMARK    8  A    between atoms: C_19  and  C_20
REMARK    9  A    between atoms: C_30  and  C_31
REMARK   10  A    between atoms: C_30  and  C_33
REMARK   11  A    between atoms: C_31  and  C_32
REMARK   12  A    between atoms: C_33  and  C_34
REMARK                            x       y       z     vdW  Elec       q    Type
REMARK                         _______ _______ _______ _____ _____    ______ ____
ROOT
ATOM      1  C   UNL     1       0.724   9.241  19.691  0.00  0.00    +0.000 A 
ATOM      2  C   UNL     1       1.332   8.251  20.472  0.00  0.00    +0.000 A 
ATOM      3  C   UNL     1       2.277   7.370  19.920  0.00  0.00    +0.000 A 
ATOM      4  C   UNL     1       2.617   7.408  18.557  0.00  0.00    +0.000 A 
ATOM      5  C   UNL     1       2.078   8.480  17.822  0.00  0.00    +0.000 A 
ATOM      6  C   UNL     1       1.190   9.409  18.387  0.00  0.00    +0.000 A 
ENDROOT
BRANCH   4   7
ATOM      7  C   UNL     1       3.416   6.304  17.923  0.00  0.00    +0.000 A 
ATOM      8  C   UNL     1       4.353   6.636  16.909  0.00  0.00    +0.000 A 
ATOM      9  C   UNL     1       5.193   5.686  16.314  0.00  0.00    +0.000 A 
ATOM     10  C   UNL     1       5.161   4.369  16.743  0.00  0.00    +0.000 A 
ATOM     11  C   UNL     1       4.262   4.001  17.739  0.00  0.00    +0.000 A 
ATOM     12  C   UNL     1       3.368   4.939  18.304  0.00  0.00    +0.000 A 
BRANCH  12  13
ATOM     13  C   UNL     1       2.398   4.411  19.246  0.00  0.00    +0.000 A 
ATOM     14  N   UNL     1       2.687   4.175  20.564  0.00  0.00    +0.000 NA
ATOM     15  N   UNL     1       1.570   3.753  21.137  0.00  0.00    +0.000 NA
ATOM     16  N   UNL     1       0.678   3.728  20.142  0.00  0.00    +0.000 N 
ATOM     17  N   UNL     1       1.131   4.080  18.933  0.00  0.00    +0.000 NA
ATOM     18  H   UNL     1      -0.294   3.478  20.298  0.00  0.00    +0.000 HD
ENDBRANCH  12  13
ENDBRANCH   4   7
BRANCH   1  19
ATOM     19  C   UNL     1      -0.571   9.930  20.102  0.00  0.00    +0.000 C 
BRANCH  19  22
ATOM     20  C   UNL     1      -1.583  12.423  18.433  0.00  0.00    +0.000 C 
ATOM     21  C   UNL     1      -0.831  12.395  19.553  0.00  0.00    +0.000 C 
ATOM     22  N   UNL     1      -0.485  11.351  20.381  0.00  0.00    +0.000 N 
ATOM     23  C   UNL     1       0.051  11.772  21.596  0.00  0.00    +0.000 C 
ATOM     24  O   UNL     1       0.359  11.079  22.555  0.00  0.00    +0.000 OA
ATOM     25  C   UNL     1       0.221  13.262  21.562  0.00  0.00    +0.000 C 
ATOM     26  C   UNL     1      -0.335  13.704  20.195  0.00  0.00    +0.000 C 
BRANCH  20  27
ATOM     27  C   UNL     1      -2.504  11.485  17.756  0.00  0.00    +0.000 C 
ATOM     28  O   UNL     1      -3.554  11.129  18.268  0.00  0.00    +0.000 OA
BRANCH  27  29
ATOM     29  O   UNL     1      -1.903  10.900  16.693  0.00  0.00    +0.000 OA
BRANCH  29  31
ATOM     30  C   UNL     1      -3.010  10.165  14.648  0.00  0.00    +0.000 C 
ATOM     31  C   UNL     1      -2.623   9.814  16.077  0.00  0.00    +0.000 C 
ENDBRANCH  29  31
ENDBRANCH  27  29
ENDBRANCH  20  27
BRANCH  26  32
ATOM     32  C   UNL     1       0.765  14.417  19.354  0.00  0.00    +0.000 C 
ATOM     33  C   UNL     1       1.969  13.572  18.942  0.00  0.00    +0.000 C 
ENDBRANCH  26  32
BRANCH  26  34
ATOM     34  C   UNL     1      -1.510  14.715  20.409  0.00  0.00    +0.000 C 
ATOM     35  C   UNL     1      -1.242  16.159  19.979  0.00  0.00    +0.000 C 
ENDBRANCH  26  34
ENDBRANCH  19  22
ENDBRANCH   1  19
TORSDOF 9
ENDMDL
MODEL 2
REMARK VINA RESULT:      -8.3      1.134      1.633
REMARK  Name = 
REMARK  12 active torsions:
REMARK  status: ('A' for Active; 'I' for Inactive)
REMARK    1  A    between atoms: C_1  and  C_2
REMARK    2  A    between atoms: C_2  and  O_3
REMARK    3  A    between atoms: O_3  and  C_4
REMARK    4  A    between atoms: C_4  and  C_6
REMARK    5  A    between atoms: N_8  and  C_9
REMARK    6  A    between atoms: C_9  and  C_10
REMARK    7  A    between atoms: C_13  and  C_14
REMARK    8  A    between atoms: C_19  and  C_20
REMARK    9  A    between atoms: C_30  and  C_31
REMARK   10  A    between atoms: C_30  and  C_33
REMARK   11  A    between atoms: C_31  and  C_32
REMARK   12  A    between atoms: C_33  and  C_34
REMARK                            x       y       z     vdW  Elec       q    Type
REMARK                         _______ _______ _______ _____ _____    ______ ____
ROOT
ATOM      1  C   UNL     1       1.116   8.610  19.793  0.00  0.00    +0.000 A 
ATOM      2  C   UNL     1       1.782   7.510  20.345  0.00  0.00    +0.000 A 
ATOM      3  C   UNL     1       2.739   6.796  19.606  0.00  0.00    +0.000 A 
ATOM      4  C   UNL     1       3.035   7.118  18.270  0.00  0.00    +0.000 A 
ATOM      5  C   UNL     1       2.436   8.293  17.778  0.00  0.00    +0.000 A 
ATOM      6  C   UNL     1       1.535   9.054  18.539  0.00  0.00    +0.000 A 
ENDROOT
BRANCH   4   7
ATOM      7  C   UNL     1       3.852   6.196  17.409  0.00  0.00    +0.000 A 
ATOM      8  C   UNL     1       4.901   6.746  16.627  0.00  0.00    +0.000 A 
ATOM      9  C   UNL     1       5.761   5.956  15.852  0.00  0.00    +0.000 A 
ATOM     10  C   UNL     1       5.633   4.577  15.864  0.00  0.00    +0.000 A 
ATOM     11  C   UNL     1       4.621   3.995  16.622  0.00  0.00    +0.000 A 
ATOM     12  C   UNL     1       3.710   4.786  17.360  0.00  0.00    +0.000 A 
BRANCH  12  13
ATOM     13  C   UNL     1       2.627   4.073  18.012  0.00  0.00    +0.000 A 
ATOM     14  N   UNL     1       1.351   4.039  17.518  0.00  0.00    +0.000 NA
ATOM     15  N   UNL     1       0.642   3.263  18.324  0.00  0.00    +0.000 NA
ATOM     16  N   UNL     1       1.509   2.892  19.271  0.00  0.00    +0.000 N 
ATOM     17  N   UNL     1       2.747   3.392  19.167  0.00  0.00    +0.000 NA
ATOM     18  H   UNL     1       1.252   2.251  20.014  0.00  0.00    +0.000 HD
ENDBRANCH  12  13
ENDBRANCH   4   7
BRANCH   1  19
ATOM     19  C   UNL     1      -0.189   9.151  20.365  0.00  0.00    +0.000 C 
BRANCH  19  22
ATOM     20  C   UNL     1      -1.311  11.368  18.402  0.00  0.00    +0.000 C 
ATOM     21  C   UNL     1      -0.660  11.517  19.574  0.00  0.00    +0.000 C 
ATOM     22  N   UNL     1      -0.278  10.591  20.519  0.00  0.00    +0.000 N 
ATOM     23  C   UNL     1       0.103  11.167  21.728  0.00  0.00    +0.000 C 
ATOM     24  O   UNL     1       0.398  10.595  22.767  0.00  0.00    +0.000 OA
ATOM     25  C   UNL     1       0.116  12.659  21.571  0.00  0.00    +0.000 C 
ATOM     26  C   UNL     1      -0.363  12.922  20.131  0.00  0.00    +0.000 C 
BRANCH  20  27
ATOM     27  C   UNL     1      -2.065  10.279  17.744  0.00  0.00    +0.000 C 
ATOM     28  O   UNL     1      -1.570   9.589  16.867  0.00  0.00    +0.000 OA
BRANCH  27  29
ATOM     29  O   UNL     1      -3.385  10.360  18.039  0.00  0.00    +0.000 OA
BRANCH  29  31
ATOM     30  C   UNL     1      -4.931  12.011  18.950  0.00  0.00    +0.000 C 
ATOM     31  C   UNL     1      -4.009  11.637  17.798  0.00  0.00    +0.000 C 
ENDBRANCH  29  31
ENDBRANCH  27  29
ENDBRANCH  20  27
BRANCH  26  32
ATOM     32  C   UNL     1       0.725  13.683  19.315  0.00  0.00    +0.000 C 
ATOM     33  C   UNL     1       2.034  12.940  19.058  0.00  0.00    +0.000 C 
ENDBRANCH  26  32
BRANCH  26  34
ATOM     34  C   UNL     1      -1.652  13.808  20.161  0.00  0.00    +0.000 C 
ATOM     35  C   UNL     1      -1.437  15.302  20.414  0.00  0.00    +0.000 C 
ENDBRANCH  26  34
ENDBRANCH  19  22
ENDBRANCH   1  19
TORSDOF 9
ENDMDL
MODEL 3
REMARK VINA RESULT:      -8.3      0.983      1.202
REMARK  Name = 
REMARK  12 active torsions:
REMARK  status: ('A' for Active; 'I' for Inactive)
REMARK    1  A    between atoms: C_1  and  C_2
REMARK    2  A    between atoms: C_2  and  O_3
REMARK    3  A    between atoms: O_3  and  C_4
REMARK    4  A    between atoms: C_4  and  C_6
REMARK    5  A    between atoms: N_8  and  C_9
REMARK    6  A    between atoms: C_9  and  C_10
REMARK    7  A    between atoms: C_13  and  C_14
REMARK    8  A    between atoms: C_19  and  C_20
REMARK    9  A    between atoms: C_30  and  C_31
REMARK   10  A    between atoms: C_30  and  C_33
REMARK   11  A    between atoms: C_31  and  C_32
REMARK   12  A    between atoms: C_33  and  C_34
REMARK                            x       y       z     vdW  Elec       q    Type
REMARK                         _______ _______ _______ _____ _____    ______ ____
ROOT
ATOM      1  C   UNL     1       1.085   8.721  19.686  0.00  0.00    +0.000 A 
ATOM      2  C   UNL     1       1.730   7.635  20.288  0.00  0.00    +0.000 A 
ATOM      3  C   UNL     1       2.694   6.888  19.592  0.00  0.00    +0.000 A 
ATOM      4  C   UNL     1       3.019   7.162  18.252  0.00  0.00    +0.000 A 
ATOM      5  C   UNL     1       2.441   8.324  17.710  0.00  0.00    +0.000 A 
ATOM      6  C   UNL     1       1.533   9.119  18.426  0.00  0.00    +0.000 A 
ENDROOT
BRANCH   4   7
ATOM      7  C   UNL     1       3.844   6.204  17.439  0.00  0.00    +0.000 A 
ATOM      8  C   UNL     1       4.923   6.716  16.672  0.00  0.00    +0.000 A 
ATOM      9  C   UNL     1       5.790   5.892  15.942  0.00  0.00    +0.000 A 
ATOM     10  C   UNL     1       5.640   4.516  15.988  0.00  0.00    +0.000 A 
ATOM     11  C   UNL     1       4.598   3.971  16.732  0.00  0.00    +0.000 A 
ATOM     12  C   UNL     1       3.680   4.795  17.424  0.00  0.00    +0.000 A 
BRANCH  12  13
ATOM     13  C   UNL     1       2.568   4.118  18.064  0.00  0.00    +0.000 A 
ATOM     14  N   UNL     1       1.322   4.033  17.503  0.00  0.00    +0.000 NA
ATOM     15  N   UNL     1       0.576   3.307  18.322  0.00  0.00    +0.000 NA
ATOM     16  N   UNL     1       1.391   3.016  19.341  0.00  0.00    +0.000 N 
ATOM     17  N   UNL     1       2.628   3.523  19.270  0.00  0.00    +0.000 NA
ATOM     18  H   UNL     1       1.097   2.426  20.113  0.00  0.00    +0.000 HD
ENDBRANCH  12  13
ENDBRANCH   4   7
BRANCH   1  19
ATOM     19  C   UNL     1      -0.225   9.293  20.214  0.00  0.00    +0.000 C 
BRANCH  19  22
ATOM     20  C   UNL     1      -1.454  11.492  18.295  0.00  0.00    +0.000 C 
ATOM     21  C   UNL     1      -0.726  11.651  19.420  0.00  0.00    +0.000 C 
ATOM     22  N   UNL     1      -0.291  10.735  20.352  0.00  0.00    +0.000 N 
ATOM     23  C   UNL     1       0.174  11.325  21.523  0.00  0.00    +0.000 C 
ATOM     24  O   UNL     1       0.532  10.766  22.550  0.00  0.00    +0.000 OA
ATOM     25  C   UNL     1       0.191  12.815  21.344  0.00  0.00    +0.000 C 
ATOM     26  C   UNL     1      -0.380  13.061  19.935  0.00  0.00    +0.000 C 
BRANCH  20  27
ATOM     27  C   UNL     1      -2.260  10.402  17.705  0.00  0.00    +0.000 C 
ATOM     28  O   UNL     1      -2.858   9.593  18.399  0.00  0.00    +0.000 OA
BRANCH  27  29
ATOM     29  O   UNL     1      -2.005  10.274  16.381  0.00  0.00    +0.000 OA
BRANCH  29  31
ATOM     30  C   UNL     1      -3.299  10.070  14.325  0.00  0.00    +0.000 C 
ATOM     31  C   UNL     1      -2.909  10.962  15.494  0.00  0.00    +0.000 C 
ENDBRANCH  29  31
ENDBRANCH  27  29
ENDBRANCH  20  27
BRANCH  26  32
ATOM     32  C   UNL     1       0.659  13.799  19.038  0.00  0.00    +0.000 C 
ATOM     33  C   UNL     1       1.988  13.086  18.798  0.00  0.00    +0.000 C 
ENDBRANCH  26  32
BRANCH  26  34
ATOM     34  C   UNL     1      -1.656  13.960  20.035  0.00  0.00    +0.000 C 
ATOM     35  C   UNL     1      -1.935  14.584  21.405  0.00  0.00    +0.000 C 
ENDBRANCH  26  34
ENDBRANCH  19  22
ENDBRANCH   1  19
TORSDOF 9
ENDMDL
MODEL 4
REMARK VINA RESULT:      -8.2      1.052      1.301
REMARK  Name = 
REMARK  12 active torsions:
REMARK  status: ('A' for Active; 'I' for Inactive)
REMARK    1  A    between atoms: C_1  and  C_2
REMARK    2  A    between atoms: C_2  and  O_3
REMARK    3  A    between atoms: O_3  and  C_4
REMARK    4  A    between atoms: C_4  and  C_6
REMARK    5  A    between atoms: N_8  and  C_9
REMARK    6  A    between atoms: C_9  and  C_10
REMARK    7  A    between atoms: C_13  and  C_14
REMARK    8  A    between atoms: C_19  and  C_20
REMARK    9  A    between atoms: C_30  and  C_31
REMARK   10  A    between atoms: C_30  and  C_33
REMARK   11  A    between atoms: C_31  and  C_32
REMARK   12  A    between atoms: C_33  and  C_34
REMARK                            x       y       z     vdW  Elec       q    Type
REMARK                         _______ _______ _______ _____ _____    ______ ____
ROOT
ATOM      1  C   UNL     1       1.228   8.886  19.296  0.00  0.00    +0.000 A 
ATOM      2  C   UNL     1       1.704   7.764  19.984  0.00  0.00    +0.000 A 
ATOM      3  C   UNL     1       2.633   6.892  19.394  0.00  0.00    +0.000 A 
ATOM      4  C   UNL     1       3.087   7.074  18.076  0.00  0.00    +0.000 A 
ATOM      5  C   UNL     1       2.681   8.267  17.450  0.00  0.00    +0.000 A 
ATOM      6  C   UNL     1       1.811   9.182  18.064  0.00  0.00    +0.000 A 
ENDROOT
BRANCH   4   7
ATOM      7  C   UNL     1       3.864   6.003  17.365  0.00  0.00    +0.000 A 
ATOM      8  C   UNL     1       4.923   6.388  16.501  0.00  0.00    +0.000 A 
ATOM      9  C   UNL     1       5.747   5.459  15.853  0.00  0.00    +0.000 A 
ATOM     10  C   UNL     1       5.574   4.103  16.080  0.00  0.00    +0.000 A 
ATOM     11  C   UNL     1       4.551   3.681  16.924  0.00  0.00    +0.000 A 
ATOM     12  C   UNL     1       3.675   4.607  17.536  0.00  0.00    +0.000 A 
BRANCH  12  13
ATOM     13  C   UNL     1       2.575   4.042  18.296  0.00  0.00    +0.000 A 
ATOM     14  N   UNL     1       2.715   3.572  19.575  0.00  0.00    +0.000 NA
ATOM     15  N   UNL     1       1.515   3.184  19.979  0.00  0.00    +0.000 NA
ATOM     16  N   UNL     1       0.723   3.411  18.927  0.00  0.00    +0.000 N 
ATOM     17  N   UNL     1       1.320   3.900  17.833  0.00  0.00    +0.000 NA
ATOM     18  H   UNL     1      -0.278   3.243  18.961  0.00  0.00    +0.000 HD
ENDBRANCH  12  13
ENDBRANCH   4   7
BRANCH   1  19
ATOM     19  C   UNL     1      -0.050   9.613  19.697  0.00  0.00    +0.000 C 
BRANCH  19  22
ATOM     20  C   UNL     1      -1.261  12.061  18.094  0.00  0.00    +0.000 C 
ATOM     21  C   UNL     1      -0.381  12.062  19.117  0.00  0.00    +0.000 C 
ATOM     22  N   UNL     1       0.064  11.041  19.926  0.00  0.00    +0.000 N 
ATOM     23  C   UNL     1       0.739  11.493  21.057  0.00  0.00    +0.000 C 
ATOM     24  O   UNL     1       1.161  10.826  21.991  0.00  0.00    +0.000 OA
ATOM     25  C   UNL     1       0.900  12.982  20.964  0.00  0.00    +0.000 C 
ATOM     26  C   UNL     1       0.184  13.387  19.662  0.00  0.00    +0.000 C 
BRANCH  20  27
ATOM     27  C   UNL     1      -2.253  11.105  17.557  0.00  0.00    +0.000 C 
ATOM     28  O   UNL     1      -1.953  10.264  16.724  0.00  0.00    +0.000 OA
BRANCH  27  29
ATOM     29  O   UNL     1      -3.512  11.479  17.888  0.00  0.00    +0.000 OA
BRANCH  29  31
ATOM     30  C   UNL     1      -5.700  12.286  17.174  0.00  0.00    +0.000 C 
ATOM     31  C   UNL     1      -4.484  11.440  16.824  0.00  0.00    +0.000 C 
ENDBRANCH  29  31
ENDBRANCH  27  29
ENDBRANCH  20  27
BRANCH  26  32
ATOM     32  C   UNL     1       1.175  14.078  18.676  0.00  0.00    +0.000 C 
ATOM     33  C   UNL     1       2.420  13.283  18.287  0.00  0.00    +0.000 C 
ENDBRANCH  26  32
BRANCH  26  34
ATOM     34  C   UNL     1      -0.959  14.404  19.987  0.00  0.00    +0.000 C 
ATOM     35  C   UNL     1      -0.763  15.830  19.464  0.00  0.00    +0.000 C 
ENDBRANCH  26  34
ENDBRANCH  19  22
ENDBRANCH   1  19
TORSDOF 9
ENDMDL
MODEL 5
REMARK VINA RESULT:      -8.2      3.441      8.957
REMARK  Name = 
REMARK  12 active torsions:
REMARK  status: ('A' for Active; 'I' for Inactive)
REMARK    1  A    between atoms: C_1  and  C_2
REMARK    2  A    between atoms: C_2  and  O_3
REMARK    3  A    between atoms: O_3  and  C_4
REMARK    4  A    between atoms: C_4  and  C_6
REMARK    5  A    between atoms: N_8  and  C_9
REMARK    6  A    between atoms: C_9  and  C_10
REMARK    7  A    between atoms: C_13  and  C_14
REMARK    8  A    between atoms: C_19  and  C_20
REMARK    9  A    between atoms: C_30  and  C_31
REMARK   10  A    between atoms: C_30  and  C_33
REMARK   11  A    between atoms: C_31  and  C_32
REMARK   12  A    between atoms: C_33  and  C_34
REMARK                            x       y       z     vdW  Elec       q    Type
REMARK                         _______ _______ _______ _____ _____    ______ ____
ROOT
ATOM      1  C   UNL     1       2.293   7.391  18.755  0.00  0.00    +0.000 A 
ATOM      2  C   UNL     1       1.858   8.593  18.186  0.00  0.00    +0.000 A 
ATOM      3  C   UNL     1       1.148   9.539  18.943  0.00  0.00    +0.000 A 
ATOM      4  C   UNL     1       0.799   9.303  20.284  0.00  0.00    +0.000 A 
ATOM      5  C   UNL     1       1.343   8.141  20.862  0.00  0.00    +0.000 A 
ATOM      6  C   UNL     1       2.118   7.228  20.129  0.00  0.00    +0.000 A 
ENDROOT
BRANCH   4   7
ATOM      7  C   UNL     1      -0.180  10.189  21.001  0.00  0.00    +0.000 A 
ATOM      8  C   UNL     1      -0.155  10.225  22.420  0.00  0.00    +0.000 A 
ATOM      9  C   UNL     1      -0.979  11.074  23.171  0.00  0.00    +0.000 A 
ATOM     10  C   UNL     1      -1.832  11.956  22.528  0.00  0.00    +0.000 A 
ATOM     11  C   UNL     1      -1.885  11.958  21.138  0.00  0.00    +0.000 A 
ATOM     12  C   UNL     1      -1.102  11.064  20.372  0.00  0.00    +0.000 A 
BRANCH  12  13
ATOM     13  C   UNL     1      -1.333  11.078  18.939  0.00  0.00    +0.000 A 
ATOM     14  N   UNL     1      -1.842  10.007  18.254  0.00  0.00    +0.000 NA
ATOM     15  N   UNL     1      -1.972  10.381  16.990  0.00  0.00    +0.000 NA
ATOM     16  N   UNL     1      -1.514  11.636  16.968  0.00  0.00    +0.000 N 
ATOM     17  N   UNL     1      -1.059  12.119  18.131  0.00  0.00    +0.000 NA
ATOM     18  H   UNL     1      -1.529  12.199  16.124  0.00  0.00    +0.000 HD
ENDBRANCH  12  13
ENDBRANCH   4   7
BRANCH   1  19
ATOM     19  C   UNL     1       2.684   6.180  17.916  0.00  0.00    +0.000 C 
BRANCH  19  22
ATOM     20  C   UNL     1       4.837   4.087  18.922  0.00  0.00    +0.000 C 
ATOM     21  C   UNL     1       5.009   5.191  18.164  0.00  0.00    +0.000 C 
ATOM     22  N   UNL     1       4.092   6.046  17.594  0.00  0.00    +0.000 N 
ATOM     23  C   UNL     1       4.652   6.890  16.639  0.00  0.00    +0.000 C 
ATOM     24  O   UNL     1       4.072   7.681  15.911  0.00  0.00    +0.000 OA
ATOM     25  C   UNL     1       6.140   6.698  16.634  0.00  0.00    +0.000 C 
ATOM     26  C   UNL     1       6.411   5.586  17.665  0.00  0.00    +0.000 C 
BRANCH  20  27
ATOM     27  C   UNL     1       3.697   3.213  19.271  0.00  0.00    +0.000 C 
ATOM     28  O   UNL     1       3.302   2.336  18.519  0.00  0.00    +0.000 OA
BRANCH  27  29
ATOM     29  O   UNL     1       3.026   3.700  20.342  0.00  0.00    +0.000 OA
BRANCH  29  31
ATOM     30  C   UNL     1       1.289   2.639  21.686  0.00  0.00    +0.000 C 
ATOM     31  C   UNL     1       2.781   2.767  21.413  0.00  0.00    +0.000 C 
ENDBRANCH  29  31
ENDBRANCH  27  29
ENDBRANCH  20  27
BRANCH  26  32
ATOM     32  C   UNL     1       7.341   6.102  18.804  0.00  0.00    +0.000 C 
ATOM     33  C   UNL     1       8.160   7.356  18.507  0.00  0.00    +0.000 C 
ENDBRANCH  26  32
BRANCH  26  34
ATOM     34  C   UNL     1       7.127   4.384  16.964  0.00  0.00    +0.000 C 
ATOM     35  C   UNL     1       6.840   4.206  15.471  0.00  0.00    +0.000 C 
ENDBRANCH  26  34
ENDBRANCH  19  22
ENDBRANCH   1  19
TORSDOF 9
ENDMDL
MODEL 6
REMARK VINA RESULT:      -8.1      3.407      8.848
REMARK  Name = 
REMARK  12 active torsions:
REMARK  status: ('A' for Active; 'I' for Inactive)
REMARK    1  A    between atoms: C_1  and  C_2
REMARK    2  A    between atoms: C_2  and  O_3
REMARK    3  A    between atoms: O_3  and  C_4
REMARK    4  A    between atoms: C_4  and  C_6
REMARK    5  A    between atoms: N_8  and  C_9
REMARK    6  A    between atoms: C_9  and  C_10
REMARK    7  A    between atoms: C_13  and  C_14
REMARK    8  A    between atoms: C_19  and  C_20
REMARK    9  A    between atoms: C_30  and  C_31
REMARK   10  A    between atoms: C_30  and  C_33
REMARK   11  A    between atoms: C_31  and  C_32
REMARK   12  A    between atoms: C_33  and  C_34
REMARK                            x       y       z     vdW  Elec       q    Type
REMARK                         _______ _______ _______ _____ _____    ______ ____
ROOT
ATOM      1  C   UNL     1       2.240   7.456  18.846  0.00  0.00    +0.000 A 
ATOM      2  C   UNL     1       1.910   8.685  18.262  0.00  0.00    +0.000 A 
ATOM      3  C   UNL     1       1.201   9.661  18.980  0.00  0.00    +0.000 A 
ATOM      4  C   UNL     1       0.749   9.434  20.291  0.00  0.00    +0.000 A 
ATOM      5  C   UNL     1       1.189   8.240  20.891  0.00  0.00    +0.000 A 
ATOM      6  C   UNL     1       1.962   7.292  20.203  0.00  0.00    +0.000 A 
ENDROOT
BRANCH   4   7
ATOM      7  C   UNL     1      -0.228  10.367  20.950  0.00  0.00    +0.000 A 
ATOM      8  C   UNL     1      -0.177  10.523  22.360  0.00  0.00    +0.000 A 
ATOM      9  C   UNL     1      -0.998  11.423  23.053  0.00  0.00    +0.000 A 
ATOM     10  C   UNL     1      -1.874  12.239  22.355  0.00  0.00    +0.000 A 
ATOM     11  C   UNL     1      -1.953  12.123  20.970  0.00  0.00    +0.000 A 
ATOM     12  C   UNL     1      -1.173  11.176  20.267  0.00  0.00    +0.000 A 
BRANCH  12  13
ATOM     13  C   UNL     1      -1.430  11.066  18.843  0.00  0.00    +0.000 A 
ATOM     14  N   UNL     1      -1.915   9.927  18.258  0.00  0.00    +0.000 NA
ATOM     15  N   UNL     1      -2.081  10.192  16.970  0.00  0.00    +0.000 NA
ATOM     16  N   UNL     1      -1.666  11.456  16.838  0.00  0.00    +0.000 N 
ATOM     17  N   UNL     1      -1.207  12.046  17.949  0.00  0.00    +0.000 NA
ATOM     18  H   UNL     1      -1.717  11.948  15.952  0.00  0.00    +0.000 HD
ENDBRANCH  12  13
ENDBRANCH   4   7
BRANCH   1  19
ATOM     19  C   UNL     1       2.622   6.232  18.022  0.00  0.00    +0.000 C 
BRANCH  19  22
ATOM     20  C   UNL     1       4.792   4.231  19.167  0.00  0.00    +0.000 C 
ATOM     21  C   UNL     1       4.953   5.277  18.329  0.00  0.00    +0.000 C 
ATOM     22  N   UNL     1       4.029   6.083  17.703  0.00  0.00    +0.000 N 
ATOM     23  C   UNL     1       4.579   6.857  16.685  0.00  0.00    +0.000 C 
ATOM     24  O   UNL     1       3.989   7.590  15.903  0.00  0.00    +0.000 OA
ATOM     25  C   UNL     1       6.067   6.674  16.685  0.00  0.00    +0.000 C 
ATOM     26  C   UNL     1       6.350   5.643  17.794  0.00  0.00    +0.000 C 
BRANCH  20  27
ATOM     27  C   UNL     1       3.659   3.379  19.586  0.00  0.00    +0.000 C 
ATOM     28  O   UNL     1       3.125   3.506  20.677  0.00  0.00    +0.000 OA
BRANCH  27  29
ATOM     29  O   UNL     1       3.515   2.322  18.751  0.00  0.00    +0.000 OA
BRANCH  29  31
ATOM     30  C   UNL     1       1.088   2.432  18.539  0.00  0.00    +0.000 C 
ATOM     31  C   UNL     1       2.425   2.401  17.812  0.00  0.00    +0.000 C 
ENDBRANCH  29  31
ENDBRANCH  27  29
ENDBRANCH  20  27
BRANCH  26  32
ATOM     32  C   UNL     1       7.283   6.246  18.887  0.00  0.00    +0.000 C 
ATOM     33  C   UNL     1       8.147   7.435  18.472  0.00  0.00    +0.000 C 
ENDBRANCH  26  32
BRANCH  26  34
ATOM     34  C   UNL     1       7.070   4.397  17.180  0.00  0.00    +0.000 C 
ATOM     35  C   UNL     1       7.039   4.285  15.653  0.00  0.00    +0.000 C 
ENDBRANCH  26  34
ENDBRANCH  19  22
ENDBRANCH   1  19
TORSDOF 9
ENDMDL
MODEL 7
REMARK VINA RESULT:      -8.0      3.435      9.087
REMARK  Name = 
REMARK  12 active torsions:
REMARK  status: ('A' for Active; 'I' for Inactive)
REMARK    1  A    between atoms: C_1  and  C_2
REMARK    2  A    between atoms: C_2  and  O_3
REMARK    3  A    between atoms: O_3  and  C_4
REMARK    4  A    between atoms: C_4  and  C_6
REMARK    5  A    between atoms: N_8  and  C_9
REMARK    6  A    between atoms: C_9  and  C_10
REMARK    7  A    between atoms: C_13  and  C_14
REMARK    8  A    between atoms: C_19  and  C_20
REMARK    9  A    between atoms: C_30  and  C_31
REMARK   10  A    between atoms: C_30  and  C_33
REMARK   11  A    between atoms: C_31  and  C_32
REMARK   12  A    between atoms: C_33  and  C_34
REMARK                            x       y       z     vdW  Elec       q    Type
REMARK                         _______ _______ _______ _____ _____    ______ ____
ROOT
ATOM      1  C   UNL     1       2.280   7.113  18.673  0.00  0.00    +0.000 A 
ATOM      2  C   UNL     1       1.834   8.327  18.138  0.00  0.00    +0.000 A 
ATOM      3  C   UNL     1       1.297   9.329  18.964  0.00  0.00    +0.000 A 
ATOM      4  C   UNL     1       1.136   9.142  20.347  0.00  0.00    +0.000 A 
ATOM      5  C   UNL     1       1.694   7.961  20.873  0.00  0.00    +0.000 A 
ATOM      6  C   UNL     1       2.300   6.989  20.062  0.00  0.00    +0.000 A 
ENDROOT
BRANCH   4   7
ATOM      7  C   UNL     1       0.325  10.099  21.174  0.00  0.00    +0.000 A 
ATOM      8  C   UNL     1      -0.381   9.599  22.300  0.00  0.00    +0.000 A 
ATOM      9  C   UNL     1      -1.103  10.427  23.169  0.00  0.00    +0.000 A 
ATOM     10  C   UNL     1      -1.111  11.798  22.972  0.00  0.00    +0.000 A 
ATOM     11  C   UNL     1      -0.428  12.332  21.883  0.00  0.00    +0.000 A 
ATOM     12  C   UNL     1       0.254  11.500  20.965  0.00  0.00    +0.000 A 
BRANCH  12  13
ATOM     13  C   UNL     1       0.826  12.161  19.806  0.00  0.00    +0.000 A 
ATOM     14  N   UNL     1       2.109  12.640  19.777  0.00  0.00    +0.000 NA
ATOM     15  N   UNL     1       2.314  13.125  18.561  0.00  0.00    +0.000 NA
ATOM     16  N   UNL     1       1.149  12.942  17.932  0.00  0.00    +0.000 N 
ATOM     17  N   UNL     1       0.168  12.390  18.655  0.00  0.00    +0.000 NA
ATOM     18  H   UNL     1       1.022  13.186  16.955  0.00  0.00    +0.000 HD
ENDBRANCH  12  13
ENDBRANCH   4   7
BRANCH   1  19
ATOM     19  C   UNL     1       2.475   5.864  17.821  0.00  0.00    +0.000 C 
BRANCH  19  22
ATOM     20  C   UNL     1       4.269   3.256  17.889  0.00  0.00    +0.000 C 
ATOM     21  C   UNL     1       4.594   4.505  17.494  0.00  0.00    +0.000 C 
ATOM     22  N   UNL     1       3.816   5.628  17.320  0.00  0.00    +0.000 N 
ATOM     23  C   UNL     1       4.464   6.639  16.616  0.00  0.00    +0.000 C 
ATOM     24  O   UNL     1       3.995   7.702  16.236  0.00  0.00    +0.000 OA
ATOM     25  C   UNL     1       5.890   6.234  16.387  0.00  0.00    +0.000 C 
ATOM     26  C   UNL     1       6.014   4.822  16.989  0.00  0.00    +0.000 C 
BRANCH  20  27
ATOM     27  C   UNL     1       3.011   2.501  18.075  0.00  0.00    +0.000 C 
ATOM     28  O   UNL     1       2.131   2.495  17.229  0.00  0.00    +0.000 OA
BRANCH  27  29
ATOM     29  O   UNL     1       2.878   2.095  19.360  0.00  0.00    +0.000 OA
BRANCH  29  31
ATOM     30  C   UNL     1       1.536   2.975  21.196  0.00  0.00    +0.000 C 
ATOM     31  C   UNL     1       2.789   3.141  20.348  0.00  0.00    +0.000 C 
ENDBRANCH  29  31
ENDBRANCH  27  29
ENDBRANCH  20  27
BRANCH  26  32
ATOM     32  C   UNL     1       7.084   4.794  18.122  0.00  0.00    +0.000 C 
ATOM     33  C   UNL     1       6.786   5.627  19.367  0.00  0.00    +0.000 C 
ENDBRANCH  26  32
BRANCH  26  34
ATOM     34  C   UNL     1       6.461   3.816  15.878  0.00  0.00    +0.000 C 
ATOM     35  C   UNL     1       6.106   4.199  14.439  0.00  0.00    +0.000 C 
ENDBRANCH  26  34
ENDBRANCH  19  22
ENDBRANCH   1  19
TORSDOF 9
ENDMDL
MODEL 8
REMARK VINA RESULT:      -7.8      2.215      2.728
REMARK  Name = 
REMARK  12 active torsions:
REMARK  status: ('A' for Active; 'I' for Inactive)
REMARK    1  A    between atoms: C_1  and  C_2
REMARK    2  A    between atoms: C_2  and  O_3
REMARK    3  A    between atoms: O_3  and  C_4
REMARK    4  A    between atoms: C_4  and  C_6
REMARK    5  A    between atoms: N_8  and  C_9
REMARK    6  A    between atoms: C_9  and  C_10
REMARK    7  A    between atoms: C_13  and  C_14
REMARK    8  A    between atoms: C_19  and  C_20
REMARK    9  A    between atoms: C_30  and  C_31
REMARK   10  A    between atoms: C_30  and  C_33
REMARK   11  A    between atoms: C_31  and  C_32
REMARK   12  A    between atoms: C_33  and  C_34
REMARK                            x       y       z     vdW  Elec       q    Type
REMARK                         _______ _______ _______ _____ _____    ______ ____
ROOT
ATOM      1  C   UNL     1       1.189   8.937  19.455  0.00  0.00    +0.000 A 
ATOM      2  C   UNL     1       1.669   7.951  20.325  0.00  0.00    +0.000 A 
ATOM      3  C   UNL     1       2.368   6.834  19.841  0.00  0.00    +0.000 A 
ATOM      4  C   UNL     1       2.576   6.629  18.466  0.00  0.00    +0.000 A 
ATOM      5  C   UNL     1       2.185   7.687  17.625  0.00  0.00    +0.000 A 
ATOM      6  C   UNL     1       1.551   8.841  18.111  0.00  0.00    +0.000 A 
ENDROOT
BRANCH   4   7
ATOM      7  C   UNL     1       3.084   5.315  17.942  0.00  0.00    +0.000 A 
ATOM      8  C   UNL     1       2.200   4.205  17.914  0.00  0.00    +0.000 A 
ATOM      9  C   UNL     1       2.562   2.963  17.376  0.00  0.00    +0.000 A 
ATOM     10  C   UNL     1       3.811   2.794  16.803  0.00  0.00    +0.000 A 
ATOM     11  C   UNL     1       4.708   3.858  16.805  0.00  0.00    +0.000 A 
ATOM     12  C   UNL     1       4.375   5.098  17.398  0.00  0.00    +0.000 A 
BRANCH  12  13
ATOM     13  C   UNL     1       5.434   6.090  17.444  0.00  0.00    +0.000 A 
ATOM     14  N   UNL     1       6.380   6.127  18.434  0.00  0.00    +0.000 NA
ATOM     15  N   UNL     1       7.213   7.113  18.137  0.00  0.00    +0.000 NA
ATOM     16  N   UNL     1       6.720   7.635  17.010  0.00  0.00    +0.000 N 
ATOM     17  N   UNL     1       5.593   7.080  16.546  0.00  0.00    +0.000 NA
ATOM     18  H   UNL     1       7.183   8.394  16.520  0.00  0.00    +0.000 HD
ENDBRANCH  12  13
ENDBRANCH   4   7
BRANCH   1  19
ATOM     19  C   UNL     1       0.097   9.922  19.853  0.00  0.00    +0.000 C 
BRANCH  19  22
ATOM     20  C   UNL     1      -0.936  12.271  17.998  0.00  0.00    +0.000 C 
ATOM     21  C   UNL     1       0.063  12.276  18.905  0.00  0.00    +0.000 C 
ATOM     22  N   UNL     1       0.453  11.328  19.824  0.00  0.00    +0.000 N 
ATOM     23  C   UNL     1       1.333  11.824  20.782  0.00  0.00    +0.000 C 
ATOM     24  O   UNL     1       1.770  11.243  21.765  0.00  0.00    +0.000 OA
ATOM     25  C   UNL     1       1.700  13.233  20.422  0.00  0.00    +0.000 C 
ATOM     26  C   UNL     1       0.887  13.554  19.154  0.00  0.00    +0.000 C 
BRANCH  20  27
ATOM     27  C   UNL     1      -2.122  11.428  17.739  0.00  0.00    +0.000 C 
ATOM     28  O   UNL     1      -3.196  11.641  18.281  0.00  0.00    +0.000 OA
BRANCH  27  29
ATOM     29  O   UNL     1      -1.775  10.293  17.086  0.00  0.00    +0.000 OA
BRANCH  29  31
ATOM     30  C   UNL     1      -3.108  10.777  15.102  0.00  0.00    +0.000 C 
ATOM     31  C   UNL     1      -2.759   9.759  16.178  0.00  0.00    +0.000 C 
ENDBRANCH  29  31
ENDBRANCH  27  29
ENDBRANCH  20  27
BRANCH  26  32
ATOM     32  C   UNL     1       1.830  13.911  17.966  0.00  0.00    +0.000 C 
ATOM     33  C   UNL     1       3.332  13.844  18.238  0.00  0.00    +0.000 C 
ENDBRANCH  26  32
BRANCH  26  34
ATOM     34  C   UNL     1      -0.038  14.786  19.423  0.00  0.00    +0.000 C 
ATOM     35  C   UNL     1       0.302  16.065  18.652  0.00  0.00    +0.000 C 
ENDBRANCH  26  34
ENDBRANCH  19  22
ENDBRANCH   1  19
TORSDOF 9
ENDMDL
MODEL 9
REMARK VINA RESULT:      -7.8      2.418      4.341
REMARK  Name = 
REMARK  12 active torsions:
REMARK  status: ('A' for Active; 'I' for Inactive)
REMARK    1  A    between atoms: C_1  and  C_2
REMARK    2  A    between atoms: C_2  and  O_3
REMARK    3  A    between atoms: O_3  and  C_4
REMARK    4  A    between atoms: C_4  and  C_6
REMARK    5  A    between atoms: N_8  and  C_9
REMARK    6  A    between atoms: C_9  and  C_10
REMARK    7  A    between atoms: C_13  and  C_14
REMARK    8  A    between atoms: C_19  and  C_20
REMARK    9  A    between atoms: C_30  and  C_31
REMARK   10  A    between atoms: C_30  and  C_33
REMARK   11  A    between atoms: C_31  and  C_32
REMARK   12  A    between atoms: C_33  and  C_34
REMARK                            x       y       z     vdW  Elec       q    Type
REMARK                         _______ _______ _______ _____ _____    ______ ____
ROOT
ATOM      1  C   UNL     1       1.570   9.227  18.596  0.00  0.00    +0.000 A 
ATOM      2  C   UNL     1       1.403   8.860  19.937  0.00  0.00    +0.000 A 
ATOM      3  C   UNL     1       1.775   7.585  20.391  0.00  0.00    +0.000 A 
ATOM      4  C   UNL     1       2.282   6.606  19.519  0.00  0.00    +0.000 A 
ATOM      5  C   UNL     1       2.544   7.036  18.205  0.00  0.00    +0.000 A 
ATOM      6  C   UNL     1       2.244   8.333  17.763  0.00  0.00    +0.000 A 
ENDROOT
BRANCH   4   7
ATOM      7  C   UNL     1       2.424   5.174  19.954  0.00  0.00    +0.000 A 
ATOM      8  C   UNL     1       1.372   4.580  20.699  0.00  0.00    +0.000 A 
ATOM      9  C   UNL     1       1.385   3.233  21.084  0.00  0.00    +0.000 A 
ATOM     10  C   UNL     1       2.432   2.412  20.698  0.00  0.00    +0.000 A 
ATOM     11  C   UNL     1       3.482   2.952  19.962  0.00  0.00    +0.000 A 
ATOM     12  C   UNL     1       3.509   4.324  19.620  0.00  0.00    +0.000 A 
BRANCH  12  13
ATOM     13  C   UNL     1       4.712   4.794  18.956  0.00  0.00    +0.000 A 
ATOM     14  N   UNL     1       5.724   5.440  19.615  0.00  0.00    +0.000 NA
ATOM     15  N   UNL     1       6.677   5.675  18.726  0.00  0.00    +0.000 NA
ATOM     16  N   UNL     1       6.188   5.189  17.581  0.00  0.00    +0.000 N 
ATOM     17  N   UNL     1       4.956   4.669  17.639  0.00  0.00    +0.000 NA
ATOM     18  H   UNL     1       6.728   5.194  16.721  0.00  0.00    +0.000 HD
ENDBRANCH  12  13
ENDBRANCH   4   7
BRANCH   1  19
ATOM     19  C   UNL     1       0.827  10.399  17.967  0.00  0.00    +0.000 C 
BRANCH  19  22
ATOM     20  C   UNL     1       1.509  13.008  19.625  0.00  0.00    +0.000 C 
ATOM     21  C   UNL     1       0.395  12.247  19.652  0.00  0.00    +0.000 C 
ATOM     22  N   UNL     1       0.002  11.193  18.858  0.00  0.00    +0.000 N 
ATOM     23  C   UNL     1      -1.342  10.866  19.008  0.00  0.00    +0.000 C 
ATOM     24  O   UNL     1      -1.986  10.044  18.372  0.00  0.00    +0.000 OA
ATOM     25  C   UNL     1      -1.922  11.690  20.120  0.00  0.00    +0.000 C 
ATOM     26  C   UNL     1      -0.774  12.604  20.589  0.00  0.00    +0.000 C 
BRANCH  20  27
ATOM     27  C   UNL     1       2.624  13.214  18.677  0.00  0.00    +0.000 C 
ATOM     28  O   UNL     1       2.972  12.346  17.891  0.00  0.00    +0.000 OA
BRANCH  27  29
ATOM     29  O   UNL     1       3.334  14.322  18.998  0.00  0.00    +0.000 OA
BRANCH  29  31
ATOM     30  C   UNL     1       5.446  14.824  17.889  0.00  0.00    +0.000 C 
ATOM     31  C   UNL     1       3.938  15.028  17.897  0.00  0.00    +0.000 C 
ENDBRANCH  29  31
ENDBRANCH  27  29
ENDBRANCH  20  27
BRANCH  26  32
ATOM     32  C   UNL     1      -0.448  12.356  22.092  0.00  0.00    +0.000 C 
ATOM     33  C   UNL     1      -0.872  11.009  22.673  0.00  0.00    +0.000 C 
ENDBRANCH  26  32
BRANCH  26  34
ATOM     34  C   UNL     1      -1.197  14.102  20.428  0.00  0.00    +0.000 C 
ATOM     35  C   UNL     1      -1.293  14.918  21.720  0.00  0.00    +0.000 C 
ENDBRANCH  26  34
ENDBRANCH  19  22
ENDBRANCH   1  19
TORSDOF 9
ENDMDL
