MODEL 1
REMARK VINA RESULT:      -8.0      0.000      0.000
REMARK  Name = 
REMARK  6 active torsions:
REMARK  status: ('A' for Active; 'I' for Inactive)
REMARK    1  A    between atoms: C_1  and  C_2
REMARK    2  A    between atoms: C_4  and  S_5
REMARK    3  A    between atoms: S_5  and  C_6
REMARK    4  A    between atoms: C_6  and  N_7
REMARK    5  A    between atoms: C_19  and  C_20
REMARK    6  A    between atoms: C_21  and  C_22
REMARK                            x       y       z     vdW  Elec       q    Type
REMARK                         _______ _______ _______ _____ _____    ______ ____
ROOT
ATOM      1  S   UNL     1       2.177   7.604  19.443  0.00  0.00    +0.000 S 
ENDROOT
BRANCH   1   5
ATOM      2  C   UNL     1       1.393   3.063  21.657  0.00  0.00    +0.000 C 
ATOM      3  C   UNL     1       2.047   3.820  20.541  0.00  0.00    +0.000 A 
ATOM      4  N   UNL     1       1.875   5.153  20.507  0.00  0.00    +0.000 NA
ATOM      5  C   UNL     1       2.473   5.864  19.524  0.00  0.00    +0.000 A 
ATOM      6  C   UNL     1       3.284   5.221  18.565  0.00  0.00    +0.000 A 
ATOM      7  C   UNL     1       4.131   5.636  17.446  0.00  0.00    +0.000 A 
ATOM      8  C   UNL     1       4.486   7.041  17.063  0.00  0.00    +0.000 C 
ATOM      9  C   UNL     1       4.589   4.540  16.723  0.00  0.00    +0.000 A 
ATOM     10  C   UNL     1       5.373   4.511  15.449  0.00  0.00    +0.000 C 
ATOM     11  S   UNL     1       4.178   3.059  17.461  0.00  0.00    +0.000 S 
ATOM     12  C   UNL     1       3.311   3.840  18.695  0.00  0.00    +0.000 A 
ATOM     13  N   UNL     1       2.729   3.099  19.652  0.00  0.00    +0.000 NA
ENDBRANCH   1   5
BRANCH   1  14
ATOM     14  C   UNL     1       1.365   7.907  21.047  0.00  0.00    +0.000 C 
BRANCH  14  15
ATOM     15  N   UNL     1       0.630   9.165  20.994  0.00  0.00    +0.000 N 
ATOM     16  N   UNL     1       0.427   9.689  19.745  0.00  0.00    +0.000 NA
ATOM     17  N   UNL     1      -0.294  10.692  19.562  0.00  0.00    +0.000 NA
ATOM     18  C   UNL     1      -0.923  11.308  20.649  0.00  0.00    +0.000 A 
ATOM     19  C   UNL     1      -1.775  12.394  20.413  0.00  0.00    +0.000 A 
ATOM     20  C   UNL     1      -2.408  13.054  21.472  0.00  0.00    +0.000 A 
ATOM     21  C   UNL     1      -2.184  12.640  22.784  0.00  0.00    +0.000 A 
ATOM     22  C   UNL     1      -1.347  11.551  23.032  0.00  0.00    +0.000 A 
ATOM     23  C   UNL     1      -0.738  10.891  21.957  0.00  0.00    +0.000 A 
ATOM     24  C   UNL     1       0.093   9.703  22.148  0.00  0.00    +0.000 A 
ATOM     25  O   UNL     1       0.253   9.248  23.276  0.00  0.00    +0.000 OA
ENDBRANCH  14  15
ENDBRANCH   1  14
TORSDOF 3
ENDMDL
MODEL 2
REMARK VINA RESULT:      -7.7      3.676      8.991
REMARK  Name = 
REMARK  6 active torsions:
REMARK  status: ('A' for Active; 'I' for Inactive)
REMARK    1  A    between atoms: C_1  and  C_2
REMARK    2  A    between atoms: C_4  and  S_5
REMARK    3  A    between atoms: S_5  and  C_6
REMARK    4  A    between atoms: C_6  and  N_7
REMARK    5  A    between atoms: C_19  and  C_20
REMARK    6  A    between atoms: C_21  and  C_22
REMARK                            x       y       z     vdW  Elec       q    Type
REMARK                         _______ _______ _______ _____ _____    ______ ____
ROOT
ATOM      1  S   UNL     1       4.303   6.965  17.471  0.00  0.00    +0.000 S 
ENDROOT
BRANCH   1   5
ATOM      2  C   UNL     1       2.895   3.261  20.700  0.00  0.00    +0.000 C 
ATOM      3  C   UNL     1       2.711   4.682  20.263  0.00  0.00    +0.000 A 
ATOM      4  N   UNL     1       3.443   5.113  19.221  0.00  0.00    +0.000 NA
ATOM      5  C   UNL     1       3.281   6.385  18.790  0.00  0.00    +0.000 A 
ATOM      6  C   UNL     1       2.342   7.238  19.409  0.00  0.00    +0.000 A 
ATOM      7  C   UNL     1       1.838   8.593  19.188  0.00  0.00    +0.000 A 
ATOM      8  C   UNL     1       2.151   9.489  18.028  0.00  0.00    +0.000 C 
ATOM      9  C   UNL     1       1.004   9.000  20.225  0.00  0.00    +0.000 A 
ATOM     10  C   UNL     1       0.376  10.337  20.462  0.00  0.00    +0.000 C 
ATOM     11  S   UNL     1       0.684   7.741  21.329  0.00  0.00    +0.000 S 
ATOM     12  C   UNL     1       1.713   6.669  20.508  0.00  0.00    +0.000 A 
ATOM     13  N   UNL     1       1.850   5.415  20.968  0.00  0.00    +0.000 NA
ENDBRANCH   1   5
BRANCH   1  14
ATOM     14  C   UNL     1       5.656   5.743  17.498  0.00  0.00    +0.000 C 
BRANCH  14  15
ATOM     15  N   UNL     1       6.046   5.414  16.133  0.00  0.00    +0.000 N 
ATOM     16  N   UNL     1       7.271   5.874  15.731  0.00  0.00    +0.000 NA
ATOM     17  N   UNL     1       7.766   5.549  14.630  0.00  0.00    +0.000 NA
ATOM     18  C   UNL     1       7.066   4.693  13.774  0.00  0.00    +0.000 A 
ATOM     19  C   UNL     1       7.667   4.296  12.573  0.00  0.00    +0.000 A 
ATOM     20  C   UNL     1       6.995   3.457  11.677  0.00  0.00    +0.000 A 
ATOM     21  C   UNL     1       5.705   3.017  11.969  0.00  0.00    +0.000 A 
ATOM     22  C   UNL     1       5.100   3.396  13.168  0.00  0.00    +0.000 A 
ATOM     23  C   UNL     1       5.796   4.220  14.062  0.00  0.00    +0.000 A 
ATOM     24  C   UNL     1       5.244   4.593  15.363  0.00  0.00    +0.000 A 
ATOM     25  O   UNL     1       4.147   4.162  15.703  0.00  0.00    +0.000 OA
ENDBRANCH  14  15
ENDBRANCH   1  14
TORSDOF 3
ENDMDL
MODEL 3
REMARK VINA RESULT:      -7.7      2.094      3.102
REMARK  Name = 
REMARK  6 active torsions:
REMARK  status: ('A' for Active; 'I' for Inactive)
REMARK    1  A    between atoms: C_1  and  C_2
REMARK    2  A    between atoms: C_4  and  S_5
REMARK    3  A    between atoms: S_5  and  C_6
REMARK    4  A    between atoms: C_6  and  N_7
REMARK    5  A    between atoms: C_19  and  C_20
REMARK    6  A    between atoms: C_21  and  C_22
REMARK                            x       y       z     vdW  Elec       q    Type
REMARK                         _______ _______ _______ _____ _____    ______ ____
ROOT
ATOM      1  S   UNL     1       3.098   7.386  17.827  0.00  0.00    +0.000 S 
ENDROOT
BRANCH   1   5
ATOM      2  C   UNL     1       7.847   5.836  18.913  0.00  0.00    +0.000 C 
ATOM      3  C   UNL     1       6.404   5.459  18.778  0.00  0.00    +0.000 A 
ATOM      4  N   UNL     1       5.541   6.418  18.400  0.00  0.00    +0.000 NA
ATOM      5  C   UNL     1       4.235   6.100  18.248  0.00  0.00    +0.000 A 
ATOM      6  C   UNL     1       3.789   4.778  18.459  0.00  0.00    +0.000 A 
ATOM      7  C   UNL     1       2.527   4.052  18.320  0.00  0.00    +0.000 A 
ATOM      8  C   UNL     1       1.251   4.576  17.731  0.00  0.00    +0.000 C 
ATOM      9  C   UNL     1       2.624   2.762  18.829  0.00  0.00    +0.000 A 
ATOM     10  C   UNL     1       1.554   1.731  18.999  0.00  0.00    +0.000 C 
ATOM     11  S   UNL     1       4.218   2.365  19.287  0.00  0.00    +0.000 S 
ATOM     12  C   UNL     1       4.784   3.920  18.907  0.00  0.00    +0.000 A 
ATOM     13  N   UNL     1       6.087   4.199  19.073  0.00  0.00    +0.000 NA
ENDBRANCH   1   5
BRANCH   1  14
ATOM     14  C   UNL     1       2.251   7.655  19.419  0.00  0.00    +0.000 C 
BRANCH  14  15
ATOM     15  N   UNL     1       1.384   8.823  19.321  0.00  0.00    +0.000 N 
ATOM     16  N   UNL     1       1.048   9.215  18.053  0.00  0.00    +0.000 NA
ATOM     17  N   UNL     1       0.213  10.121  17.845  0.00  0.00    +0.000 NA
ATOM     18  C   UNL     1      -0.407  10.761  18.923  0.00  0.00    +0.000 A 
ATOM     19  C   UNL     1      -1.383  11.731  18.665  0.00  0.00    +0.000 A 
ATOM     20  C   UNL     1      -2.015  12.411  19.712  0.00  0.00    +0.000 A 
ATOM     21  C   UNL     1      -1.664  12.135  21.033  0.00  0.00    +0.000 A 
ATOM     22  C   UNL     1      -0.702  11.162  21.304  0.00  0.00    +0.000 A 
ATOM     23  C   UNL     1      -0.095  10.478  20.243  0.00  0.00    +0.000 A 
ATOM     24  C   UNL     1       0.868   9.401  20.465  0.00  0.00    +0.000 A 
ATOM     25  O   UNL     1       1.148   9.062  21.611  0.00  0.00    +0.000 OA
ENDBRANCH  14  15
ENDBRANCH   1  14
TORSDOF 3
ENDMDL
MODEL 4
REMARK VINA RESULT:      -7.6      3.274      8.603
REMARK  Name = 
REMARK  6 active torsions:
REMARK  status: ('A' for Active; 'I' for Inactive)
REMARK    1  A    between atoms: C_1  and  C_2
REMARK    2  A    between atoms: C_4  and  S_5
REMARK    3  A    between atoms: S_5  and  C_6
REMARK    4  A    between atoms: C_6  and  N_7
REMARK    5  A    between atoms: C_19  and  C_20
REMARK    6  A    between atoms: C_21  and  C_22
REMARK                            x       y       z     vdW  Elec       q    Type
REMARK                         _______ _______ _______ _____ _____    ______ ____
ROOT
ATOM      1  S   UNL     1      -0.122  11.925  18.873  0.00  0.00    +0.000 S 
ENDROOT
BRANCH   1   5
ATOM      2  C   UNL     1      -3.094  10.071  15.149  0.00  0.00    +0.000 C 
ATOM      3  C   UNL     1      -3.029  10.726  16.495  0.00  0.00    +0.000 A 
ATOM      4  N   UNL     1      -1.813  11.012  16.991  0.00  0.00    +0.000 NA
ATOM      5  C   UNL     1      -1.726  11.624  18.195  0.00  0.00    +0.000 A 
ATOM      6  C   UNL     1      -2.892  11.979  18.905  0.00  0.00    +0.000 A 
ATOM      7  C   UNL     1      -3.200  12.696  20.143  0.00  0.00    +0.000 A 
ATOM      8  C   UNL     1      -2.230  13.429  21.020  0.00  0.00    +0.000 C 
ATOM      9  C   UNL     1      -4.554  12.615  20.453  0.00  0.00    +0.000 A 
ATOM     10  C   UNL     1      -5.272  13.095  21.674  0.00  0.00    +0.000 C 
ATOM     11  S   UNL     1      -5.458  11.870  19.215  0.00  0.00    +0.000 S 
ATOM     12  C   UNL     1      -4.066  11.560  18.294  0.00  0.00    +0.000 A 
ATOM     13  N   UNL     1      -4.193  10.947  17.106  0.00  0.00    +0.000 NA
ENDBRANCH   1   5
BRANCH   1  14
ATOM     14  C   UNL     1       0.075  10.492  19.982  0.00  0.00    +0.000 C 
BRANCH  14  15
ATOM     15  N   UNL     1       0.926   9.494  19.345  0.00  0.00    +0.000 N 
ATOM     16  N   UNL     1       1.396   9.813  18.099  0.00  0.00    +0.000 NA
ATOM     17  N   UNL     1       2.232   9.096  17.509  0.00  0.00    +0.000 NA
ATOM     18  C   UNL     1       2.714   7.935  18.122  0.00  0.00    +0.000 A 
ATOM     19  C   UNL     1       3.694   7.180  17.467  0.00  0.00    +0.000 A 
ATOM     20  C   UNL     1       4.190   6.001  18.033  0.00  0.00    +0.000 A 
ATOM     21  C   UNL     1       3.698   5.556  19.258  0.00  0.00    +0.000 A 
ATOM     22  C   UNL     1       2.730   6.306  19.927  0.00  0.00    +0.000 A 
ATOM     23  C   UNL     1       2.260   7.494  19.354  0.00  0.00    +0.000 A 
ATOM     24  C   UNL     1       1.298   8.357  20.038  0.00  0.00    +0.000 A 
ATOM     25  O   UNL     1       0.897   8.054  21.157  0.00  0.00    +0.000 OA
ENDBRANCH  14  15
ENDBRANCH   1  14
TORSDOF 3
ENDMDL
MODEL 5
REMARK VINA RESULT:      -7.5      3.726      8.937
REMARK  Name = 
REMARK  6 active torsions:
REMARK  status: ('A' for Active; 'I' for Inactive)
REMARK    1  A    between atoms: C_1  and  C_2
REMARK    2  A    between atoms: C_4  and  S_5
REMARK    3  A    between atoms: S_5  and  C_6
REMARK    4  A    between atoms: C_6  and  N_7
REMARK    5  A    between atoms: C_19  and  C_20
REMARK    6  A    between atoms: C_21  and  C_22
REMARK                            x       y       z     vdW  Elec       q    Type
REMARK                         _______ _______ _______ _____ _____    ______ ____
ROOT
ATOM      1  S   UNL     1      -1.159  11.735  19.727  0.00  0.00    +0.000 S 
ENDROOT
BRANCH   1   5
ATOM      2  C   UNL     1      -2.824  10.451  15.067  0.00  0.00    +0.000 C 
ATOM      3  C   UNL     1      -3.181  10.944  16.436  0.00  0.00    +0.000 A 
ATOM      4  N   UNL     1      -2.180  11.118  17.317  0.00  0.00    +0.000 NA
ATOM      5  C   UNL     1      -2.471  11.584  18.553  0.00  0.00    +0.000 A 
ATOM      6  C   UNL     1      -3.799  11.907  18.904  0.00  0.00    +0.000 A 
ATOM      7  C   UNL     1      -4.475  12.491  20.063  0.00  0.00    +0.000 A 
ATOM      8  C   UNL     1      -3.825  13.076  21.280  0.00  0.00    +0.000 C 
ATOM      9  C   UNL     1      -5.859  12.435  19.925  0.00  0.00    +0.000 A 
ATOM     10  C   UNL     1      -6.921  12.803  20.911  0.00  0.00    +0.000 C 
ATOM     11  S   UNL     1      -6.333  11.876  18.386  0.00  0.00    +0.000 S 
ATOM     12  C   UNL     1      -4.724  11.612  17.912  0.00  0.00    +0.000 A 
ATOM     13  N   UNL     1      -4.476  11.146  16.677  0.00  0.00    +0.000 NA
ENDBRANCH   1   5
BRANCH   1  14
ATOM     14  C   UNL     1       0.289  11.298  18.709  0.00  0.00    +0.000 C 
BRANCH  14  15
ATOM     15  N   UNL     1       0.872  10.055  19.196  0.00  0.00    +0.000 N 
ATOM     16  N   UNL     1       0.476   9.654  20.444  0.00  0.00    +0.000 NA
ATOM     17  N   UNL     1       0.809   8.546  20.915  0.00  0.00    +0.000 NA
ATOM     18  C   UNL     1       1.604   7.677  20.162  0.00  0.00    +0.000 A 
ATOM     19  C   UNL     1       1.915   6.416  20.687  0.00  0.00    +0.000 A 
ATOM     20  C   UNL     1       2.724   5.522  19.977  0.00  0.00    +0.000 A 
ATOM     21  C   UNL     1       3.245   5.889  18.737  0.00  0.00    +0.000 A 
ATOM     22  C   UNL     1       2.933   7.137  18.198  0.00  0.00    +0.000 A 
ATOM     23  C   UNL     1       2.105   8.010  18.914  0.00  0.00    +0.000 A 
ATOM     24  C   UNL     1       1.687   9.302  18.372  0.00  0.00    +0.000 A 
ATOM     25  O   UNL     1       2.049   9.635  17.248  0.00  0.00    +0.000 OA
ENDBRANCH  14  15
ENDBRANCH   1  14
TORSDOF 3
ENDMDL
MODEL 6
REMARK VINA RESULT:      -7.5      1.362      1.485
REMARK  Name = 
REMARK  6 active torsions:
REMARK  status: ('A' for Active; 'I' for Inactive)
REMARK    1  A    between atoms: C_1  and  C_2
REMARK    2  A    between atoms: C_4  and  S_5
REMARK    3  A    between atoms: S_5  and  C_6
REMARK    4  A    between atoms: C_6  and  N_7
REMARK    5  A    between atoms: C_19  and  C_20
REMARK    6  A    between atoms: C_21  and  C_22
REMARK                            x       y       z     vdW  Elec       q    Type
REMARK                         _______ _______ _______ _____ _____    ______ ____
ROOT
ATOM      1  S   UNL     1       2.699   7.594  18.259  0.00  0.00    +0.000 S 
ENDROOT
BRANCH   1   5
ATOM      2  C   UNL     1       0.863   2.851  18.774  0.00  0.00    +0.000 C 
ATOM      3  C   UNL     1       1.960   3.722  18.243  0.00  0.00    +0.000 A 
ATOM      4  N   UNL     1       1.873   5.044  18.471  0.00  0.00    +0.000 NA
ATOM      5  C   UNL     1       2.862   5.851  18.022  0.00  0.00    +0.000 A 
ATOM      6  C   UNL     1       3.977   5.312  17.346  0.00  0.00    +0.000 A 
ATOM      7  C   UNL     1       5.236   5.825  16.806  0.00  0.00    +0.000 A 
ATOM      8  C   UNL     1       5.777   7.215  16.957  0.00  0.00    +0.000 C 
ATOM      9  C   UNL     1       5.914   4.848  16.084  0.00  0.00    +0.000 A 
ATOM     10  C   UNL     1       7.164   4.972  15.271  0.00  0.00    +0.000 C 
ATOM     11  S   UNL     1       5.168   3.320  16.203  0.00  0.00    +0.000 S 
ATOM     12  C   UNL     1       3.890   3.944  17.131  0.00  0.00    +0.000 A 
ATOM     13  N   UNL     1       2.926   3.111  17.557  0.00  0.00    +0.000 NA
ENDBRANCH   1   5
BRANCH   1  14
ATOM     14  C   UNL     1       2.043   7.668  19.959  0.00  0.00    +0.000 C 
BRANCH  14  15
ATOM     15  N   UNL     1       1.206   8.852  20.109  0.00  0.00    +0.000 N 
ATOM     16  N   UNL     1       0.754   9.419  18.948  0.00  0.00    +0.000 NA
ATOM     17  N   UNL     1      -0.070  10.358  18.952  0.00  0.00    +0.000 NA
ATOM     18  C   UNL     1      -0.557  10.855  20.165  0.00  0.00    +0.000 A 
ATOM     19  C   UNL     1      -1.524  11.867  20.144  0.00  0.00    +0.000 A 
ATOM     20  C   UNL     1      -2.024  12.408  21.333  0.00  0.00    +0.000 A 
ATOM     21  C   UNL     1      -1.549  11.949  22.561  0.00  0.00    +0.000 A 
ATOM     22  C   UNL     1      -0.594  10.933  22.596  0.00  0.00    +0.000 A 
ATOM     23  C   UNL     1      -0.120  10.390  21.395  0.00  0.00    +0.000 A 
ATOM     24  C   UNL     1       0.827   9.277  21.368  0.00  0.00    +0.000 A 
ATOM     25  O   UNL     1       1.212   8.781  22.422  0.00  0.00    +0.000 OA
ENDBRANCH  14  15
ENDBRANCH   1  14
TORSDOF 3
ENDMDL
MODEL 7
REMARK VINA RESULT:      -7.4      2.082      3.821
REMARK  Name = 
REMARK  6 active torsions:
REMARK  status: ('A' for Active; 'I' for Inactive)
REMARK    1  A    between atoms: C_1  and  C_2
REMARK    2  A    between atoms: C_4  and  S_5
REMARK    3  A    between atoms: S_5  and  C_6
REMARK    4  A    between atoms: C_6  and  N_7
REMARK    5  A    between atoms: C_19  and  C_20
REMARK    6  A    between atoms: C_21  and  C_22
REMARK                            x       y       z     vdW  Elec       q    Type
REMARK                         _______ _______ _______ _____ _____    ______ ____
ROOT
ATOM      1  S   UNL     1       2.101   6.459  17.658  0.00  0.00    +0.000 S 
ENDROOT
BRANCH   1   5
ATOM      2  C   UNL     1       6.984   5.097  16.996  0.00  0.00    +0.000 C 
ATOM      3  C   UNL     1       5.700   4.851  17.727  0.00  0.00    +0.000 A 
ATOM      4  N   UNL     1       4.642   5.614  17.404  0.00  0.00    +0.000 NA
ATOM      5  C   UNL     1       3.464   5.398  18.033  0.00  0.00    +0.000 A 
ATOM      6  C   UNL     1       3.341   4.373  18.994  0.00  0.00    +0.000 A 
ATOM      7  C   UNL     1       2.261   3.798  19.796  0.00  0.00    +0.000 A 
ATOM      8  C   UNL     1       0.800   4.122  19.698  0.00  0.00    +0.000 C 
ATOM      9  C   UNL     1       2.748   2.880  20.721  0.00  0.00    +0.000 A 
ATOM     10  C   UNL     1       2.018   2.156  21.807  0.00  0.00    +0.000 C 
ATOM     11  S   UNL     1       4.413   2.575  20.515  0.00  0.00    +0.000 S 
ATOM     12  C   UNL     1       4.534   3.717  19.264  0.00  0.00    +0.000 A 
ATOM     13  N   UNL     1       5.722   3.904  18.666  0.00  0.00    +0.000 NA
ENDBRANCH   1   5
BRANCH   1  14
ATOM     14  C   UNL     1       2.669   8.041  18.364  0.00  0.00    +0.000 C 
BRANCH  14  15
ATOM     15  N   UNL     1       1.777   8.442  19.445  0.00  0.00    +0.000 N 
ATOM     16  N   UNL     1       1.738   7.610  20.532  0.00  0.00    +0.000 NA
ATOM     17  N   UNL     1       1.110   7.912  21.569  0.00  0.00    +0.000 NA
ATOM     18  C   UNL     1       0.423   9.128  21.640  0.00  0.00    +0.000 A 
ATOM     19  C   UNL     1      -0.224   9.472  22.834  0.00  0.00    +0.000 A 
ATOM     20  C   UNL     1      -0.940  10.669  22.944  0.00  0.00    +0.000 A 
ATOM     21  C   UNL     1      -1.027  11.531  21.852  0.00  0.00    +0.000 A 
ATOM     22  C   UNL     1      -0.377  11.206  20.661  0.00  0.00    +0.000 A 
ATOM     23  C   UNL     1       0.352  10.013  20.576  0.00  0.00    +0.000 A 
ATOM     24  C   UNL     1       1.111   9.651  19.381  0.00  0.00    +0.000 A 
ATOM     25  O   UNL     1       1.136  10.417  18.422  0.00  0.00    +0.000 OA
ENDBRANCH  14  15
ENDBRANCH   1  14
TORSDOF 3
ENDMDL
MODEL 8
REMARK VINA RESULT:      -7.4      3.387      8.919
REMARK  Name = 
REMARK  6 active torsions:
REMARK  status: ('A' for Active; 'I' for Inactive)
REMARK    1  A    between atoms: C_1  and  C_2
REMARK    2  A    between atoms: C_4  and  S_5
REMARK    3  A    between atoms: S_5  and  C_6
REMARK    4  A    between atoms: C_6  and  N_7
REMARK    5  A    between atoms: C_19  and  C_20
REMARK    6  A    between atoms: C_21  and  C_22
REMARK                            x       y       z     vdW  Elec       q    Type
REMARK                         _______ _______ _______ _____ _____    ______ ____
ROOT
ATOM      1  S   UNL     1       4.253   6.829  17.703  0.00  0.00    +0.000 S 
ENDROOT
BRANCH   1   5
ATOM      2  C   UNL     1       2.386   3.515  21.119  0.00  0.00    +0.000 C 
ATOM      3  C   UNL     1       2.337   4.905  20.561  0.00  0.00    +0.000 A 
ATOM      4  N   UNL     1       3.157   5.194  19.536  0.00  0.00    +0.000 NA
ATOM      5  C   UNL     1       3.117   6.435  18.997  0.00  0.00    +0.000 A 
ATOM      6  C   UNL     1       2.212   7.401  19.487  0.00  0.00    +0.000 A 
ATOM      7  C   UNL     1       1.825   8.766  19.129  0.00  0.00    +0.000 A 
ATOM      8  C   UNL     1       2.271   9.538  17.923  0.00  0.00    +0.000 C 
ATOM      9  C   UNL     1       0.968   9.315  20.076  0.00  0.00    +0.000 A 
ATOM     10  C   UNL     1       0.431  10.708  20.168  0.00  0.00    +0.000 C 
ATOM     11  S   UNL     1       0.491   8.179  21.254  0.00  0.00    +0.000 S 
ATOM     12  C   UNL     1       1.481   6.972  20.585  0.00  0.00    +0.000 A 
ATOM     13  N   UNL     1       1.495   5.754  21.150  0.00  0.00    +0.000 NA
ENDBRANCH   1   5
BRANCH   1  14
ATOM     14  C   UNL     1       5.487   5.499  17.889  0.00  0.00    +0.000 C 
BRANCH  14  15
ATOM     15  N   UNL     1       5.788   4.926  16.583  0.00  0.00    +0.000 N 
ATOM     16  N   UNL     1       4.990   3.887  16.184  0.00  0.00    +0.000 NA
ATOM     17  N   UNL     1       5.070   3.399  15.037  0.00  0.00    +0.000 NA
ATOM     18  C   UNL     1       5.991   3.916  14.121  0.00  0.00    +0.000 A 
ATOM     19  C   UNL     1       6.021   3.393  12.822  0.00  0.00    +0.000 A 
ATOM     20  C   UNL     1       6.939   3.865  11.878  0.00  0.00    +0.000 A 
ATOM     21  C   UNL     1       7.850   4.860  12.231  0.00  0.00    +0.000 A 
ATOM     22  C   UNL     1       7.823   5.398  13.518  0.00  0.00    +0.000 A 
ATOM     23  C   UNL     1       6.883   4.926  14.442  0.00  0.00    +0.000 A 
ATOM     24  C   UNL     1       6.759   5.498  15.782  0.00  0.00    +0.000 A 
ATOM     25  O   UNL     1       7.481   6.433  16.113  0.00  0.00    +0.000 OA
ENDBRANCH  14  15
ENDBRANCH   1  14
TORSDOF 3
ENDMDL
MODEL 9
REMARK VINA RESULT:      -7.3      1.683      3.202
REMARK  Name = 
REMARK  6 active torsions:
REMARK  status: ('A' for Active; 'I' for Inactive)
REMARK    1  A    between atoms: C_1  and  C_2
REMARK    2  A    between atoms: C_4  and  S_5
REMARK    3  A    between atoms: S_5  and  C_6
REMARK    4  A    between atoms: C_6  and  N_7
REMARK    5  A    between atoms: C_19  and  C_20
REMARK    6  A    between atoms: C_21  and  C_22
REMARK                            x       y       z     vdW  Elec       q    Type
REMARK                         _______ _______ _______ _____ _____    ______ ____
ROOT
ATOM      1  S   UNL     1       2.439   7.094  18.271  0.00  0.00    +0.000 S 
ENDROOT
BRANCH   1   5
ATOM      2  C   UNL     1       7.134   5.358  17.232  0.00  0.00    +0.000 C 
ATOM      3  C   UNL     1       5.841   5.127  17.954  0.00  0.00    +0.000 A 
ATOM      4  N   UNL     1       4.868   6.042  17.798  0.00  0.00    +0.000 NA
ATOM      5  C   UNL     1       3.683   5.847  18.419  0.00  0.00    +0.000 A 
ATOM      6  C   UNL     1       3.461   4.692  19.198  0.00  0.00    +0.000 A 
ATOM      7  C   UNL     1       2.336   4.106  19.926  0.00  0.00    +0.000 A 
ATOM      8  C   UNL     1       0.919   4.595  19.931  0.00  0.00    +0.000 C 
ATOM      9  C   UNL     1       2.733   2.998  20.668  0.00  0.00    +0.000 A 
ATOM     10  C   UNL     1       1.943   2.181  21.641  0.00  0.00    +0.000 C 
ATOM     11  S   UNL     1       4.351   2.559  20.360  0.00  0.00    +0.000 S 
ATOM     12  C   UNL     1       4.579   3.878  19.315  0.00  0.00    +0.000 A 
ATOM     13  N   UNL     1       5.772   4.038  18.719  0.00  0.00    +0.000 NA
ENDBRANCH   1   5
BRANCH   1  14
ATOM     14  C   UNL     1       2.246   7.621  20.006  0.00  0.00    +0.000 C 
BRANCH  14  15
ATOM     15  N   UNL     1       1.389   8.798  20.067  0.00  0.00    +0.000 N 
ATOM     16  N   UNL     1       1.004   9.324  18.863  0.00  0.00    +0.000 NA
ATOM     17  N   UNL     1       0.172  10.252  18.787  0.00  0.00    +0.000 NA
ATOM     18  C   UNL     1      -0.394  10.780  19.952  0.00  0.00    +0.000 A 
ATOM     19  C   UNL     1      -1.369  11.779  19.839  0.00  0.00    +0.000 A 
ATOM     20  C   UNL     1      -1.947  12.350  20.978  0.00  0.00    +0.000 A 
ATOM     21  C   UNL     1      -1.544  11.936  22.246  0.00  0.00    +0.000 A 
ATOM     22  C   UNL     1      -0.582  10.933  22.372  0.00  0.00    +0.000 A 
ATOM     23  C   UNL     1      -0.030  10.359  21.220  0.00  0.00    +0.000 A 
ATOM     24  C   UNL     1       0.929   9.257  21.287  0.00  0.00    +0.000 A 
ATOM     25  O   UNL     1       1.254   8.799  22.378  0.00  0.00    +0.000 OA
ENDBRANCH  14  15
ENDBRANCH   1  14
TORSDOF 3
ENDMDL
