MODEL 1
REMARK VINA RESULT:      -7.7      0.000      0.000
REMARK  Name = 
REMARK  5 active torsions:
REMARK  status: ('A' for Active; 'I' for Inactive)
REMARK    1  A    between atoms: C_1  and  C_2
REMARK    2  A    between atoms: C_2  and  O_3
REMARK    3  A    between atoms: O_3  and  C_4
REMARK    4  A    between atoms: C_10  and  O_11
REMARK    5  A    between atoms: C_12  and  C_13
REMARK                            x       y       z     vdW  Elec       q    Type
REMARK                         _______ _______ _______ _____ _____    ______ ____
ROOT
ATOM      1  C   UNL     1       6.112   3.848  12.554  0.00  0.00    +0.000 A 
ATOM      2  C   UNL     1       7.217   4.694  12.684  0.00  0.00    +0.000 A 
ATOM      3  C   UNL     1       7.513   5.283  13.913  0.00  0.00    +0.000 A 
ATOM      4  C   UNL     1       6.702   5.024  15.016  0.00  0.00    +0.000 A 
ATOM      5  C   UNL     1       6.993   5.649  16.306  0.00  0.00    +0.000 A 
ATOM      6  O   UNL     1       7.938   6.412  16.483  0.00  0.00    +0.000 OA
ATOM      7  C   UNL     1       6.084   5.329  17.427  0.00  0.00    +0.000 A 
ATOM      8  C   UNL     1       5.056   4.492  17.207  0.00  0.00    +0.000 A 
ATOM      9  O   UNL     1       4.784   3.896  15.976  0.00  0.00    +0.000 OA
ATOM     10  C   UNL     1       5.603   4.178  14.908  0.00  0.00    +0.000 A 
ATOM     11  C   UNL     1       5.308   3.588  13.675  0.00  0.00    +0.000 A 
ENDROOT
BRANCH   8  12
ATOM     12  C   UNL     1       4.119   4.105  18.222  0.00  0.00    +0.000 A 
ATOM     13  C   UNL     1       3.968   2.796  18.620  0.00  0.00    +0.000 A 
ATOM     14  S   UNL     1       2.847   2.636  19.895  0.00  0.00    +0.000 S 
ATOM     15  C   UNL     1       2.529   4.329  19.929  0.00  0.00    +0.000 A 
ATOM     16  C   UNL     1       1.663   5.008  20.810  0.00  0.00    +0.000 A 
ATOM     17  C   UNL     1       1.509   6.389  20.680  0.00  0.00    +0.000 A 
ATOM     18  C   UNL     1       2.190   7.083  19.691  0.00  0.00    +0.000 A 
ATOM     19  C   UNL     1       3.057   6.408  18.826  0.00  0.00    +0.000 A 
ATOM     20  C   UNL     1       3.256   5.008  18.943  0.00  0.00    +0.000 A 
ENDBRANCH   8  12
BRANCH   7  21
ATOM     21  O   UNL     1       6.355   5.922  18.647  0.00  0.00    +0.000 OA
ATOM     22  H   UNL     1       7.295   6.197  18.592  0.00  0.00    +0.000 HD
ENDBRANCH   7  21
BRANCH   1  23
ATOM     23  O   UNL     1       5.733   3.231  11.389  0.00  0.00    +0.000 OA
BRANCH  23  25
ATOM     24  C   UNL     1       6.862   1.142  10.999  0.00  0.00    +0.000 C 
ATOM     25  C   UNL     1       5.580   1.809  11.458  0.00  0.00    +0.000 C 
ENDBRANCH  23  25
ENDBRANCH   1  23
TORSDOF 4
ENDMDL
MODEL 2
REMARK VINA RESULT:      -7.5      5.000      7.643
REMARK  Name = 
REMARK  5 active torsions:
REMARK  status: ('A' for Active; 'I' for Inactive)
REMARK    1  A    between atoms: C_1  and  C_2
REMARK    2  A    between atoms: C_2  and  O_3
REMARK    3  A    between atoms: O_3  and  C_4
REMARK    4  A    between atoms: C_10  and  O_11
REMARK    5  A    between atoms: C_12  and  C_13
REMARK                            x       y       z     vdW  Elec       q    Type
REMARK                         _______ _______ _______ _____ _____    ______ ____
ROOT
ATOM      1  C   UNL     1       2.785   4.610  20.207  0.00  0.00    +0.000 A 
ATOM      2  C   UNL     1       3.504   4.638  19.009  0.00  0.00    +0.000 A 
ATOM      3  C   UNL     1       3.491   5.777  18.205  0.00  0.00    +0.000 A 
ATOM      4  C   UNL     1       2.757   6.894  18.602  0.00  0.00    +0.000 A 
ATOM      5  C   UNL     1       2.722   8.089  17.759  0.00  0.00    +0.000 A 
ATOM      6  O   UNL     1       3.318   8.172  16.689  0.00  0.00    +0.000 OA
ATOM      7  C   UNL     1       1.918   9.230  18.246  0.00  0.00    +0.000 A 
ATOM      8  C   UNL     1       1.274   9.113  19.420  0.00  0.00    +0.000 A 
ATOM      9  O   UNL     1       1.312   7.973  20.221  0.00  0.00    +0.000 OA
ATOM     10  C   UNL     1       2.043   6.888  19.795  0.00  0.00    +0.000 A 
ATOM     11  C   UNL     1       2.057   5.744  20.601  0.00  0.00    +0.000 A 
ENDROOT
BRANCH   8  12
ATOM     12  C   UNL     1       0.475  10.158  19.992  0.00  0.00    +0.000 A 
ATOM     13  C   UNL     1       0.867  10.850  21.115  0.00  0.00    +0.000 A 
ATOM     14  S   UNL     1      -0.232  12.087  21.526  0.00  0.00    +0.000 S 
ATOM     15  C   UNL     1      -1.271  11.707  20.205  0.00  0.00    +0.000 A 
ATOM     16  C   UNL     1      -2.462  12.372  19.849  0.00  0.00    +0.000 A 
ATOM     17  C   UNL     1      -3.194  11.912  18.752  0.00  0.00    +0.000 A 
ATOM     18  C   UNL     1      -2.762  10.810  18.030  0.00  0.00    +0.000 A 
ATOM     19  C   UNL     1      -1.573  10.160  18.378  0.00  0.00    +0.000 A 
ATOM     20  C   UNL     1      -0.792  10.614  19.472  0.00  0.00    +0.000 A 
ENDBRANCH   8  12
BRANCH   7  21
ATOM     21  O   UNL     1       1.880  10.360  17.449  0.00  0.00    +0.000 OA
ATOM     22  H   UNL     1       2.767  10.406  17.033  0.00  0.00    +0.000 HD
ENDBRANCH   7  21
BRANCH   1  23
ATOM     23  O   UNL     1       2.728   3.537  21.059  0.00  0.00    +0.000 OA
BRANCH  23  25
ATOM     24  C   UNL     1       0.899   2.465  19.922  0.00  0.00    +0.000 C 
ATOM     25  C   UNL     1       1.431   2.961  21.251  0.00  0.00    +0.000 C 
ENDBRANCH  23  25
ENDBRANCH   1  23
TORSDOF 4
ENDMDL
MODEL 3
REMARK VINA RESULT:      -7.3      4.619      8.572
REMARK  Name = 
REMARK  5 active torsions:
REMARK  status: ('A' for Active; 'I' for Inactive)
REMARK    1  A    between atoms: C_1  and  C_2
REMARK    2  A    between atoms: C_2  and  O_3
REMARK    3  A    between atoms: O_3  and  C_4
REMARK    4  A    between atoms: C_10  and  O_11
REMARK    5  A    between atoms: C_12  and  C_13
REMARK                            x       y       z     vdW  Elec       q    Type
REMARK                         _______ _______ _______ _____ _____    ______ ____
ROOT
ATOM      1  C   UNL     1      -0.216   9.822  21.621  0.00  0.00    +0.000 A 
ATOM      2  C   UNL     1      -0.165  10.780  20.604  0.00  0.00    +0.000 A 
ATOM      3  C   UNL     1       0.584  10.544  19.452  0.00  0.00    +0.000 A 
ATOM      4  C   UNL     1       1.282   9.346  19.315  0.00  0.00    +0.000 A 
ATOM      5  C   UNL     1       2.085   9.094  18.118  0.00  0.00    +0.000 A 
ATOM      6  O   UNL     1       2.184   9.899  17.197  0.00  0.00    +0.000 OA
ATOM      7  C   UNL     1       2.801   7.803  18.050  0.00  0.00    +0.000 A 
ATOM      8  C   UNL     1       2.677   6.939  19.072  0.00  0.00    +0.000 A 
ATOM      9  O   UNL     1       1.909   7.183  20.210  0.00  0.00    +0.000 OA
ATOM     10  C   UNL     1       1.236   8.378  20.313  0.00  0.00    +0.000 A 
ATOM     11  C   UNL     1       0.484   8.616  21.468  0.00  0.00    +0.000 A 
ENDROOT
BRANCH   8  12
ATOM     12  C   UNL     1       3.318   5.656  19.108  0.00  0.00    +0.000 A 
ATOM     13  C   UNL     1       4.674   5.519  19.301  0.00  0.00    +0.000 A 
ATOM     14  S   UNL     1       5.150   3.883  19.379  0.00  0.00    +0.000 S 
ATOM     15  C   UNL     1       3.538   3.324  19.140  0.00  0.00    +0.000 A 
ATOM     16  C   UNL     1       3.105   1.982  19.113  0.00  0.00    +0.000 A 
ATOM     17  C   UNL     1       1.756   1.709  18.885  0.00  0.00    +0.000 A 
ATOM     18  C   UNL     1       0.855   2.742  18.676  0.00  0.00    +0.000 A 
ATOM     19  C   UNL     1       1.285   4.072  18.715  0.00  0.00    +0.000 A 
ATOM     20  C   UNL     1       2.645   4.388  18.967  0.00  0.00    +0.000 A 
ENDBRANCH   8  12
BRANCH   7  21
ATOM     21  O   UNL     1       3.563   7.564  16.921  0.00  0.00    +0.000 OA
ATOM     22  H   UNL     1       4.088   8.382  16.791  0.00  0.00    +0.000 HD
ENDBRANCH   7  21
BRANCH   1  23
ATOM     23  O   UNL     1      -0.915   9.965  22.793  0.00  0.00    +0.000 OA
BRANCH  23  25
ATOM     24  C   UNL     1      -2.515  11.702  23.251  0.00  0.00    +0.000 C 
ATOM     25  C   UNL     1      -1.053  11.305  23.278  0.00  0.00    +0.000 C 
ENDBRANCH  23  25
ENDBRANCH   1  23
TORSDOF 4
ENDMDL
MODEL 4
REMARK VINA RESULT:      -7.3      1.466      2.324
REMARK  Name = 
REMARK  5 active torsions:
REMARK  status: ('A' for Active; 'I' for Inactive)
REMARK    1  A    between atoms: C_1  and  C_2
REMARK    2  A    between atoms: C_2  and  O_3
REMARK    3  A    between atoms: O_3  and  C_4
REMARK    4  A    between atoms: C_10  and  O_11
REMARK    5  A    between atoms: C_12  and  C_13
REMARK                            x       y       z     vdW  Elec       q    Type
REMARK                         _______ _______ _______ _____ _____    ______ ____
ROOT
ATOM      1  C   UNL     1       5.574   3.443  12.283  0.00  0.00    +0.000 A 
ATOM      2  C   UNL     1       6.855   4.003  12.270  0.00  0.00    +0.000 A 
ATOM      3  C   UNL     1       7.322   4.718  13.372  0.00  0.00    +0.000 A 
ATOM      4  C   UNL     1       6.507   4.871  14.492  0.00  0.00    +0.000 A 
ATOM      5  C   UNL     1       6.980   5.634  15.648  0.00  0.00    +0.000 A 
ATOM      6  O   UNL     1       8.087   6.163  15.693  0.00  0.00    +0.000 OA
ATOM      7  C   UNL     1       6.056   5.756  16.795  0.00  0.00    +0.000 A 
ATOM      8  C   UNL     1       4.850   5.168  16.719  0.00  0.00    +0.000 A 
ATOM      9  O   UNL     1       4.404   4.440  15.616  0.00  0.00    +0.000 OA
ATOM     10  C   UNL     1       5.233   4.313  14.527  0.00  0.00    +0.000 A 
ATOM     11  C   UNL     1       4.766   3.596  13.421  0.00  0.00    +0.000 A 
ENDROOT
BRANCH   8  12
ATOM     12  C   UNL     1       3.879   5.214  17.774  0.00  0.00    +0.000 A 
ATOM     13  C   UNL     1       3.468   6.399  18.342  0.00  0.00    +0.000 A 
ATOM     14  S   UNL     1       2.250   6.164  19.512  0.00  0.00    +0.000 S 
ATOM     15  C   UNL     1       2.261   4.455  19.290  0.00  0.00    +0.000 A 
ATOM     16  C   UNL     1       1.437   3.514  19.940  0.00  0.00    +0.000 A 
ATOM     17  C   UNL     1       1.597   2.158  19.652  0.00  0.00    +0.000 A 
ATOM     18  C   UNL     1       2.561   1.741  18.747  0.00  0.00    +0.000 A 
ATOM     19  C   UNL     1       3.369   2.677  18.094  0.00  0.00    +0.000 A 
ATOM     20  C   UNL     1       3.218   4.065  18.345  0.00  0.00    +0.000 A 
ENDBRANCH   8  12
BRANCH   7  21
ATOM     21  O   UNL     1       6.499   6.479  17.887  0.00  0.00    +0.000 OA
ATOM     22  H   UNL     1       6.633   7.391  17.551  0.00  0.00    +0.000 HD
ENDBRANCH   7  21
BRANCH   1  23
ATOM     23  O   UNL     1       5.022   2.732  11.248  0.00  0.00    +0.000 OA
BRANCH  23  25
ATOM     24  C   UNL     1       3.345   3.921   9.998  0.00  0.00    +0.000 C 
ATOM     25  C   UNL     1       3.609   2.883  11.071  0.00  0.00    +0.000 C 
ENDBRANCH  23  25
ENDBRANCH   1  23
TORSDOF 4
ENDMDL
MODEL 5
REMARK VINA RESULT:      -7.1      1.349      2.217
REMARK  Name = 
REMARK  5 active torsions:
REMARK  status: ('A' for Active; 'I' for Inactive)
REMARK    1  A    between atoms: C_1  and  C_2
REMARK    2  A    between atoms: C_2  and  O_3
REMARK    3  A    between atoms: O_3  and  C_4
REMARK    4  A    between atoms: C_10  and  O_11
REMARK    5  A    between atoms: C_12  and  C_13
REMARK                            x       y       z     vdW  Elec       q    Type
REMARK                         _______ _______ _______ _____ _____    ______ ____
ROOT
ATOM      1  C   UNL     1       5.813   3.630  12.657  0.00  0.00    +0.000 A 
ATOM      2  C   UNL     1       7.026   4.322  12.724  0.00  0.00    +0.000 A 
ATOM      3  C   UNL     1       7.372   5.027  13.876  0.00  0.00    +0.000 A 
ATOM      4  C   UNL     1       6.504   5.038  14.966  0.00  0.00    +0.000 A 
ATOM      5  C   UNL     1       6.849   5.788  16.174  0.00  0.00    +0.000 A 
ATOM      6  O   UNL     1       7.890   6.428  16.290  0.00  0.00    +0.000 OA
ATOM      7  C   UNL     1       5.874   5.755  17.285  0.00  0.00    +0.000 A 
ATOM      8  C   UNL     1       4.742   5.047  17.131  0.00  0.00    +0.000 A 
ATOM      9  O   UNL     1       4.419   4.332  15.979  0.00  0.00    +0.000 OA
ATOM     10  C   UNL     1       5.297   4.348  14.921  0.00  0.00    +0.000 A 
ATOM     11  C   UNL     1       4.951   3.641  13.764  0.00  0.00    +0.000 A 
ENDROOT
BRANCH   8  12
ATOM     12  C   UNL     1       3.733   4.938  18.145  0.00  0.00    +0.000 A 
ATOM     13  C   UNL     1       2.644   5.780  18.190  0.00  0.00    +0.000 A 
ATOM     14  S   UNL     1       1.567   5.373  19.447  0.00  0.00    +0.000 S 
ATOM     15  C   UNL     1       2.553   4.060  19.969  0.00  0.00    +0.000 A 
ATOM     16  C   UNL     1       2.279   3.165  21.023  0.00  0.00    +0.000 A 
ATOM     17  C   UNL     1       3.206   2.165  21.324  0.00  0.00    +0.000 A 
ATOM     18  C   UNL     1       4.386   2.062  20.603  0.00  0.00    +0.000 A 
ATOM     19  C   UNL     1       4.650   2.943  19.550  0.00  0.00    +0.000 A 
ATOM     20  C   UNL     1       3.720   3.956  19.202  0.00  0.00    +0.000 A 
ENDBRANCH   8  12
BRANCH   7  21
ATOM     21  O   UNL     1       6.196   6.465  18.426  0.00  0.00    +0.000 OA
ATOM     22  H   UNL     1       5.931   7.390  18.233  0.00  0.00    +0.000 HD
ENDBRANCH   7  21
BRANCH   1  23
ATOM     23  O   UNL     1       5.380   2.917  11.568  0.00  0.00    +0.000 OA
BRANCH  23  25
ATOM     24  C   UNL     1       3.579   3.805  10.243  0.00  0.00    +0.000 C 
ATOM     25  C   UNL     1       3.962   2.873  11.375  0.00  0.00    +0.000 C 
ENDBRANCH  23  25
ENDBRANCH   1  23
TORSDOF 4
ENDMDL
MODEL 6
REMARK VINA RESULT:      -7.1      4.235      6.430
REMARK  Name = 
REMARK  5 active torsions:
REMARK  status: ('A' for Active; 'I' for Inactive)
REMARK    1  A    between atoms: C_1  and  C_2
REMARK    2  A    between atoms: C_2  and  O_3
REMARK    3  A    between atoms: O_3  and  C_4
REMARK    4  A    between atoms: C_10  and  O_11
REMARK    5  A    between atoms: C_12  and  C_13
REMARK                            x       y       z     vdW  Elec       q    Type
REMARK                         _______ _______ _______ _____ _____    ______ ____
ROOT
ATOM      1  C   UNL     1       4.837   6.174  16.684  0.00  0.00    +0.000 A 
ATOM      2  C   UNL     1       4.733   5.113  17.589  0.00  0.00    +0.000 A 
ATOM      3  C   UNL     1       3.882   5.206  18.690  0.00  0.00    +0.000 A 
ATOM      4  C   UNL     1       3.131   6.364  18.885  0.00  0.00    +0.000 A 
ATOM      5  C   UNL     1       2.247   6.480  20.045  0.00  0.00    +0.000 A 
ATOM      6  O   UNL     1       2.123   5.592  20.884  0.00  0.00    +0.000 OA
ATOM      7  C   UNL     1       1.487   7.740  20.186  0.00  0.00    +0.000 A 
ATOM      8  C   UNL     1       1.643   8.696  19.255  0.00  0.00    +0.000 A 
ATOM      9  O   UNL     1       2.484   8.580  18.150  0.00  0.00    +0.000 OA
ATOM     10  C   UNL     1       3.215   7.426  17.991  0.00  0.00    +0.000 A 
ATOM     11  C   UNL     1       4.068   7.331  16.887  0.00  0.00    +0.000 A 
ENDROOT
BRANCH   8  12
ATOM     12  C   UNL     1       0.950   9.952  19.287  0.00  0.00    +0.000 A 
ATOM     13  C   UNL     1       1.364  10.999  20.080  0.00  0.00    +0.000 A 
ATOM     14  S   UNL     1       0.406  12.392  19.858  0.00  0.00    +0.000 S 
ATOM     15  C   UNL     1      -0.599  11.609  18.698  0.00  0.00    +0.000 A 
ATOM     16  C   UNL     1      -1.677  12.181  17.992  0.00  0.00    +0.000 A 
ATOM     17  C   UNL     1      -2.400  11.389  17.099  0.00  0.00    +0.000 A 
ATOM     18  C   UNL     1      -2.070  10.054  16.917  0.00  0.00    +0.000 A 
ATOM     19  C   UNL     1      -0.992   9.493  17.609  0.00  0.00    +0.000 A 
ATOM     20  C   UNL     1      -0.221  10.275  18.507  0.00  0.00    +0.000 A 
ENDBRANCH   8  12
BRANCH   7  21
ATOM     21  O   UNL     1       0.654   7.853  21.284  0.00  0.00    +0.000 OA
ATOM     22  H   UNL     1      -0.014   8.525  21.027  0.00  0.00    +0.000 HD
ENDBRANCH   7  21
BRANCH   1  23
ATOM     23  O   UNL     1       5.651   6.182  15.580  0.00  0.00    +0.000 OA
BRANCH  23  25
ATOM     24  C   UNL     1       5.929   4.219  14.217  0.00  0.00    +0.000 C 
ATOM     25  C   UNL     1       6.459   5.015  15.393  0.00  0.00    +0.000 C 
ENDBRANCH  23  25
ENDBRANCH   1  23
TORSDOF 4
ENDMDL
MODEL 7
REMARK VINA RESULT:      -7.0      1.268      2.073
REMARK  Name = 
REMARK  5 active torsions:
REMARK  status: ('A' for Active; 'I' for Inactive)
REMARK    1  A    between atoms: C_1  and  C_2
REMARK    2  A    between atoms: C_2  and  O_3
REMARK    3  A    between atoms: O_3  and  C_4
REMARK    4  A    between atoms: C_10  and  O_11
REMARK    5  A    between atoms: C_12  and  C_13
REMARK                            x       y       z     vdW  Elec       q    Type
REMARK                         _______ _______ _______ _____ _____    ______ ____
ROOT
ATOM      1  C   UNL     1       5.939   3.450  12.737  0.00  0.00    +0.000 A 
ATOM      2  C   UNL     1       7.147   4.153  12.770  0.00  0.00    +0.000 A 
ATOM      3  C   UNL     1       7.464   4.957  13.864  0.00  0.00    +0.000 A 
ATOM      4  C   UNL     1       6.571   5.057  14.929  0.00  0.00    +0.000 A 
ATOM      5  C   UNL     1       6.885   5.911  16.075  0.00  0.00    +0.000 A 
ATOM      6  O   UNL     1       7.921   6.565  16.159  0.00  0.00    +0.000 OA
ATOM      7  C   UNL     1       5.886   5.969  17.163  0.00  0.00    +0.000 A 
ATOM      8  C   UNL     1       4.760   5.244  17.046  0.00  0.00    +0.000 A 
ATOM      9  O   UNL     1       4.466   4.430  15.953  0.00  0.00    +0.000 OA
ATOM     10  C   UNL     1       5.369   4.358  14.918  0.00  0.00    +0.000 A 
ATOM     11  C   UNL     1       5.052   3.552  13.820  0.00  0.00    +0.000 A 
ENDROOT
BRANCH   8  12
ATOM     12  C   UNL     1       3.729   5.217  18.043  0.00  0.00    +0.000 A 
ATOM     13  C   UNL     1       3.408   6.324  18.796  0.00  0.00    +0.000 A 
ATOM     14  S   UNL     1       2.094   6.031  19.843  0.00  0.00    +0.000 S 
ATOM     15  C   UNL     1       1.938   4.399  19.313  0.00  0.00    +0.000 A 
ATOM     16  C   UNL     1       0.975   3.461  19.739  0.00  0.00    +0.000 A 
ATOM     17  C   UNL     1       1.009   2.167  19.216  0.00  0.00    +0.000 A 
ATOM     18  C   UNL     1       1.984   1.806  18.299  0.00  0.00    +0.000 A 
ATOM     19  C   UNL     1       2.931   2.741  17.869  0.00  0.00    +0.000 A 
ATOM     20  C   UNL     1       2.912   4.071  18.362  0.00  0.00    +0.000 A 
ENDBRANCH   8  12
BRANCH   7  21
ATOM     21  O   UNL     1       6.179   6.778  18.245  0.00  0.00    +0.000 OA
ATOM     22  H   UNL     1       7.045   6.456  18.576  0.00  0.00    +0.000 HD
ENDBRANCH   7  21
BRANCH   1  23
ATOM     23  O   UNL     1       5.534   2.643  11.704  0.00  0.00    +0.000 OA
BRANCH  23  25
ATOM     24  C   UNL     1       6.094   0.364  11.175  0.00  0.00    +0.000 C 
ATOM     25  C   UNL     1       6.546   1.810  11.129  0.00  0.00    +0.000 C 
ENDBRANCH  23  25
ENDBRANCH   1  23
TORSDOF 4
ENDMDL
MODEL 8
REMARK VINA RESULT:      -7.0      4.487      8.409
REMARK  Name = 
REMARK  5 active torsions:
REMARK  status: ('A' for Active; 'I' for Inactive)
REMARK    1  A    between atoms: C_1  and  C_2
REMARK    2  A    between atoms: C_2  and  O_3
REMARK    3  A    between atoms: O_3  and  C_4
REMARK    4  A    between atoms: C_10  and  O_11
REMARK    5  A    between atoms: C_12  and  C_13
REMARK                            x       y       z     vdW  Elec       q    Type
REMARK                         _______ _______ _______ _____ _____    ______ ____
ROOT
ATOM      1  C   UNL     1      -1.033  11.246  18.375  0.00  0.00    +0.000 A 
ATOM      2  C   UNL     1      -1.190  11.312  19.763  0.00  0.00    +0.000 A 
ATOM      3  C   UNL     1      -0.496  10.433  20.593  0.00  0.00    +0.000 A 
ATOM      4  C   UNL     1       0.360   9.486  20.034  0.00  0.00    +0.000 A 
ATOM      5  C   UNL     1       1.081   8.548  20.894  0.00  0.00    +0.000 A 
ATOM      6  O   UNL     1       0.976   8.543  22.118  0.00  0.00    +0.000 OA
ATOM      7  C   UNL     1       1.967   7.570  20.227  0.00  0.00    +0.000 A 
ATOM      8  C   UNL     1       2.064   7.595  18.887  0.00  0.00    +0.000 A 
ATOM      9  O   UNL     1       1.376   8.493  18.071  0.00  0.00    +0.000 OA
ATOM     10  C   UNL     1       0.536   9.411  18.657  0.00  0.00    +0.000 A 
ATOM     11  C   UNL     1      -0.161  10.294  17.825  0.00  0.00    +0.000 A 
ENDROOT
BRANCH   8  12
ATOM     12  C   UNL     1       2.898   6.701  18.136  0.00  0.00    +0.000 A 
ATOM     13  C   UNL     1       4.028   7.132  17.477  0.00  0.00    +0.000 A 
ATOM     14  S   UNL     1       4.869   5.847  16.737  0.00  0.00    +0.000 S 
ATOM     15  C   UNL     1       3.720   4.683  17.277  0.00  0.00    +0.000 A 
ATOM     16  C   UNL     1       3.764   3.290  17.062  0.00  0.00    +0.000 A 
ATOM     17  C   UNL     1       2.730   2.493  17.557  0.00  0.00    +0.000 A 
ATOM     18  C   UNL     1       1.667   3.065  18.239  0.00  0.00    +0.000 A 
ATOM     19  C   UNL     1       1.632   4.446  18.462  0.00  0.00    +0.000 A 
ATOM     20  C   UNL     1       2.678   5.283  17.994  0.00  0.00    +0.000 A 
ENDBRANCH   8  12
BRANCH   7  21
ATOM     21  O   UNL     1       2.647   6.680  21.037  0.00  0.00    +0.000 OA
ATOM     22  H   UNL     1       2.490   6.998  21.952  0.00  0.00    +0.000 HD
ENDBRANCH   7  21
BRANCH   1  23
ATOM     23  O   UNL     1      -1.678  12.058  17.477  0.00  0.00    +0.000 OA
BRANCH  23  25
ATOM     24  C   UNL     1      -3.991  11.410  17.355  0.00  0.00    +0.000 C 
ATOM     25  C   UNL     1      -2.652  11.418  16.646  0.00  0.00    +0.000 C 
ENDBRANCH  23  25
ENDBRANCH   1  23
TORSDOF 4
ENDMDL
MODEL 9
REMARK VINA RESULT:      -7.0      4.525      8.699
REMARK  Name = 
REMARK  5 active torsions:
REMARK  status: ('A' for Active; 'I' for Inactive)
REMARK    1  A    between atoms: C_1  and  C_2
REMARK    2  A    between atoms: C_2  and  O_3
REMARK    3  A    between atoms: O_3  and  C_4
REMARK    4  A    between atoms: C_10  and  O_11
REMARK    5  A    between atoms: C_12  and  C_13
REMARK                            x       y       z     vdW  Elec       q    Type
REMARK                         _______ _______ _______ _____ _____    ______ ____
ROOT
ATOM      1  C   UNL     1      -0.208  11.958  18.931  0.00  0.00    +0.000 A 
ATOM      2  C   UNL     1      -0.588  11.802  20.267  0.00  0.00    +0.000 A 
ATOM      3  C   UNL     1      -0.201  10.669  20.983  0.00  0.00    +0.000 A 
ATOM      4  C   UNL     1       0.570   9.690  20.360  0.00  0.00    +0.000 A 
ATOM      5  C   UNL     1       0.968   8.489  21.095  0.00  0.00    +0.000 A 
ATOM      6  O   UNL     1       0.655   8.285  22.264  0.00  0.00    +0.000 OA
ATOM      7  C   UNL     1       1.781   7.494  20.364  0.00  0.00    +0.000 A 
ATOM      8  C   UNL     1       2.110   7.741  19.085  0.00  0.00    +0.000 A 
ATOM      9  O   UNL     1       1.730   8.888  18.389  0.00  0.00    +0.000 OA
ATOM     10  C   UNL     1       0.965   9.832  19.034  0.00  0.00    +0.000 A 
ATOM     11  C   UNL     1       0.577  10.969  18.318  0.00  0.00    +0.000 A 
ENDROOT
BRANCH   8  12
ATOM     12  C   UNL     1       2.901   6.851  18.284  0.00  0.00    +0.000 A 
ATOM     13  C   UNL     1       4.045   7.266  17.641  0.00  0.00    +0.000 A 
ATOM     14  S   UNL     1       4.828   5.985  16.831  0.00  0.00    +0.000 S 
ATOM     15  C   UNL     1       3.631   4.845  17.318  0.00  0.00    +0.000 A 
ATOM     16  C   UNL     1       3.615   3.465  17.033  0.00  0.00    +0.000 A 
ATOM     17  C   UNL     1       2.549   2.689  17.493  0.00  0.00    +0.000 A 
ATOM     18  C   UNL     1       1.515   3.271  18.211  0.00  0.00    +0.000 A 
ATOM     19  C   UNL     1       1.540   4.638  18.503  0.00  0.00    +0.000 A 
ATOM     20  C   UNL     1       2.619   5.452  18.071  0.00  0.00    +0.000 A 
ENDBRANCH   8  12
BRANCH   7  21
ATOM     21  O   UNL     1       2.155   6.356  21.055  0.00  0.00    +0.000 OA
ATOM     22  H   UNL     1       1.531   6.300  21.810  0.00  0.00    +0.000 HD
ENDBRANCH   7  21
BRANCH   1  23
ATOM     23  O   UNL     1      -0.546  13.029  18.143  0.00  0.00    +0.000 OA
BRANCH  23  25
ATOM     24  C   UNL     1       1.196  14.552  18.803  0.00  0.00    +0.000 C 
ATOM     25  C   UNL     1      -0.299  14.321  18.708  0.00  0.00    +0.000 C 
ENDBRANCH  23  25
ENDBRANCH   1  23
TORSDOF 4
ENDMDL
