MODEL 1
REMARK VINA RESULT:      -9.0      0.000      0.000
REMARK  Name = 
REMARK  11 active torsions:
REMARK  status: ('A' for Active; 'I' for Inactive)
REMARK    1  A    between atoms: C_1  and  C_2
REMARK    2  A    between atoms: C_2  and  O_3
REMARK    3  A    between atoms: O_3  and  C_4
REMARK    4  A    between atoms: C_7  and  C_8
REMARK    5  A    between atoms: C_8  and  N_9
REMARK    6  A    between atoms: C_10  and  C_12
REMARK    7  A    between atoms: C_12  and  C_13
REMARK    8  A    between atoms: C_13  and  S_14
REMARK    9  A    between atoms: S_14  and  C_17
REMARK   10  A    between atoms: C_31  and  O_32
REMARK   11  A    between atoms: O_32  and  C_33
REMARK                            x       y       z     vdW  Elec       q    Type
REMARK                         _______ _______ _______ _____ _____    ______ ____
ROOT
ATOM      1  C   UNL     1       7.021   7.595  17.201  0.00  0.00    +0.000 C 
ENDROOT
BRANCH   1   3
ATOM      2  N   UNL     1       8.379   9.378  18.120  0.00  0.00    +0.000 N 
ATOM      3  C   UNL     1       8.057   8.045  18.204  0.00  0.00    +0.000 C 
ATOM      4  O   UNL     1       8.573   7.268  19.001  0.00  0.00    +0.000 OA
ATOM      5  H   UNL     1       7.899   9.974  17.456  0.00  0.00    +0.000 HD
BRANCH   2   6
ATOM      6  C   UNL     1       9.261  10.012  19.071  0.00  0.00    +0.000 C 
BRANCH   6  10
ATOM      7  C   UNL     1      10.552  13.853  17.494  0.00  0.00    +0.000 A 
ATOM      8  C   UNL     1      11.338  12.698  17.338  0.00  0.00    +0.000 A 
ATOM      9  C   UNL     1      10.923  11.463  17.844  0.00  0.00    +0.000 A 
ATOM     10  C   UNL     1       9.734  11.362  18.566  0.00  0.00    +0.000 A 
ATOM     11  C   UNL     1       8.989  12.525  18.792  0.00  0.00    +0.000 A 
ATOM     12  C   UNL     1       9.387  13.775  18.274  0.00  0.00    +0.000 A 
BRANCH  12  13
ATOM     13  O   UNL     1       8.511  14.769  18.623  0.00  0.00    +0.000 OA
ATOM     14  C   UNL     1       7.410  15.058  17.776  0.00  0.00    +0.000 C 
ENDBRANCH  12  13
BRANCH   7  15
ATOM     15  O   UNL     1      10.904  15.044  16.908  0.00  0.00    +0.000 OA
BRANCH  15  17
ATOM     16  C   UNL     1      12.264  16.129  18.571  0.00  0.00    +0.000 C 
ATOM     17  C   UNL     1      12.232  15.506  17.188  0.00  0.00    +0.000 C 
ENDBRANCH  15  17
ENDBRANCH   7  15
ENDBRANCH   6  10
ENDBRANCH   2   6
ENDBRANCH   1   3
BRANCH   1  18
ATOM     18  C   UNL     1       6.933   6.069  17.162  0.00  0.00    +0.000 C 
BRANCH  18  19
ATOM     19  S   UNL     1       5.722   5.566  15.979  0.00  0.00    +0.000 S 
ATOM     20  O   UNL     1       5.387   6.716  15.164  0.00  0.00    +0.000 OA
ATOM     21  O   UNL     1       6.190   4.340  15.351  0.00  0.00    +0.000 OA
BRANCH  19  22
ATOM     22  C   UNL     1       4.239   5.145  16.902  0.00  0.00    +0.000 A 
ATOM     23  C   UNL     1       3.841   3.779  17.014  0.00  0.00    +0.000 A 
ATOM     24  C   UNL     1       2.945   3.394  18.024  0.00  0.00    +0.000 A 
ATOM     25  C   UNL     1       2.593   4.389  18.900  0.00  0.00    +0.000 A 
ATOM     26  C   UNL     1       2.853   5.743  18.722  0.00  0.00    +0.000 A 
ATOM     27  C   UNL     1       3.678   6.154  17.703  0.00  0.00    +0.000 A 
ATOM     28  C   UNL     1       2.190   6.482  19.851  0.00  0.00    +0.000 C 
ATOM     29  C   UNL     1       2.335   5.406  20.942  0.00  0.00    +0.000 C 
ATOM     30  N   UNL     1       2.106   4.165  20.180  0.00  0.00    +0.000 N 
ATOM     31  C   UNL     1       1.745   2.927  20.634  0.00  0.00    +0.000 C 
ATOM     32  O   UNL     1       1.509   2.682  21.814  0.00  0.00    +0.000 OA
ATOM     33  C   UNL     1       1.480   1.931  19.518  0.00  0.00    +0.000 C 
ATOM     34  C   UNL     1       2.432   2.011  18.303  0.00  0.00    +0.000 C 
ENDBRANCH  19  22
ENDBRANCH  18  19
ENDBRANCH   1  18
TORSDOF 9
ENDMDL
MODEL 2
REMARK VINA RESULT:      -8.3      5.386      9.616
REMARK  Name = 
REMARK  11 active torsions:
REMARK  status: ('A' for Active; 'I' for Inactive)
REMARK    1  A    between atoms: C_1  and  C_2
REMARK    2  A    between atoms: C_2  and  O_3
REMARK    3  A    between atoms: O_3  and  C_4
REMARK    4  A    between atoms: C_7  and  C_8
REMARK    5  A    between atoms: C_8  and  N_9
REMARK    6  A    between atoms: C_10  and  C_12
REMARK    7  A    between atoms: C_12  and  C_13
REMARK    8  A    between atoms: C_13  and  S_14
REMARK    9  A    between atoms: S_14  and  C_17
REMARK   10  A    between atoms: C_31  and  O_32
REMARK   11  A    between atoms: O_32  and  C_33
REMARK                            x       y       z     vdW  Elec       q    Type
REMARK                         _______ _______ _______ _____ _____    ______ ____
ROOT
ATOM      1  C   UNL     1       1.465   7.422  20.876  0.00  0.00    +0.000 C 
ENDROOT
BRANCH   1   3
ATOM      2  N   UNL     1       1.099   9.273  19.356  0.00  0.00    +0.000 N 
ATOM      3  C   UNL     1       1.147   8.886  20.673  0.00  0.00    +0.000 C 
ATOM      4  O   UNL     1       0.974   9.652  21.616  0.00  0.00    +0.000 OA
ATOM      5  H   UNL     1       1.227   8.587  18.621  0.00  0.00    +0.000 HD
BRANCH   2   6
ATOM      6  C   UNL     1       0.696  10.604  18.965  0.00  0.00    +0.000 C 
BRANCH   6  10
ATOM      7  C   UNL     1      -3.453  10.821  17.681  0.00  0.00    +0.000 A 
ATOM      8  C   UNL     1      -3.037  11.374  18.906  0.00  0.00    +0.000 A 
ATOM      9  C   UNL     1      -1.703  11.305  19.318  0.00  0.00    +0.000 A 
ATOM     10  C   UNL     1      -0.760  10.634  18.540  0.00  0.00    +0.000 A 
ATOM     11  C   UNL     1      -1.186  10.015  17.360  0.00  0.00    +0.000 A 
ATOM     12  C   UNL     1      -2.525  10.089  16.923  0.00  0.00    +0.000 A 
BRANCH  12  13
ATOM     13  O   UNL     1      -2.713   9.408  15.750  0.00  0.00    +0.000 OA
ATOM     14  C   UNL     1      -2.986  10.131  14.559  0.00  0.00    +0.000 C 
ENDBRANCH  12  13
BRANCH   7  15
ATOM     15  O   UNL     1      -4.738  10.979  17.224  0.00  0.00    +0.000 OA
BRANCH  15  17
ATOM     16  C   UNL     1      -6.812  11.719  18.194  0.00  0.00    +0.000 C 
ATOM     17  C   UNL     1      -5.434  12.132  17.712  0.00  0.00    +0.000 C 
ENDBRANCH  15  17
ENDBRANCH   7  15
ENDBRANCH   6  10
ENDBRANCH   2   6
ENDBRANCH   1   3
BRANCH   1  18
ATOM     18  C   UNL     1       1.893   6.775  19.559  0.00  0.00    +0.000 C 
BRANCH  18  19
ATOM     19  S   UNL     1       2.148   5.043  19.796  0.00  0.00    +0.000 S 
ATOM     20  O   UNL     1       2.354   4.810  21.211  0.00  0.00    +0.000 OA
ATOM     21  O   UNL     1       1.095   4.334  19.086  0.00  0.00    +0.000 OA
BRANCH  19  22
ATOM     22  C   UNL     1       3.694   4.630  18.980  0.00  0.00    +0.000 A 
ATOM     23  C   UNL     1       3.672   4.060  17.671  0.00  0.00    +0.000 A 
ATOM     24  C   UNL     1       4.828   4.094  16.876  0.00  0.00    +0.000 A 
ATOM     25  C   UNL     1       5.886   4.781  17.416  0.00  0.00    +0.000 A 
ATOM     26  C   UNL     1       5.973   5.212  18.734  0.00  0.00    +0.000 A 
ATOM     27  C   UNL     1       4.874   5.133  19.555  0.00  0.00    +0.000 A 
ATOM     28  C   UNL     1       7.341   5.807  18.925  0.00  0.00    +0.000 C 
ATOM     29  C   UNL     1       7.546   6.365  17.505  0.00  0.00    +0.000 C 
ATOM     30  N   UNL     1       6.929   5.316  16.673  0.00  0.00    +0.000 N 
ATOM     31  C   UNL     1       7.111   5.050  15.344  0.00  0.00    +0.000 C 
ATOM     32  O   UNL     1       7.898   5.669  14.632  0.00  0.00    +0.000 OA
ATOM     33  C   UNL     1       6.389   3.798  14.877  0.00  0.00    +0.000 C 
ATOM     34  C   UNL     1       4.985   3.565  15.480  0.00  0.00    +0.000 C 
ENDBRANCH  19  22
ENDBRANCH  18  19
ENDBRANCH   1  18
TORSDOF 9
ENDMDL
MODEL 3
REMARK VINA RESULT:      -8.2      5.339      9.233
REMARK  Name = 
REMARK  11 active torsions:
REMARK  status: ('A' for Active; 'I' for Inactive)
REMARK    1  A    between atoms: C_1  and  C_2
REMARK    2  A    between atoms: C_2  and  O_3
REMARK    3  A    between atoms: O_3  and  C_4
REMARK    4  A    between atoms: C_7  and  C_8
REMARK    5  A    between atoms: C_8  and  N_9
REMARK    6  A    between atoms: C_10  and  C_12
REMARK    7  A    between atoms: C_12  and  C_13
REMARK    8  A    between atoms: C_13  and  S_14
REMARK    9  A    between atoms: S_14  and  C_17
REMARK   10  A    between atoms: C_31  and  O_32
REMARK   11  A    between atoms: O_32  and  C_33
REMARK                            x       y       z     vdW  Elec       q    Type
REMARK                         _______ _______ _______ _____ _____    ______ ____
ROOT
ATOM      1  C   UNL     1       2.165   7.046  18.367  0.00  0.00    +0.000 C 
ENDROOT
BRANCH   1   3
ATOM      2  N   UNL     1       1.282   9.149  19.183  0.00  0.00    +0.000 N 
ATOM      3  C   UNL     1       1.992   8.535  18.180  0.00  0.00    +0.000 C 
ATOM      4  O   UNL     1       2.432   9.124  17.197  0.00  0.00    +0.000 OA
ATOM      5  H   UNL     1       0.966   8.612  19.981  0.00  0.00    +0.000 HD
BRANCH   2   6
ATOM      6  C   UNL     1       1.117  10.583  19.235  0.00  0.00    +0.000 C 
BRANCH   6  10
ATOM      7  C   UNL     1      -3.080  11.590  18.709  0.00  0.00    +0.000 A 
ATOM      8  C   UNL     1      -2.404  10.771  17.786  0.00  0.00    +0.000 A 
ATOM      9  C   UNL     1      -1.056  10.447  17.956  0.00  0.00    +0.000 A 
ATOM     10  C   UNL     1      -0.333  10.976  19.025  0.00  0.00    +0.000 A 
ATOM     11  C   UNL     1      -0.982  11.855  19.899  0.00  0.00    +0.000 A 
ATOM     12  C   UNL     1      -2.347  12.180  19.751  0.00  0.00    +0.000 A 
BRANCH  12  13
ATOM     13  O   UNL     1      -2.767  13.057  20.715  0.00  0.00    +0.000 OA
ATOM     14  C   UNL     1      -2.225  14.368  20.749  0.00  0.00    +0.000 C 
ENDBRANCH  12  13
BRANCH   7  15
ATOM     15  O   UNL     1      -4.429  11.825  18.603  0.00  0.00    +0.000 OA
BRANCH  15  17
ATOM     16  C   UNL     1      -6.582  10.751  18.619  0.00  0.00    +0.000 C 
ATOM     17  C   UNL     1      -5.197  10.776  18.000  0.00  0.00    +0.000 C 
ENDBRANCH  15  17
ENDBRANCH   7  15
ENDBRANCH   6  10
ENDBRANCH   2   6
ENDBRANCH   1   3
BRANCH   1  18
ATOM     18  C   UNL     1       1.863   6.644  19.810  0.00  0.00    +0.000 C 
BRANCH  18  19
ATOM     19  S   UNL     1       2.132   4.911  20.021  0.00  0.00    +0.000 S 
ATOM     20  O   UNL     1       2.381   4.665  21.427  0.00  0.00    +0.000 OA
ATOM     21  O   UNL     1       1.061   4.204  19.335  0.00  0.00    +0.000 OA
BRANCH  19  22
ATOM     22  C   UNL     1       3.656   4.513  19.156  0.00  0.00    +0.000 A 
ATOM     23  C   UNL     1       3.598   3.990  17.829  0.00  0.00    +0.000 A 
ATOM     24  C   UNL     1       4.736   4.042  17.008  0.00  0.00    +0.000 A 
ATOM     25  C   UNL     1       5.813   4.699  17.548  0.00  0.00    +0.000 A 
ATOM     26  C   UNL     1       5.934   5.083  18.878  0.00  0.00    +0.000 A 
ATOM     27  C   UNL     1       4.853   4.985  19.721  0.00  0.00    +0.000 A 
ATOM     28  C   UNL     1       7.311   5.658  19.058  0.00  0.00    +0.000 C 
ATOM     29  C   UNL     1       7.490   6.264  17.655  0.00  0.00    +0.000 C 
ATOM     30  N   UNL     1       6.844   5.251  16.801  0.00  0.00    +0.000 N 
ATOM     31  C   UNL     1       6.993   5.031  15.460  0.00  0.00    +0.000 C 
ATOM     32  O   UNL     1       7.770   5.668  14.752  0.00  0.00    +0.000 OA
ATOM     33  C   UNL     1       6.249   3.802  14.965  0.00  0.00    +0.000 C 
ATOM     34  C   UNL     1       4.856   3.561  15.592  0.00  0.00    +0.000 C 
ENDBRANCH  19  22
ENDBRANCH  18  19
ENDBRANCH   1  18
TORSDOF 9
ENDMDL
MODEL 4
REMARK VINA RESULT:      -8.1      2.475      3.224
REMARK  Name = 
REMARK  11 active torsions:
REMARK  status: ('A' for Active; 'I' for Inactive)
REMARK    1  A    between atoms: C_1  and  C_2
REMARK    2  A    between atoms: C_2  and  O_3
REMARK    3  A    between atoms: O_3  and  C_4
REMARK    4  A    between atoms: C_7  and  C_8
REMARK    5  A    between atoms: C_8  and  N_9
REMARK    6  A    between atoms: C_10  and  C_12
REMARK    7  A    between atoms: C_12  and  C_13
REMARK    8  A    between atoms: C_13  and  S_14
REMARK    9  A    between atoms: S_14  and  C_17
REMARK   10  A    between atoms: C_31  and  O_32
REMARK   11  A    between atoms: O_32  and  C_33
REMARK                            x       y       z     vdW  Elec       q    Type
REMARK                         _______ _______ _______ _____ _____    ______ ____
ROOT
ATOM      1  C   UNL     1       8.157   7.616  18.449  0.00  0.00    +0.000 C 
ENDROOT
BRANCH   1   3
ATOM      2  N   UNL     1       9.382   9.563  19.208  0.00  0.00    +0.000 N 
ATOM      3  C   UNL     1       8.421   9.100  18.342  0.00  0.00    +0.000 C 
ATOM      4  O   UNL     1       7.802   9.817  17.562  0.00  0.00    +0.000 OA
ATOM      5  H   UNL     1       9.875   8.916  19.811  0.00  0.00    +0.000 HD
BRANCH   2   6
ATOM      6  C   UNL     1       9.850  10.929  19.169  0.00  0.00    +0.000 C 
BRANCH   6  10
ATOM      7  C   UNL     1       8.137  13.347  22.350  0.00  0.00    +0.000 A 
ATOM      8  C   UNL     1       8.404  11.980  22.536  0.00  0.00    +0.000 A 
ATOM      9  C   UNL     1       8.956  11.203  21.514  0.00  0.00    +0.000 A 
ATOM     10  C   UNL     1       9.205  11.761  20.261  0.00  0.00    +0.000 A 
ATOM     11  C   UNL     1       8.866  13.102  20.049  0.00  0.00    +0.000 A 
ATOM     12  C   UNL     1       8.324  13.904  21.075  0.00  0.00    +0.000 A 
BRANCH  12  13
ATOM     13  O   UNL     1       8.067  15.177  20.641  0.00  0.00    +0.000 OA
ATOM     14  C   UNL     1       7.540  15.378  19.339  0.00  0.00    +0.000 C 
ENDBRANCH  12  13
BRANCH   7  15
ATOM     15  O   UNL     1       7.694  14.137  23.383  0.00  0.00    +0.000 OA
BRANCH  15  17
ATOM     16  C   UNL     1       8.431  14.424  25.656  0.00  0.00    +0.000 C 
ATOM     17  C   UNL     1       8.716  14.726  24.196  0.00  0.00    +0.000 C 
ENDBRANCH  15  17
ENDBRANCH   7  15
ENDBRANCH   6  10
ENDBRANCH   2   6
ENDBRANCH   1   3
BRANCH   1  18
ATOM     18  C   UNL     1       7.438   7.104  17.201  0.00  0.00    +0.000 C 
BRANCH  18  19
ATOM     19  S   UNL     1       7.165   5.364  17.335  0.00  0.00    +0.000 S 
ATOM     20  O   UNL     1       7.527   4.755  16.071  0.00  0.00    +0.000 OA
ATOM     21  O   UNL     1       7.785   4.906  18.569  0.00  0.00    +0.000 OA
BRANCH  19  22
ATOM     22  C   UNL     1       5.394   5.130  17.526  0.00  0.00    +0.000 A 
ATOM     23  C   UNL     1       4.832   3.828  17.363  0.00  0.00    +0.000 A 
ATOM     24  C   UNL     1       3.557   3.549  17.879  0.00  0.00    +0.000 A 
ATOM     25  C   UNL     1       2.985   4.567  18.599  0.00  0.00    +0.000 A 
ATOM     26  C   UNL     1       3.449   5.876  18.644  0.00  0.00    +0.000 A 
ATOM     27  C   UNL     1       4.667   6.191  18.093  0.00  0.00    +0.000 A 
ATOM     28  C   UNL     1       2.462   6.677  19.448  0.00  0.00    +0.000 C 
ATOM     29  C   UNL     1       2.010   5.572  20.419  0.00  0.00    +0.000 C 
ATOM     30  N   UNL     1       1.983   4.387  19.542  0.00  0.00    +0.000 N 
ATOM     31  C   UNL     1       1.324   3.201  19.714  0.00  0.00    +0.000 C 
ATOM     32  O   UNL     1       0.587   2.969  20.669  0.00  0.00    +0.000 OA
ATOM     33  C   UNL     1       1.442   2.270  18.519  0.00  0.00    +0.000 C 
ATOM     34  C   UNL     1       2.820   2.243  17.819  0.00  0.00    +0.000 C 
ENDBRANCH  19  22
ENDBRANCH  18  19
ENDBRANCH   1  18
TORSDOF 9
ENDMDL
MODEL 5
REMARK VINA RESULT:      -8.0      2.675      3.597
REMARK  Name = 
REMARK  11 active torsions:
REMARK  status: ('A' for Active; 'I' for Inactive)
REMARK    1  A    between atoms: C_1  and  C_2
REMARK    2  A    between atoms: C_2  and  O_3
REMARK    3  A    between atoms: O_3  and  C_4
REMARK    4  A    between atoms: C_7  and  C_8
REMARK    5  A    between atoms: C_8  and  N_9
REMARK    6  A    between atoms: C_10  and  C_12
REMARK    7  A    between atoms: C_12  and  C_13
REMARK    8  A    between atoms: C_13  and  S_14
REMARK    9  A    between atoms: S_14  and  C_17
REMARK   10  A    between atoms: C_31  and  O_32
REMARK   11  A    between atoms: O_32  and  C_33
REMARK                            x       y       z     vdW  Elec       q    Type
REMARK                         _______ _______ _______ _____ _____    ______ ____
ROOT
ATOM      1  C   UNL     1       8.225   7.739  18.492  0.00  0.00    +0.000 C 
ENDROOT
BRANCH   1   3
ATOM      2  N   UNL     1       9.371   9.682  19.377  0.00  0.00    +0.000 N 
ATOM      3  C   UNL     1       8.515   9.220  18.406  0.00  0.00    +0.000 C 
ATOM      4  O   UNL     1       8.002   9.936  17.552  0.00  0.00    +0.000 OA
ATOM      5  H   UNL     1       9.781   9.035  20.040  0.00  0.00    +0.000 HD
BRANCH   2   6
ATOM      6  C   UNL     1       9.854  11.043  19.384  0.00  0.00    +0.000 C 
BRANCH   6  10
ATOM      7  C   UNL     1       8.637  13.133  22.997  0.00  0.00    +0.000 A 
ATOM      8  C   UNL     1       8.342  11.772  22.807  0.00  0.00    +0.000 A 
ATOM      9  C   UNL     1       8.735  11.100  21.646  0.00  0.00    +0.000 A 
ATOM     10  C   UNL     1       9.385  11.785  20.621  0.00  0.00    +0.000 A 
ATOM     11  C   UNL     1       9.609  13.158  20.773  0.00  0.00    +0.000 A 
ATOM     12  C   UNL     1       9.233  13.848  21.945  0.00  0.00    +0.000 A 
BRANCH  12  13
ATOM     13  O   UNL     1       9.545  15.179  21.872  0.00  0.00    +0.000 OA
ATOM     14  C   UNL     1      10.802  15.574  21.347  0.00  0.00    +0.000 C 
ENDBRANCH  12  13
BRANCH   7  15
ATOM     15  O   UNL     1       8.347  13.770  24.179  0.00  0.00    +0.000 OA
BRANCH  15  17
ATOM     16  C   UNL     1       5.950  13.732  24.375  0.00  0.00    +0.000 C 
ATOM     17  C   UNL     1       7.178  14.598  24.169  0.00  0.00    +0.000 C 
ENDBRANCH  15  17
ENDBRANCH   7  15
ENDBRANCH   6  10
ENDBRANCH   2   6
ENDBRANCH   1   3
BRANCH   1  18
ATOM     18  C   UNL     1       7.456   7.267  17.258  0.00  0.00    +0.000 C 
BRANCH  18  19
ATOM     19  S   UNL     1       7.204   5.521  17.338  0.00  0.00    +0.000 S 
ATOM     20  O   UNL     1       7.584   4.955  16.059  0.00  0.00    +0.000 OA
ATOM     21  O   UNL     1       7.821   5.034  18.563  0.00  0.00    +0.000 OA
BRANCH  19  22
ATOM     22  C   UNL     1       5.435   5.258  17.507  0.00  0.00    +0.000 A 
ATOM     23  C   UNL     1       4.899   3.943  17.363  0.00  0.00    +0.000 A 
ATOM     24  C   UNL     1       3.621   3.652  17.865  0.00  0.00    +0.000 A 
ATOM     25  C   UNL     1       3.020   4.674  18.556  0.00  0.00    +0.000 A 
ATOM     26  C   UNL     1       3.460   5.992  18.581  0.00  0.00    +0.000 A 
ATOM     27  C   UNL     1       4.681   6.317  18.041  0.00  0.00    +0.000 A 
ATOM     28  C   UNL     1       2.446   6.791  19.352  0.00  0.00    +0.000 C 
ATOM     29  C   UNL     1       1.999   5.698  20.339  0.00  0.00    +0.000 C 
ATOM     30  N   UNL     1       2.007   4.496  19.487  0.00  0.00    +0.000 N 
ATOM     31  C   UNL     1       1.367   3.302  19.674  0.00  0.00    +0.000 C 
ATOM     32  O   UNL     1       0.620   3.075  20.622  0.00  0.00    +0.000 OA
ATOM     33  C   UNL     1       1.520   2.348  18.500  0.00  0.00    +0.000 C 
ATOM     34  C   UNL     1       2.908   2.331  17.822  0.00  0.00    +0.000 C 
ENDBRANCH  19  22
ENDBRANCH  18  19
ENDBRANCH   1  18
TORSDOF 9
ENDMDL
MODEL 6
REMARK VINA RESULT:      -7.9      3.488     10.776
REMARK  Name = 
REMARK  11 active torsions:
REMARK  status: ('A' for Active; 'I' for Inactive)
REMARK    1  A    between atoms: C_1  and  C_2
REMARK    2  A    between atoms: C_2  and  O_3
REMARK    3  A    between atoms: O_3  and  C_4
REMARK    4  A    between atoms: C_7  and  C_8
REMARK    5  A    between atoms: C_8  and  N_9
REMARK    6  A    between atoms: C_10  and  C_12
REMARK    7  A    between atoms: C_12  and  C_13
REMARK    8  A    between atoms: C_13  and  S_14
REMARK    9  A    between atoms: S_14  and  C_17
REMARK   10  A    between atoms: C_31  and  O_32
REMARK   11  A    between atoms: O_32  and  C_33
REMARK                            x       y       z     vdW  Elec       q    Type
REMARK                         _______ _______ _______ _____ _____    ______ ____
ROOT
ATOM      1  C   UNL     1       7.917   9.183  18.047  0.00  0.00    +0.000 C 
ENDROOT
BRANCH   1   3
ATOM      2  N   UNL     1       7.890   6.878  18.792  0.00  0.00    +0.000 N 
ATOM      3  C   UNL     1       7.896   7.712  17.701  0.00  0.00    +0.000 C 
ATOM      4  O   UNL     1       7.907   7.316  16.539  0.00  0.00    +0.000 OA
ATOM      5  H   UNL     1       7.857   7.267  19.727  0.00  0.00    +0.000 HD
BRANCH   2   6
ATOM      6  C   UNL     1       7.753   5.446  18.659  0.00  0.00    +0.000 C 
BRANCH   6  10
ATOM      7  C   UNL     1       3.693   4.206  17.719  0.00  0.00    +0.000 A 
ATOM      8  C   UNL     1       4.739   4.045  16.793  0.00  0.00    +0.000 A 
ATOM      9  C   UNL     1       6.044   4.443  17.096  0.00  0.00    +0.000 A 
ATOM     10  C   UNL     1       6.328   5.061  18.313  0.00  0.00    +0.000 A 
ATOM     11  C   UNL     1       5.274   5.295  19.204  0.00  0.00    +0.000 A 
ATOM     12  C   UNL     1       3.955   4.885  18.920  0.00  0.00    +0.000 A 
BRANCH  12  13
ATOM     13  O   UNL     1       3.092   5.220  19.929  0.00  0.00    +0.000 OA
ATOM     14  C   UNL     1       2.328   6.411  19.828  0.00  0.00    +0.000 C 
ENDBRANCH  12  13
BRANCH   7  15
ATOM     15  O   UNL     1       2.433   3.721  17.468  0.00  0.00    +0.000 OA
BRANCH  15  17
ATOM     16  C   UNL     1       0.947   2.430  18.851  0.00  0.00    +0.000 C 
ATOM     17  C   UNL     1       2.168   2.399  17.952  0.00  0.00    +0.000 C 
ENDBRANCH  15  17
ENDBRANCH   7  15
ENDBRANCH   6  10
ENDBRANCH   2   6
ENDBRANCH   1   3
BRANCH   1  18
ATOM     18  C   UNL     1       9.222   9.553  18.752  0.00  0.00    +0.000 C 
BRANCH  18  19
ATOM     19  S   UNL     1       9.582  11.263  18.493  0.00  0.00    +0.000 S 
ATOM     20  O   UNL     1      10.874  11.355  17.844  0.00  0.00    +0.000 OA
ATOM     21  O   UNL     1       8.414  11.880  17.882  0.00  0.00    +0.000 OA
BRANCH  19  22
ATOM     22  C   UNL     1       9.772  12.006  20.118  0.00  0.00    +0.000 A 
ATOM     23  C   UNL     1      10.274  13.337  20.231  0.00  0.00    +0.000 A 
ATOM     24  C   UNL     1      10.066  14.062  21.415  0.00  0.00    +0.000 A 
ATOM     25  C   UNL     1       9.290  13.432  22.355  0.00  0.00    +0.000 A 
ATOM     26  C   UNL     1       8.918  12.094  22.321  0.00  0.00    +0.000 A 
ATOM     27  C   UNL     1       9.164  11.342  21.198  0.00  0.00    +0.000 A 
ATOM     28  C   UNL     1       8.179  11.799  23.597  0.00  0.00    +0.000 C 
ATOM     29  C   UNL     1       7.530  13.178  23.808  0.00  0.00    +0.000 C 
ATOM     30  N   UNL     1       8.600  14.090  23.364  0.00  0.00    +0.000 N 
ATOM     31  C   UNL     1       8.776  15.416  23.646  0.00  0.00    +0.000 C 
ATOM     32  O   UNL     1       8.036  16.054  24.390  0.00  0.00    +0.000 OA
ATOM     33  C   UNL     1      10.079  15.978  23.103  0.00  0.00    +0.000 C 
ATOM     34  C   UNL     1      10.503  15.468  21.706  0.00  0.00    +0.000 C 
ENDBRANCH  19  22
ENDBRANCH  18  19
ENDBRANCH   1  18
TORSDOF 9
ENDMDL
MODEL 7
REMARK VINA RESULT:      -7.9      2.676      3.403
REMARK  Name = 
REMARK  11 active torsions:
REMARK  status: ('A' for Active; 'I' for Inactive)
REMARK    1  A    between atoms: C_1  and  C_2
REMARK    2  A    between atoms: C_2  and  O_3
REMARK    3  A    between atoms: O_3  and  C_4
REMARK    4  A    between atoms: C_7  and  C_8
REMARK    5  A    between atoms: C_8  and  N_9
REMARK    6  A    between atoms: C_10  and  C_12
REMARK    7  A    between atoms: C_12  and  C_13
REMARK    8  A    between atoms: C_13  and  S_14
REMARK    9  A    between atoms: S_14  and  C_17
REMARK   10  A    between atoms: C_31  and  O_32
REMARK   11  A    between atoms: O_32  and  C_33
REMARK                            x       y       z     vdW  Elec       q    Type
REMARK                         _______ _______ _______ _____ _____    ______ ____
ROOT
ATOM      1  C   UNL     1       8.282   7.761  18.554  0.00  0.00    +0.000 C 
ENDROOT
BRANCH   1   3
ATOM      2  N   UNL     1       9.382   9.851  19.094  0.00  0.00    +0.000 N 
ATOM      3  C   UNL     1       8.449   9.240  18.292  0.00  0.00    +0.000 C 
ATOM      4  O   UNL     1       7.781   9.831  17.449  0.00  0.00    +0.000 OA
ATOM      5  H   UNL     1       9.918   9.302  19.755  0.00  0.00    +0.000 HD
BRANCH   2   6
ATOM      6  C   UNL     1       9.759  11.233  18.909  0.00  0.00    +0.000 C 
BRANCH   6  10
ATOM      7  C   UNL     1       9.213  13.558  22.542  0.00  0.00    +0.000 A 
ATOM      8  C   UNL     1      10.011  14.032  21.485  0.00  0.00    +0.000 A 
ATOM      9  C   UNL     1      10.185  13.284  20.317  0.00  0.00    +0.000 A 
ATOM     10  C   UNL     1       9.610  12.020  20.197  0.00  0.00    +0.000 A 
ATOM     11  C   UNL     1       8.882  11.513  21.279  0.00  0.00    +0.000 A 
ATOM     12  C   UNL     1       8.683  12.261  22.458  0.00  0.00    +0.000 A 
BRANCH  12  13
ATOM     13  O   UNL     1       7.947  11.567  23.381  0.00  0.00    +0.000 OA
ATOM     14  C   UNL     1       6.537  11.727  23.413  0.00  0.00    +0.000 C 
ENDBRANCH  12  13
BRANCH   7  15
ATOM     15  O   UNL     1       8.953  14.334  23.645  0.00  0.00    +0.000 OA
BRANCH  15  17
ATOM     16  C   UNL     1       7.611  15.980  22.515  0.00  0.00    +0.000 C 
ATOM     17  C   UNL     1       7.678  14.987  23.660  0.00  0.00    +0.000 C 
ENDBRANCH  15  17
ENDBRANCH   7  15
ENDBRANCH   6  10
ENDBRANCH   2   6
ENDBRANCH   1   3
BRANCH   1  18
ATOM     18  C   UNL     1       7.522   7.091  17.409  0.00  0.00    +0.000 C 
BRANCH  18  19
ATOM     19  S   UNL     1       7.336   5.366  17.738  0.00  0.00    +0.000 S 
ATOM     20  O   UNL     1       7.813   4.636  16.581  0.00  0.00    +0.000 OA
ATOM     21  O   UNL     1       7.899   5.097  19.053  0.00  0.00    +0.000 OA
BRANCH  19  22
ATOM     22  C   UNL     1       5.572   5.046  17.852  0.00  0.00    +0.000 A 
ATOM     23  C   UNL     1       5.091   3.704  17.782  0.00  0.00    +0.000 A 
ATOM     24  C   UNL     1       3.804   3.399  18.250  0.00  0.00    +0.000 A 
ATOM     25  C   UNL     1       3.136   4.442  18.840  0.00  0.00    +0.000 A 
ATOM     26  C   UNL     1       3.526   5.775  18.788  0.00  0.00    +0.000 A 
ATOM     27  C   UNL     1       4.757   6.110  18.277  0.00  0.00    +0.000 A 
ATOM     28  C   UNL     1       2.451   6.586  19.458  0.00  0.00    +0.000 C 
ATOM     29  C   UNL     1       2.001   5.548  20.501  0.00  0.00    +0.000 C 
ATOM     30  N   UNL     1       2.090   4.290  19.739  0.00  0.00    +0.000 N 
ATOM     31  C   UNL     1       1.487   3.088  19.985  0.00  0.00    +0.000 C 
ATOM     32  O   UNL     1       0.707   2.899  20.915  0.00  0.00    +0.000 OA
ATOM     33  C   UNL     1       1.725   2.061  18.890  0.00  0.00    +0.000 C 
ATOM     34  C   UNL     1       3.142   2.051  18.272  0.00  0.00    +0.000 C 
ENDBRANCH  19  22
ENDBRANCH  18  19
ENDBRANCH   1  18
TORSDOF 9
ENDMDL
MODEL 8
REMARK VINA RESULT:      -7.9      1.991      2.733
REMARK  Name = 
REMARK  11 active torsions:
REMARK  status: ('A' for Active; 'I' for Inactive)
REMARK    1  A    between atoms: C_1  and  C_2
REMARK    2  A    between atoms: C_2  and  O_3
REMARK    3  A    between atoms: O_3  and  C_4
REMARK    4  A    between atoms: C_7  and  C_8
REMARK    5  A    between atoms: C_8  and  N_9
REMARK    6  A    between atoms: C_10  and  C_12
REMARK    7  A    between atoms: C_12  and  C_13
REMARK    8  A    between atoms: C_13  and  S_14
REMARK    9  A    between atoms: S_14  and  C_17
REMARK   10  A    between atoms: C_31  and  O_32
REMARK   11  A    between atoms: O_32  and  C_33
REMARK                            x       y       z     vdW  Elec       q    Type
REMARK                         _______ _______ _______ _____ _____    ______ ____
ROOT
ATOM      1  C   UNL     1       7.723   8.287  17.571  0.00  0.00    +0.000 C 
ENDROOT
BRANCH   1   3
ATOM      2  N   UNL     1       8.993  10.349  17.513  0.00  0.00    +0.000 N 
ATOM      3  C   UNL     1       8.659   9.248  18.265  0.00  0.00    +0.000 C 
ATOM      4  O   UNL     1       9.094   9.035  19.392  0.00  0.00    +0.000 OA
ATOM      5  H   UNL     1       8.581  10.480  16.597  0.00  0.00    +0.000 HD
BRANCH   2   6
ATOM      6  C   UNL     1       9.783  11.431  18.052  0.00  0.00    +0.000 C 
BRANCH   6  10
ATOM      7  C   UNL     1       7.163  14.686  19.253  0.00  0.00    +0.000 A 
ATOM      8  C   UNL     1       7.195  14.227  17.925  0.00  0.00    +0.000 A 
ATOM      9  C   UNL     1       8.036  13.179  17.539  0.00  0.00    +0.000 A 
ATOM     10  C   UNL     1       8.907  12.600  18.461  0.00  0.00    +0.000 A 
ATOM     11  C   UNL     1       8.934  13.108  19.764  0.00  0.00    +0.000 A 
ATOM     12  C   UNL     1       8.080  14.154  20.173  0.00  0.00    +0.000 A 
BRANCH  12  13
ATOM     13  O   UNL     1       8.283  14.490  21.485  0.00  0.00    +0.000 OA
ATOM     14  C   UNL     1       8.587  13.474  22.427  0.00  0.00    +0.000 C 
ENDBRANCH  12  13
BRANCH   7  15
ATOM     15  O   UNL     1       6.263  15.641  19.659  0.00  0.00    +0.000 OA
BRANCH  15  17
ATOM     16  C   UNL     1       6.344  18.016  20.034  0.00  0.00    +0.000 C 
ATOM     17  C   UNL     1       6.362  16.908  18.998  0.00  0.00    +0.000 C 
ENDBRANCH  15  17
ENDBRANCH   7  15
ENDBRANCH   6  10
ENDBRANCH   2   6
ENDBRANCH   1   3
BRANCH   1  18
ATOM     18  C   UNL     1       7.697   6.941  18.295  0.00  0.00    +0.000 C 
BRANCH  18  19
ATOM     19  S   UNL     1       7.276   5.655  17.159  0.00  0.00    +0.000 S 
ATOM     20  O   UNL     1       7.486   6.159  15.816  0.00  0.00    +0.000 OA
ATOM     21  O   UNL     1       7.943   4.437  17.593  0.00  0.00    +0.000 OA
BRANCH  19  22
ATOM     22  C   UNL     1       5.510   5.370  17.327  0.00  0.00    +0.000 A 
ATOM     23  C   UNL     1       5.000   4.039  17.255  0.00  0.00    +0.000 A 
ATOM     24  C   UNL     1       3.722   3.754  17.762  0.00  0.00    +0.000 A 
ATOM     25  C   UNL     1       3.096   4.803  18.387  0.00  0.00    +0.000 A 
ATOM     26  C   UNL     1       3.512   6.128  18.340  0.00  0.00    +0.000 A 
ATOM     27  C   UNL     1       4.732   6.444  17.793  0.00  0.00    +0.000 A 
ATOM     28  C   UNL     1       2.477   6.951  19.055  0.00  0.00    +0.000 C 
ATOM     29  C   UNL     1       2.040   5.909  20.100  0.00  0.00    +0.000 C 
ATOM     30  N   UNL     1       2.078   4.660  19.318  0.00  0.00    +0.000 N 
ATOM     31  C   UNL     1       1.458   3.467  19.568  0.00  0.00    +0.000 C 
ATOM     32  O   UNL     1       0.706   3.281  20.521  0.00  0.00    +0.000 OA
ATOM     33  C   UNL     1       1.638   2.450  18.453  0.00  0.00    +0.000 C 
ATOM     34  C   UNL     1       3.034   2.420  17.788  0.00  0.00    +0.000 C 
ENDBRANCH  19  22
ENDBRANCH  18  19
ENDBRANCH   1  18
TORSDOF 9
ENDMDL
MODEL 9
REMARK VINA RESULT:      -7.7      5.548      9.304
REMARK  Name = 
REMARK  11 active torsions:
REMARK  status: ('A' for Active; 'I' for Inactive)
REMARK    1  A    between atoms: C_1  and  C_2
REMARK    2  A    between atoms: C_2  and  O_3
REMARK    3  A    between atoms: O_3  and  C_4
REMARK    4  A    between atoms: C_7  and  C_8
REMARK    5  A    between atoms: C_8  and  N_9
REMARK    6  A    between atoms: C_10  and  C_12
REMARK    7  A    between atoms: C_12  and  C_13
REMARK    8  A    between atoms: C_13  and  S_14
REMARK    9  A    between atoms: S_14  and  C_17
REMARK   10  A    between atoms: C_31  and  O_32
REMARK   11  A    between atoms: O_32  and  C_33
REMARK                            x       y       z     vdW  Elec       q    Type
REMARK                         _______ _______ _______ _____ _____    ______ ____
ROOT
ATOM      1  C   UNL     1       1.937   7.721  20.456  0.00  0.00    +0.000 C 
ENDROOT
BRANCH   1   3
ATOM      2  N   UNL     1       2.450   6.026  18.803  0.00  0.00    +0.000 N 
ATOM      3  C   UNL     1       2.095   6.259  20.109  0.00  0.00    +0.000 C 
ATOM      4  O   UNL     1       1.894   5.369  20.930  0.00  0.00    +0.000 OA
ATOM      5  H   UNL     1       2.626   6.805  18.179  0.00  0.00    +0.000 HD
BRANCH   2   6
ATOM      6  C   UNL     1       2.759   4.700  18.320  0.00  0.00    +0.000 C 
BRANCH   6  10
ATOM      7  C   UNL     1       6.362   4.698  15.887  0.00  0.00    +0.000 A 
ATOM      8  C   UNL     1       5.674   3.506  16.173  0.00  0.00    +0.000 A 
ATOM      9  C   UNL     1       4.514   3.507  16.954  0.00  0.00    +0.000 A 
ATOM     10  C   UNL     1       4.044   4.694  17.514  0.00  0.00    +0.000 A 
ATOM     11  C   UNL     1       4.772   5.869  17.297  0.00  0.00    +0.000 A 
ATOM     12  C   UNL     1       5.934   5.888  16.499  0.00  0.00    +0.000 A 
BRANCH  12  13
ATOM     13  O   UNL     1       6.482   7.141  16.430  0.00  0.00    +0.000 OA
ATOM     14  C   UNL     1       6.949   7.765  17.615  0.00  0.00    +0.000 C 
ENDBRANCH  12  13
BRANCH   7  15
ATOM     15  O   UNL     1       7.439   4.716  15.035  0.00  0.00    +0.000 OA
BRANCH  15  17
ATOM     16  C   UNL     1       6.409   3.778  13.073  0.00  0.00    +0.000 C 
ATOM     17  C   UNL     1       7.137   4.974  13.658  0.00  0.00    +0.000 C 
ENDBRANCH  15  17
ENDBRANCH   7  15
ENDBRANCH   6  10
ENDBRANCH   2   6
ENDBRANCH   1   3
BRANCH   1  18
ATOM     18  C   UNL     1       0.655   7.952  21.255  0.00  0.00    +0.000 C 
BRANCH  18  19
ATOM     19  S   UNL     1       0.605   9.616  21.845  0.00  0.00    +0.000 S 
ATOM     20  O   UNL     1      -0.190   9.637  23.057  0.00  0.00    +0.000 OA
ATOM     21  O   UNL     1       1.967  10.128  21.859  0.00  0.00    +0.000 OA
BRANCH  19  22
ATOM     22  C   UNL     1      -0.299  10.574  20.624  0.00  0.00    +0.000 A 
ATOM     23  C   UNL     1      -0.454  10.065  19.300  0.00  0.00    +0.000 A 
ATOM     24  C   UNL     1      -1.457  10.583  18.466  0.00  0.00    +0.000 A 
ATOM     25  C   UNL     1      -2.287  11.502  19.055  0.00  0.00    +0.000 A 
ATOM     26  C   UNL     1      -2.064  12.111  20.285  0.00  0.00    +0.000 A 
ATOM     27  C   UNL     1      -1.049  11.665  21.097  0.00  0.00    +0.000 A 
ATOM     28  C   UNL     1      -3.150  13.131  20.486  0.00  0.00    +0.000 C 
ATOM     29  C   UNL     1      -4.283  12.407  19.738  0.00  0.00    +0.000 C 
ATOM     30  N   UNL     1      -3.563  11.804  18.602  0.00  0.00    +0.000 N 
ATOM     31  C   UNL     1      -4.055  11.357  17.408  0.00  0.00    +0.000 C 
ATOM     32  O   UNL     1      -5.238  11.443  17.088  0.00  0.00    +0.000 OA
ATOM     33  C   UNL     1      -2.971  10.917  16.438  0.00  0.00    +0.000 C 
ATOM     34  C   UNL     1      -1.776  10.161  17.061  0.00  0.00    +0.000 C 
ENDBRANCH  19  22
ENDBRANCH  18  19
ENDBRANCH   1  18
TORSDOF 9
ENDMDL
