MODEL 1
REMARK VINA RESULT:      -7.0      0.000      0.000
REMARK  Name = 
REMARK  9 active torsions:
REMARK  status: ('A' for Active; 'I' for Inactive)
REMARK    1  A    between atoms: C_1  and  C_2
REMARK    2  A    between atoms: C_7  and  C_8
REMARK    3  A    between atoms: C_8  and  C_9
REMARK    4  A    between atoms: C_14  and  O_15
REMARK    5  A    between atoms: C_14  and  C_16
REMARK    6  A    between atoms: C_16  and  N_17
REMARK    7  A    between atoms: N_17  and  S_18
REMARK    8  A    between atoms: S_18  and  C_19
REMARK    9  A    between atoms: C_22  and  O_23
REMARK                            x       y       z     vdW  Elec       q    Type
REMARK                         _______ _______ _______ _____ _____    ______ ____
ROOT
ATOM      1  C   UNL     1       1.338   5.466  20.308  0.00  0.00    +0.000 C 
ATOM      2  O   UNL     1       0.242   4.937  20.481  0.00  0.00    +0.000 OA
ATOM      3  N   UNL     1       2.312   4.881  19.470  0.00  0.00    +0.000 N 
ATOM      4  C   UNL     1       1.960   3.646  18.774  0.00  0.00    +0.000 C 
ATOM      5  C   UNL     1       2.880   3.387  17.576  0.00  0.00    +0.000 C 
ATOM      6  C   UNL     1       4.380   3.495  17.921  0.00  0.00    +0.000 C 
ATOM      7  C   UNL     1       4.681   4.788  18.705  0.00  0.00    +0.000 C 
ATOM      8  C   UNL     1       3.708   5.000  19.852  0.00  0.00    +0.000 C 
ENDROOT
BRANCH   6   9
ATOM      9  O   UNL     1       4.786   2.367  18.734  0.00  0.00    +0.000 OA
ATOM     10  H   UNL     1       5.703   2.129  18.515  0.00  0.00    +0.000 HD
ENDBRANCH   6   9
BRANCH   7  11
ATOM     11  O   UNL     1       5.994   4.723  19.284  0.00  0.00    +0.000 OA
ATOM     12  H   UNL     1       5.907   5.088  20.188  0.00  0.00    +0.000 HD
ENDBRANCH   7  11
BRANCH   1  13
ATOM     13  C   UNL     1       1.785   6.771  20.987  0.00  0.00    +0.000 C 
BRANCH  13  20
ATOM     14  C   UNL     1       0.092   9.074  22.148  0.00  0.00    +0.000 C 
ATOM     15  C   UNL     1       0.725   9.109  20.784  0.00  0.00    +0.000 A 
ATOM     16  C   UNL     1       0.508  10.258  19.998  0.00  0.00    +0.000 A 
ATOM     17  C   UNL     1       1.027  10.358  18.707  0.00  0.00    +0.000 A 
ATOM     18  C   UNL     1       1.775   9.315  18.177  0.00  0.00    +0.000 A 
ATOM     19  C   UNL     1       2.019   8.183  18.944  0.00  0.00    +0.000 A 
ATOM     20  C   UNL     1       1.525   8.070  20.258  0.00  0.00    +0.000 A 
ENDBRANCH  13  20
ENDBRANCH   1  13
BRANCH   6  21
ATOM     21  C   UNL     1       5.210   3.456  16.608  0.00  0.00    +0.000 C 
BRANCH  21  22
ATOM     22  N   UNL     1       5.667   4.790  16.220  0.00  0.00    +0.000 NA
ATOM     23  H   UNL     1       4.999   5.528  15.999  0.00  0.00    +0.000 HD
BRANCH  22  24
ATOM     24  S   UNL     1       7.271   5.172  16.156  0.00  0.00    +0.000 S 
ATOM     25  C   UNL     1       7.270   6.765  16.936  0.00  0.00    +0.000 C 
ATOM     26  O   UNL     1       7.995   4.243  16.996  0.00  0.00    +0.000 OA
ATOM     27  O   UNL     1       7.602   5.365  14.767  0.00  0.00    +0.000 OA
ENDBRANCH  22  24
ENDBRANCH  21  22
ENDBRANCH   6  21
TORSDOF 7
ENDMDL
MODEL 2
REMARK VINA RESULT:      -6.9      1.099      1.415
REMARK  Name = 
REMARK  9 active torsions:
REMARK  status: ('A' for Active; 'I' for Inactive)
REMARK    1  A    between atoms: C_1  and  C_2
REMARK    2  A    between atoms: C_7  and  C_8
REMARK    3  A    between atoms: C_8  and  C_9
REMARK    4  A    between atoms: C_14  and  O_15
REMARK    5  A    between atoms: C_14  and  C_16
REMARK    6  A    between atoms: C_16  and  N_17
REMARK    7  A    between atoms: N_17  and  S_18
REMARK    8  A    between atoms: S_18  and  C_19
REMARK    9  A    between atoms: C_22  and  O_23
REMARK                            x       y       z     vdW  Elec       q    Type
REMARK                         _______ _______ _______ _____ _____    ______ ____
ROOT
ATOM      1  C   UNL     1       1.752   6.059  20.305  0.00  0.00    +0.000 C 
ATOM      2  O   UNL     1       0.753   5.540  20.798  0.00  0.00    +0.000 OA
ATOM      3  N   UNL     1       2.634   5.322  19.485  0.00  0.00    +0.000 N 
ATOM      4  C   UNL     1       2.297   3.930  19.199  0.00  0.00    +0.000 C 
ATOM      5  C   UNL     1       3.037   3.408  17.964  0.00  0.00    +0.000 C 
ATOM      6  C   UNL     1       4.556   3.679  18.000  0.00  0.00    +0.000 C 
ATOM      7  C   UNL     1       4.852   5.149  18.364  0.00  0.00    +0.000 C 
ATOM      8  C   UNL     1       4.055   5.609  19.572  0.00  0.00    +0.000 C 
ENDROOT
BRANCH   6   9
ATOM      9  O   UNL     1       5.190   2.832  18.988  0.00  0.00    +0.000 OA
ATOM     10  H   UNL     1       4.782   2.993  19.856  0.00  0.00    +0.000 HD
ENDBRANCH   6   9
BRANCH   7  11
ATOM     11  O   UNL     1       6.239   5.307  18.700  0.00  0.00    +0.000 OA
ATOM     12  H   UNL     1       6.683   5.598  17.878  0.00  0.00    +0.000 HD
ENDBRANCH   7  11
BRANCH   1  13
ATOM     13  C   UNL     1       2.174   7.519  20.540  0.00  0.00    +0.000 C 
BRANCH  13  20
ATOM     14  C   UNL     1      -0.129   8.917  22.042  0.00  0.00    +0.000 C 
ATOM     15  C   UNL     1       0.246   9.223  20.618  0.00  0.00    +0.000 A 
ATOM     16  C   UNL     1      -0.520  10.192  19.941  0.00  0.00    +0.000 A 
ATOM     17  C   UNL     1      -0.265  10.510  18.607  0.00  0.00    +0.000 A 
ATOM     18  C   UNL     1       0.761   9.868  17.924  0.00  0.00    +0.000 A 
ATOM     19  C   UNL     1       1.541   8.926  18.581  0.00  0.00    +0.000 A 
ATOM     20  C   UNL     1       1.317   8.606  19.934  0.00  0.00    +0.000 A 
ENDBRANCH  13  20
ENDBRANCH   1  13
BRANCH   6  21
ATOM     21  C   UNL     1       5.170   3.335  16.615  0.00  0.00    +0.000 C 
BRANCH  21  22
ATOM     22  N   UNL     1       6.349   4.151  16.330  0.00  0.00    +0.000 NA
ATOM     23  H   UNL     1       7.152   4.147  16.958  0.00  0.00    +0.000 HD
BRANCH  22  24
ATOM     24  S   UNL     1       6.450   5.083  14.972  0.00  0.00    +0.000 S 
ATOM     25  C   UNL     1       6.010   3.904  13.721  0.00  0.00    +0.000 C 
ATOM     26  O   UNL     1       5.421   6.097  15.037  0.00  0.00    +0.000 OA
ATOM     27  O   UNL     1       7.840   5.415  14.791  0.00  0.00    +0.000 OA
ENDBRANCH  22  24
ENDBRANCH  21  22
ENDBRANCH   6  21
TORSDOF 7
ENDMDL
MODEL 3
REMARK VINA RESULT:      -6.9      0.450      1.486
REMARK  Name = 
REMARK  9 active torsions:
REMARK  status: ('A' for Active; 'I' for Inactive)
REMARK    1  A    between atoms: C_1  and  C_2
REMARK    2  A    between atoms: C_7  and  C_8
REMARK    3  A    between atoms: C_8  and  C_9
REMARK    4  A    between atoms: C_14  and  O_15
REMARK    5  A    between atoms: C_14  and  C_16
REMARK    6  A    between atoms: C_16  and  N_17
REMARK    7  A    between atoms: N_17  and  S_18
REMARK    8  A    between atoms: S_18  and  C_19
REMARK    9  A    between atoms: C_22  and  O_23
REMARK                            x       y       z     vdW  Elec       q    Type
REMARK                         _______ _______ _______ _____ _____    ______ ____
ROOT
ATOM      1  C   UNL     1       1.372   5.590  20.326  0.00  0.00    +0.000 C 
ATOM      2  O   UNL     1       0.255   5.103  20.486  0.00  0.00    +0.000 OA
ATOM      3  N   UNL     1       2.321   4.986  19.474  0.00  0.00    +0.000 N 
ATOM      4  C   UNL     1       1.920   3.784  18.748  0.00  0.00    +0.000 C 
ATOM      5  C   UNL     1       2.829   3.515  17.545  0.00  0.00    +0.000 C 
ATOM      6  C   UNL     1       4.332   3.552  17.893  0.00  0.00    +0.000 C 
ATOM      7  C   UNL     1       4.685   4.813  18.708  0.00  0.00    +0.000 C 
ATOM      8  C   UNL     1       3.721   5.037  19.860  0.00  0.00    +0.000 C 
ENDROOT
BRANCH   6   9
ATOM      9  O   UNL     1       4.689   2.389  18.678  0.00  0.00    +0.000 OA
ATOM     10  H   UNL     1       3.958   1.748  18.650  0.00  0.00    +0.000 HD
ENDBRANCH   6   9
BRANCH   7  11
ATOM     11  O   UNL     1       5.993   4.679  19.286  0.00  0.00    +0.000 OA
ATOM     12  H   UNL     1       5.879   4.820  20.247  0.00  0.00    +0.000 HD
ENDBRANCH   7  11
BRANCH   1  13
ATOM     13  C   UNL     1       1.872   6.859  21.036  0.00  0.00    +0.000 C 
BRANCH  13  20
ATOM     14  C   UNL     1       2.204   8.376  18.371  0.00  0.00    +0.000 C 
ATOM     15  C   UNL     1       1.353   8.867  19.510  0.00  0.00    +0.000 A 
ATOM     16  C   UNL     1       0.693  10.099  19.341  0.00  0.00    +0.000 A 
ATOM     17  C   UNL     1      -0.085  10.647  20.361  0.00  0.00    +0.000 A 
ATOM     18  C   UNL     1      -0.221   9.972  21.568  0.00  0.00    +0.000 A 
ATOM     19  C   UNL     1       0.404   8.745  21.746  0.00  0.00    +0.000 A 
ATOM     20  C   UNL     1       1.176   8.163  20.722  0.00  0.00    +0.000 A 
ENDBRANCH  13  20
ENDBRANCH   1  13
BRANCH   6  21
ATOM     21  C   UNL     1       5.161   3.511  16.580  0.00  0.00    +0.000 C 
BRANCH  21  22
ATOM     22  N   UNL     1       5.639   4.840  16.202  0.00  0.00    +0.000 NA
ATOM     23  H   UNL     1       4.982   5.591  15.988  0.00  0.00    +0.000 HD
BRANCH  22  24
ATOM     24  S   UNL     1       7.249   5.197  16.138  0.00  0.00    +0.000 S 
ATOM     25  C   UNL     1       7.277   6.774  16.951  0.00  0.00    +0.000 C 
ATOM     26  O   UNL     1       7.961   4.239  16.957  0.00  0.00    +0.000 OA
ATOM     27  O   UNL     1       7.578   5.413  14.753  0.00  0.00    +0.000 OA
ENDBRANCH  22  24
ENDBRANCH  21  22
ENDBRANCH   6  21
TORSDOF 7
ENDMDL
MODEL 4
REMARK VINA RESULT:      -6.8      1.189      2.074
REMARK  Name = 
REMARK  9 active torsions:
REMARK  status: ('A' for Active; 'I' for Inactive)
REMARK    1  A    between atoms: C_1  and  C_2
REMARK    2  A    between atoms: C_7  and  C_8
REMARK    3  A    between atoms: C_8  and  C_9
REMARK    4  A    between atoms: C_14  and  O_15
REMARK    5  A    between atoms: C_14  and  C_16
REMARK    6  A    between atoms: C_16  and  N_17
REMARK    7  A    between atoms: N_17  and  S_18
REMARK    8  A    between atoms: S_18  and  C_19
REMARK    9  A    between atoms: C_22  and  O_23
REMARK                            x       y       z     vdW  Elec       q    Type
REMARK                         _______ _______ _______ _____ _____    ______ ____
ROOT
ATOM      1  C   UNL     1       1.764   6.127  20.463  0.00  0.00    +0.000 C 
ATOM      2  O   UNL     1       0.870   5.573  21.099  0.00  0.00    +0.000 OA
ATOM      3  N   UNL     1       2.571   5.410  19.554  0.00  0.00    +0.000 N 
ATOM      4  C   UNL     1       2.282   3.992  19.355  0.00  0.00    +0.000 C 
ATOM      5  C   UNL     1       2.882   3.467  18.047  0.00  0.00    +0.000 C 
ATOM      6  C   UNL     1       4.374   3.822  17.872  0.00  0.00    +0.000 C 
ATOM      7  C   UNL     1       4.628   5.317  18.151  0.00  0.00    +0.000 C 
ATOM      8  C   UNL     1       3.972   5.777  19.441  0.00  0.00    +0.000 C 
ENDROOT
BRANCH   6   9
ATOM      9  O   UNL     1       5.181   3.046  18.790  0.00  0.00    +0.000 OA
ATOM     10  H   UNL     1       5.331   3.564  19.600  0.00  0.00    +0.000 HD
ENDBRANCH   6   9
BRANCH   7  11
ATOM     11  O   UNL     1       6.036   5.563  18.293  0.00  0.00    +0.000 OA
ATOM     12  H   UNL     1       6.352   5.835  17.409  0.00  0.00    +0.000 HD
ENDBRANCH   7  11
BRANCH   1  13
ATOM     13  C   UNL     1       2.126   7.615  20.597  0.00  0.00    +0.000 C 
BRANCH  13  20
ATOM     14  C   UNL     1       2.374   8.542  17.665  0.00  0.00    +0.000 C 
ATOM     15  C   UNL     1       1.338   9.066  18.622  0.00  0.00    +0.000 A 
ATOM     16  C   UNL     1       0.451  10.049  18.141  0.00  0.00    +0.000 A 
ATOM     17  C   UNL     1      -0.515  10.617  18.971  0.00  0.00    +0.000 A 
ATOM     18  C   UNL     1      -0.616  10.213  20.296  0.00  0.00    +0.000 A 
ATOM     19  C   UNL     1       0.235   9.229  20.783  0.00  0.00    +0.000 A 
ATOM     20  C   UNL     1       1.203   8.625  19.957  0.00  0.00    +0.000 A 
ENDBRANCH  13  20
ENDBRANCH   1  13
BRANCH   6  21
ATOM     21  C   UNL     1       4.818   3.461  16.428  0.00  0.00    +0.000 C 
BRANCH  21  22
ATOM     22  N   UNL     1       6.154   3.976  16.131  0.00  0.00    +0.000 NA
ATOM     23  H   UNL     1       6.956   3.711  16.702  0.00  0.00    +0.000 HD
BRANCH  22  24
ATOM     24  S   UNL     1       6.432   4.975  14.847  0.00  0.00    +0.000 S 
ATOM     25  C   UNL     1       6.168   3.862  13.491  0.00  0.00    +0.000 C 
ATOM     26  O   UNL     1       5.399   5.988  14.825  0.00  0.00    +0.000 OA
ATOM     27  O   UNL     1       7.832   5.312  14.871  0.00  0.00    +0.000 OA
ENDBRANCH  22  24
ENDBRANCH  21  22
ENDBRANCH   6  21
TORSDOF 7
ENDMDL
MODEL 5
REMARK VINA RESULT:      -6.7      5.174      8.879
REMARK  Name = 
REMARK  9 active torsions:
REMARK  status: ('A' for Active; 'I' for Inactive)
REMARK    1  A    between atoms: C_1  and  C_2
REMARK    2  A    between atoms: C_7  and  C_8
REMARK    3  A    between atoms: C_8  and  C_9
REMARK    4  A    between atoms: C_14  and  O_15
REMARK    5  A    between atoms: C_14  and  C_16
REMARK    6  A    between atoms: C_16  and  N_17
REMARK    7  A    between atoms: N_17  and  S_18
REMARK    8  A    between atoms: S_18  and  C_19
REMARK    9  A    between atoms: C_22  and  O_23
REMARK                            x       y       z     vdW  Elec       q    Type
REMARK                         _______ _______ _______ _____ _____    ______ ____
ROOT
ATOM      1  C   UNL     1       2.033   7.216  19.642  0.00  0.00    +0.000 C 
ATOM      2  O   UNL     1       2.505   7.274  18.509  0.00  0.00    +0.000 OA
ATOM      3  N   UNL     1       1.326   8.302  20.200  0.00  0.00    +0.000 N 
ATOM      4  C   UNL     1       1.129   9.487  19.370  0.00  0.00    +0.000 C 
ATOM      5  C   UNL     1      -0.016  10.362  19.888  0.00  0.00    +0.000 C 
ATOM      6  C   UNL     1       0.087  10.676  21.396  0.00  0.00    +0.000 C 
ATOM      7  C   UNL     1       0.352   9.396  22.215  0.00  0.00    +0.000 C 
ATOM      8  C   UNL     1       1.472   8.560  21.622  0.00  0.00    +0.000 C 
ENDROOT
BRANCH   6   9
ATOM      9  O   UNL     1       1.173  11.602  21.638  0.00  0.00    +0.000 OA
ATOM     10  H   UNL     1       1.538  11.897  20.786  0.00  0.00    +0.000 HD
ENDBRANCH   6   9
BRANCH   7  11
ATOM     11  O   UNL     1       0.754   9.737  23.551  0.00  0.00    +0.000 OA
ATOM     12  H   UNL     1       0.079   9.349  24.143  0.00  0.00    +0.000 HD
ENDBRANCH   7  11
BRANCH   1  13
ATOM     13  C   UNL     1       2.178   6.004  20.578  0.00  0.00    +0.000 C 
BRANCH  13  20
ATOM     14  C   UNL     1       4.695   4.769  19.292  0.00  0.00    +0.000 C 
ATOM     15  C   UNL     1       3.359   4.080  19.339  0.00  0.00    +0.000 A 
ATOM     16  C   UNL     1       3.264   2.808  18.742  0.00  0.00    +0.000 A 
ATOM     17  C   UNL     1       2.053   2.116  18.707  0.00  0.00    +0.000 A 
ATOM     18  C   UNL     1       0.916   2.679  19.270  0.00  0.00    +0.000 A 
ATOM     19  C   UNL     1       0.994   3.922  19.884  0.00  0.00    +0.000 A 
ATOM     20  C   UNL     1       2.209   4.629  19.951  0.00  0.00    +0.000 A 
ENDBRANCH  13  20
ENDBRANCH   1  13
BRANCH   6  21
ATOM     21  C   UNL     1      -1.229  11.353  21.868  0.00  0.00    +0.000 C 
BRANCH  21  22
ATOM     22  N   UNL     1      -1.011  12.192  23.046  0.00  0.00    +0.000 NA
ATOM     23  H   UNL     1      -0.410  11.878  23.807  0.00  0.00    +0.000 HD
BRANCH  22  24
ATOM     24  S   UNL     1      -1.695  13.688  23.183  0.00  0.00    +0.000 S 
ATOM     25  C   UNL     1      -3.305  13.267  23.796  0.00  0.00    +0.000 C 
ATOM     26  O   UNL     1      -0.984  14.422  24.207  0.00  0.00    +0.000 OA
ATOM     27  O   UNL     1      -1.855  14.202  21.847  0.00  0.00    +0.000 OA
ENDBRANCH  22  24
ENDBRANCH  21  22
ENDBRANCH   6  21
TORSDOF 7
ENDMDL
MODEL 6
REMARK VINA RESULT:      -6.6      4.236      7.756
REMARK  Name = 
REMARK  9 active torsions:
REMARK  status: ('A' for Active; 'I' for Inactive)
REMARK    1  A    between atoms: C_1  and  C_2
REMARK    2  A    between atoms: C_7  and  C_8
REMARK    3  A    between atoms: C_8  and  C_9
REMARK    4  A    between atoms: C_14  and  O_15
REMARK    5  A    between atoms: C_14  and  C_16
REMARK    6  A    between atoms: C_16  and  N_17
REMARK    7  A    between atoms: N_17  and  S_18
REMARK    8  A    between atoms: S_18  and  C_19
REMARK    9  A    between atoms: C_22  and  O_23
REMARK                            x       y       z     vdW  Elec       q    Type
REMARK                         _______ _______ _______ _____ _____    ______ ____
ROOT
ATOM      1  C   UNL     1       3.394   6.873  18.305  0.00  0.00    +0.000 C 
ATOM      2  O   UNL     1       4.069   7.027  17.289  0.00  0.00    +0.000 OA
ATOM      3  N   UNL     1       2.379   7.788  18.658  0.00  0.00    +0.000 N 
ATOM      4  C   UNL     1       2.120   8.903  17.751  0.00  0.00    +0.000 C 
ATOM      5  C   UNL     1       0.737   9.519  17.987  0.00  0.00    +0.000 C 
ATOM      6  C   UNL     1       0.459   9.851  19.468  0.00  0.00    +0.000 C 
ATOM      7  C   UNL     1       0.805   8.658  20.382  0.00  0.00    +0.000 C 
ATOM      8  C   UNL     1       2.172   8.075  20.066  0.00  0.00    +0.000 C 
ENDROOT
BRANCH   6   9
ATOM      9  O   UNL     1       1.257  10.986  19.882  0.00  0.00    +0.000 OA
ATOM     10  H   UNL     1       0.691  11.617  20.359  0.00  0.00    +0.000 HD
ENDBRANCH   6   9
BRANCH   7  11
ATOM     11  O   UNL     1       0.843   9.079  21.755  0.00  0.00    +0.000 OA
ATOM     12  H   UNL     1       1.377   9.899  21.769  0.00  0.00    +0.000 HD
ENDBRANCH   7  11
BRANCH   1  13
ATOM     13  C   UNL     1       3.588   5.722  19.306  0.00  0.00    +0.000 C 
BRANCH  13  20
ATOM     14  C   UNL     1       4.138   3.588  17.146  0.00  0.00    +0.000 C 
ATOM     15  C   UNL     1       2.987   3.520  18.113  0.00  0.00    +0.000 A 
ATOM     16  C   UNL     1       2.111   2.423  18.000  0.00  0.00    +0.000 A 
ATOM     17  C   UNL     1       0.997   2.301  18.831  0.00  0.00    +0.000 A 
ATOM     18  C   UNL     1       0.739   3.271  19.792  0.00  0.00    +0.000 A 
ATOM     19  C   UNL     1       1.604   4.348  19.934  0.00  0.00    +0.000 A 
ATOM     20  C   UNL     1       2.746   4.480  19.121  0.00  0.00    +0.000 A 
ENDBRANCH  13  20
ENDBRANCH   1  13
BRANCH   6  21
ATOM     21  C   UNL     1      -1.037  10.238  19.632  0.00  0.00    +0.000 C 
BRANCH  21  22
ATOM     22  N   UNL     1      -1.774  10.088  18.378  0.00  0.00    +0.000 NA
ATOM     23  H   UNL     1      -2.023   9.164  18.026  0.00  0.00    +0.000 HD
BRANCH  22  24
ATOM     24  S   UNL     1      -2.262  11.395  17.498  0.00  0.00    +0.000 S 
ATOM     25  C   UNL     1      -3.876  11.676  18.180  0.00  0.00    +0.000 C 
ATOM     26  O   UNL     1      -1.412  12.516  17.837  0.00  0.00    +0.000 OA
ATOM     27  O   UNL     1      -2.432  10.949  16.139  0.00  0.00    +0.000 OA
ENDBRANCH  22  24
ENDBRANCH  21  22
ENDBRANCH   6  21
TORSDOF 7
ENDMDL
MODEL 7
REMARK VINA RESULT:      -6.6      4.414      8.034
REMARK  Name = 
REMARK  9 active torsions:
REMARK  status: ('A' for Active; 'I' for Inactive)
REMARK    1  A    between atoms: C_1  and  C_2
REMARK    2  A    between atoms: C_7  and  C_8
REMARK    3  A    between atoms: C_8  and  C_9
REMARK    4  A    between atoms: C_14  and  O_15
REMARK    5  A    between atoms: C_14  and  C_16
REMARK    6  A    between atoms: C_16  and  N_17
REMARK    7  A    between atoms: N_17  and  S_18
REMARK    8  A    between atoms: S_18  and  C_19
REMARK    9  A    between atoms: C_22  and  O_23
REMARK                            x       y       z     vdW  Elec       q    Type
REMARK                         _______ _______ _______ _____ _____    ______ ____
ROOT
ATOM      1  C   UNL     1       2.655   7.046  18.924  0.00  0.00    +0.000 C 
ATOM      2  O   UNL     1       3.406   6.945  17.955  0.00  0.00    +0.000 OA
ATOM      3  N   UNL     1       1.749   8.121  19.041  0.00  0.00    +0.000 N 
ATOM      4  C   UNL     1       1.694   9.090  17.950  0.00  0.00    +0.000 C 
ATOM      5  C   UNL     1       0.392   9.897  17.970  0.00  0.00    +0.000 C 
ATOM      6  C   UNL     1       0.069  10.505  19.352  0.00  0.00    +0.000 C 
ATOM      7  C   UNL     1       0.200   9.450  20.470  0.00  0.00    +0.000 C 
ATOM      8  C   UNL     1       1.495   8.664  20.364  0.00  0.00    +0.000 C 
ENDROOT
BRANCH   6   9
ATOM      9  O   UNL     1       0.982  11.590  19.644  0.00  0.00    +0.000 OA
ATOM     10  H   UNL     1       0.918  11.815  20.588  0.00  0.00    +0.000 HD
ENDBRANCH   6   9
BRANCH   7  11
ATOM     11  O   UNL     1       0.208  10.089  21.756  0.00  0.00    +0.000 OA
ATOM     12  H   UNL     1       0.171   9.367  22.415  0.00  0.00    +0.000 HD
ENDBRANCH   7  11
BRANCH   1  13
ATOM     13  C   UNL     1       2.634   6.065  20.107  0.00  0.00    +0.000 C 
BRANCH  13  20
ATOM     14  C   UNL     1       4.863   4.127  19.216  0.00  0.00    +0.000 C 
ATOM     15  C   UNL     1       3.422   3.726  19.371  0.00  0.00    +0.000 A 
ATOM     16  C   UNL     1       3.084   2.391  19.072  0.00  0.00    +0.000 A 
ATOM     17  C   UNL     1       1.766   1.945  19.152  0.00  0.00    +0.000 A 
ATOM     18  C   UNL     1       0.759   2.822  19.537  0.00  0.00    +0.000 A 
ATOM     19  C   UNL     1       1.074   4.135  19.859  0.00  0.00    +0.000 A 
ATOM     20  C   UNL     1       2.402   4.602  19.806  0.00  0.00    +0.000 A 
ENDBRANCH  13  20
ENDBRANCH   1  13
BRANCH   6  21
ATOM     21  C   UNL     1      -1.370  11.089  19.329  0.00  0.00    +0.000 C 
BRANCH  21  22
ATOM     22  N   UNL     1      -1.803  11.404  17.968  0.00  0.00    +0.000 NA
ATOM     23  H   UNL     1      -1.242  12.007  17.368  0.00  0.00    +0.000 HD
BRANCH  22  24
ATOM     24  S   UNL     1      -3.191  10.777  17.333  0.00  0.00    +0.000 S 
ATOM     25  C   UNL     1      -2.820  10.829  15.598  0.00  0.00    +0.000 C 
ATOM     26  O   UNL     1      -3.296   9.394  17.744  0.00  0.00    +0.000 OA
ATOM     27  O   UNL     1      -4.239  11.731  17.586  0.00  0.00    +0.000 OA
ENDBRANCH  22  24
ENDBRANCH  21  22
ENDBRANCH   6  21
TORSDOF 7
ENDMDL
MODEL 8
REMARK VINA RESULT:      -6.6      5.119      8.637
REMARK  Name = 
REMARK  9 active torsions:
REMARK  status: ('A' for Active; 'I' for Inactive)
REMARK    1  A    between atoms: C_1  and  C_2
REMARK    2  A    between atoms: C_7  and  C_8
REMARK    3  A    between atoms: C_8  and  C_9
REMARK    4  A    between atoms: C_14  and  O_15
REMARK    5  A    between atoms: C_14  and  C_16
REMARK    6  A    between atoms: C_16  and  N_17
REMARK    7  A    between atoms: N_17  and  S_18
REMARK    8  A    between atoms: S_18  and  C_19
REMARK    9  A    between atoms: C_22  and  O_23
REMARK                            x       y       z     vdW  Elec       q    Type
REMARK                         _______ _______ _______ _____ _____    ______ ____
ROOT
ATOM      1  C   UNL     1       2.127   7.346  19.420  0.00  0.00    +0.000 C 
ATOM      2  O   UNL     1       2.713   7.438  18.344  0.00  0.00    +0.000 OA
ATOM      3  N   UNL     1       1.416   8.436  19.966  0.00  0.00    +0.000 N 
ATOM      4  C   UNL     1       1.357   9.670  19.187  0.00  0.00    +0.000 C 
ATOM      5  C   UNL     1       0.205  10.573  19.640  0.00  0.00    +0.000 C 
ATOM      6  C   UNL     1       0.171  10.805  21.165  0.00  0.00    +0.000 C 
ATOM      7  C   UNL     1       0.296   9.474  21.934  0.00  0.00    +0.000 C 
ATOM      8  C   UNL     1       1.432   8.614  21.407  0.00  0.00    +0.000 C 
ENDROOT
BRANCH   6   9
ATOM      9  O   UNL     1       1.267  11.662  21.563  0.00  0.00    +0.000 OA
ATOM     10  H   UNL     1       1.239  11.790  22.527  0.00  0.00    +0.000 HD
ENDBRANCH   6   9
BRANCH   7  11
ATOM     11  O   UNL     1       0.577   9.726  23.320  0.00  0.00    +0.000 OA
ATOM     12  H   UNL     1       0.910  10.645  23.363  0.00  0.00    +0.000 HD
ENDBRANCH   7  11
BRANCH   1  13
ATOM     13  C   UNL     1       2.124   6.082  20.297  0.00  0.00    +0.000 C 
BRANCH  13  20
ATOM     14  C   UNL     1       2.080   3.382  21.789  0.00  0.00    +0.000 C 
ATOM     15  C   UNL     1       2.012   3.510  20.292  0.00  0.00    +0.000 A 
ATOM     16  C   UNL     1       1.944   2.319  19.542  0.00  0.00    +0.000 A 
ATOM     17  C   UNL     1       1.916   2.344  18.148  0.00  0.00    +0.000 A 
ATOM     18  C   UNL     1       1.953   3.559  17.475  0.00  0.00    +0.000 A 
ATOM     19  C   UNL     1       1.998   4.745  18.197  0.00  0.00    +0.000 A 
ATOM     20  C   UNL     1       2.004   4.745  19.605  0.00  0.00    +0.000 A 
ENDBRANCH  13  20
ENDBRANCH   1  13
BRANCH   6  21
ATOM     21  C   UNL     1      -1.154  11.522  21.543  0.00  0.00    +0.000 C 
BRANCH  21  22
ATOM     22  N   UNL     1      -1.028  12.262  22.798  0.00  0.00    +0.000 NA
ATOM     23  H   UNL     1      -0.954  11.772  23.689  0.00  0.00    +0.000 HD
BRANCH  22  24
ATOM     24  S   UNL     1      -0.964  13.910  22.829  0.00  0.00    +0.000 S 
ATOM     25  C   UNL     1      -2.506  14.321  22.054  0.00  0.00    +0.000 C 
ATOM     26  O   UNL     1      -1.008  14.342  24.210  0.00  0.00    +0.000 OA
ATOM     27  O   UNL     1       0.094  14.308  21.937  0.00  0.00    +0.000 OA
ENDBRANCH  22  24
ENDBRANCH  21  22
ENDBRANCH   6  21
TORSDOF 7
ENDMDL
MODEL 9
REMARK VINA RESULT:      -6.6      4.415      7.953
REMARK  Name = 
REMARK  9 active torsions:
REMARK  status: ('A' for Active; 'I' for Inactive)
REMARK    1  A    between atoms: C_1  and  C_2
REMARK    2  A    between atoms: C_7  and  C_8
REMARK    3  A    between atoms: C_8  and  C_9
REMARK    4  A    between atoms: C_14  and  O_15
REMARK    5  A    between atoms: C_14  and  C_16
REMARK    6  A    between atoms: C_16  and  N_17
REMARK    7  A    between atoms: N_17  and  S_18
REMARK    8  A    between atoms: S_18  and  C_19
REMARK    9  A    between atoms: C_22  and  O_23
REMARK                            x       y       z     vdW  Elec       q    Type
REMARK                         _______ _______ _______ _____ _____    ______ ____
ROOT
ATOM      1  C   UNL     1       2.570   7.246  18.976  0.00  0.00    +0.000 C 
ATOM      2  O   UNL     1       3.509   7.226  18.183  0.00  0.00    +0.000 OA
ATOM      3  N   UNL     1       1.707   8.359  19.065  0.00  0.00    +0.000 N 
ATOM      4  C   UNL     1       1.934   9.474  18.149  0.00  0.00    +0.000 C 
ATOM      5  C   UNL     1       0.695  10.365  18.019  0.00  0.00    +0.000 C 
ATOM      6  C   UNL     1       0.104  10.795  19.378  0.00  0.00    +0.000 C 
ATOM      7  C   UNL     1      -0.058   9.587  20.323  0.00  0.00    +0.000 C 
ATOM      8  C   UNL     1       1.193   8.728  20.373  0.00  0.00    +0.000 C 
ENDROOT
BRANCH   6   9
ATOM      9  O   UNL     1       0.977  11.757  20.018  0.00  0.00    +0.000 OA
ATOM     10  H   UNL     1       0.568  12.638  19.974  0.00  0.00    +0.000 HD
ENDBRANCH   6   9
BRANCH   7  11
ATOM     11  O   UNL     1      -0.304  10.037  21.665  0.00  0.00    +0.000 OA
ATOM     12  H   UNL     1       0.077  10.936  21.721  0.00  0.00    +0.000 HD
ENDBRANCH   7  11
BRANCH   1  13
ATOM     13  C   UNL     1       2.249   6.113  19.965  0.00  0.00    +0.000 C 
BRANCH  13  20
ATOM     14  C   UNL     1       2.105   3.576  21.715  0.00  0.00    +0.000 C 
ATOM     15  C   UNL     1       2.043   3.558  20.212  0.00  0.00    +0.000 A 
ATOM     16  C   UNL     1       1.931   2.302  19.583  0.00  0.00    +0.000 A 
ATOM     17  C   UNL     1       1.906   2.191  18.193  0.00  0.00    +0.000 A 
ATOM     18  C   UNL     1       1.988   3.332  17.404  0.00  0.00    +0.000 A 
ATOM     19  C   UNL     1       2.076   4.581  18.005  0.00  0.00    +0.000 A 
ATOM     20  C   UNL     1       2.081   4.718  19.407  0.00  0.00    +0.000 A 
ENDBRANCH  13  20
ENDBRANCH   1  13
BRANCH   6  21
ATOM     21  C   UNL     1      -1.269  11.483  19.144  0.00  0.00    +0.000 C 
BRANCH  21  22
ATOM     22  N   UNL     1      -1.645  11.468  17.731  0.00  0.00    +0.000 NA
ATOM     23  H   UNL     1      -1.036  11.878  17.023  0.00  0.00    +0.000 HD
BRANCH  22  24
ATOM     24  S   UNL     1      -3.045  10.764  17.214  0.00  0.00    +0.000 S 
ATOM     25  C   UNL     1      -2.739  10.647  15.470  0.00  0.00    +0.000 C 
ATOM     26  O   UNL     1      -3.114   9.428  17.765  0.00  0.00    +0.000 OA
ATOM     27  O   UNL     1      -4.098  11.727  17.410  0.00  0.00    +0.000 OA
ENDBRANCH  22  24
ENDBRANCH  21  22
ENDBRANCH   6  21
TORSDOF 7
ENDMDL
