MODEL 1
REMARK VINA RESULT:      -7.9      0.000      0.000
REMARK  Name = 
REMARK  8 active torsions:
REMARK  status: ('A' for Active; 'I' for Inactive)
REMARK    1  A    between atoms: C_1  and  O_2
REMARK    2  A    between atoms: O_2  and  C_3
REMARK    3  A    between atoms: C_3  and  C_4
REMARK    4  A    between atoms: C_3  and  O_22
REMARK    5  A    between atoms: C_4  and  N_5
REMARK    6  A    between atoms: N_5  and  S_6
REMARK    7  A    between atoms: S_6  and  C_9
REMARK    8  A    between atoms: O_22  and  C_23
REMARK                            x       y       z     vdW  Elec       q    Type
REMARK                         _______ _______ _______ _____ _____    ______ ____
ROOT
ATOM      1  C   UNL     1       4.563   5.058  16.707  0.00  0.00    +0.000 A 
ATOM      2  C   UNL     1       4.279   3.692  16.926  0.00  0.00    +0.000 A 
ATOM      3  C   UNL     1       3.474   3.327  18.007  0.00  0.00    +0.000 A 
ATOM      4  C   UNL     1       2.949   4.348  18.775  0.00  0.00    +0.000 A 
ATOM      5  C   UNL     1       3.239   5.688  18.598  0.00  0.00    +0.000 A 
ATOM      6  C   UNL     1       4.111   6.053  17.600  0.00  0.00    +0.000 A 
ATOM      7  C   UNL     1       2.471   6.524  19.573  0.00  0.00    +0.000 C 
ATOM      8  C   UNL     1       1.868   5.453  20.510  0.00  0.00    +0.000 C 
ATOM      9  N   UNL     1       2.117   4.162  19.864  0.00  0.00    +0.000 N 
ATOM     10  C   UNL     1       1.715   2.926  20.296  0.00  0.00    +0.000 C 
ATOM     11  O   UNL     1       1.112   2.748  21.352  0.00  0.00    +0.000 OA
ATOM     12  C   UNL     1       1.948   1.796  19.296  0.00  0.00    +0.000 C 
ATOM     13  C   UNL     1       3.233   1.923  18.468  0.00  0.00    +0.000 C 
ENDROOT
BRANCH   1  14
ATOM     14  S   UNL     1       5.505   5.582  15.282  0.00  0.00    +0.000 S 
ATOM     15  O   UNL     1       5.208   6.976  15.026  0.00  0.00    +0.000 OA
ATOM     16  O   UNL     1       5.339   4.574  14.261  0.00  0.00    +0.000 OA
BRANCH  14  17
ATOM     17  N   UNL     1       7.109   5.513  15.823  0.00  0.00    +0.000 NA
ATOM     18  H   UNL     1       7.602   4.758  15.333  0.00  0.00    +0.000 HD
BRANCH  17  19
ATOM     19  C   UNL     1       7.323   5.412  17.294  0.00  0.00    +0.000 C 
BRANCH  19  20
ATOM     20  C   UNL     1       7.402   6.778  18.004  0.00  0.00    +0.000 C 
BRANCH  20  22
ATOM     21  C   UNL     1       8.141   9.049  17.807  0.00  0.00    +0.000 C 
ATOM     22  O   UNL     1       7.748   7.860  17.137  0.00  0.00    +0.000 OA
ENDBRANCH  20  22
BRANCH  20  23
ATOM     23  O   UNL     1       8.353   6.667  19.066  0.00  0.00    +0.000 OA
ATOM     24  C   UNL     1       8.080   5.537  19.886  0.00  0.00    +0.000 C 
ENDBRANCH  20  23
ENDBRANCH  19  20
ENDBRANCH  17  19
ENDBRANCH  14  17
ENDBRANCH   1  14
TORSDOF 6
ENDMDL
MODEL 2
REMARK VINA RESULT:      -7.6      0.453      2.123
REMARK  Name = 
REMARK  8 active torsions:
REMARK  status: ('A' for Active; 'I' for Inactive)
REMARK    1  A    between atoms: C_1  and  O_2
REMARK    2  A    between atoms: O_2  and  C_3
REMARK    3  A    between atoms: C_3  and  C_4
REMARK    4  A    between atoms: C_3  and  O_22
REMARK    5  A    between atoms: C_4  and  N_5
REMARK    6  A    between atoms: N_5  and  S_6
REMARK    7  A    between atoms: S_6  and  C_9
REMARK    8  A    between atoms: O_22  and  C_23
REMARK                            x       y       z     vdW  Elec       q    Type
REMARK                         _______ _______ _______ _____ _____    ______ ____
ROOT
ATOM      1  C   UNL     1       4.538   4.909  16.511  0.00  0.00    +0.000 A 
ATOM      2  C   UNL     1       3.912   5.787  17.422  0.00  0.00    +0.000 A 
ATOM      3  C   UNL     1       3.186   5.258  18.492  0.00  0.00    +0.000 A 
ATOM      4  C   UNL     1       3.176   3.884  18.627  0.00  0.00    +0.000 A 
ATOM      5  C   UNL     1       3.754   3.006  17.731  0.00  0.00    +0.000 A 
ATOM      6  C   UNL     1       4.385   3.510  16.618  0.00  0.00    +0.000 A 
ATOM      7  C   UNL     1       3.592   1.593  18.201  0.00  0.00    +0.000 C 
ATOM      8  C   UNL     1       2.619   1.760  19.389  0.00  0.00    +0.000 C 
ATOM      9  N   UNL     1       2.527   3.201  19.640  0.00  0.00    +0.000 N 
ATOM     10  C   UNL     1       1.824   3.828  20.634  0.00  0.00    +0.000 C 
ATOM     11  O   UNL     1       1.117   3.225  21.439  0.00  0.00    +0.000 OA
ATOM     12  C   UNL     1       2.097   5.324  20.760  0.00  0.00    +0.000 C 
ATOM     13  C   UNL     1       2.328   6.051  19.428  0.00  0.00    +0.000 C 
ENDROOT
BRANCH   1  14
ATOM     14  S   UNL     1       5.558   5.537  15.186  0.00  0.00    +0.000 S 
ATOM     15  O   UNL     1       5.199   6.920  14.949  0.00  0.00    +0.000 OA
ATOM     16  O   UNL     1       5.537   4.558  14.124  0.00  0.00    +0.000 OA
BRANCH  14  17
ATOM     17  N   UNL     1       7.115   5.542  15.855  0.00  0.00    +0.000 NA
ATOM     18  H   UNL     1       7.687   4.828  15.391  0.00  0.00    +0.000 HD
BRANCH  17  19
ATOM     19  C   UNL     1       7.214   5.414  17.336  0.00  0.00    +0.000 C 
BRANCH  19  20
ATOM     20  C   UNL     1       7.318   6.766  18.069  0.00  0.00    +0.000 C 
BRANCH  20  22
ATOM     21  C   UNL     1       8.178   8.991  17.852  0.00  0.00    +0.000 C 
ATOM     22  O   UNL     1       7.591   7.871  17.206  0.00  0.00    +0.000 OA
ENDBRANCH  20  22
BRANCH  20  23
ATOM     23  O   UNL     1       8.336   6.648  19.066  0.00  0.00    +0.000 OA
ATOM     24  C   UNL     1       8.092   5.539  19.923  0.00  0.00    +0.000 C 
ENDBRANCH  20  23
ENDBRANCH  19  20
ENDBRANCH  17  19
ENDBRANCH  14  17
ENDBRANCH   1  14
TORSDOF 6
ENDMDL
MODEL 3
REMARK VINA RESULT:      -7.6      2.631      4.254
REMARK  Name = 
REMARK  8 active torsions:
REMARK  status: ('A' for Active; 'I' for Inactive)
REMARK    1  A    between atoms: C_1  and  O_2
REMARK    2  A    between atoms: O_2  and  C_3
REMARK    3  A    between atoms: C_3  and  C_4
REMARK    4  A    between atoms: C_3  and  O_22
REMARK    5  A    between atoms: C_4  and  N_5
REMARK    6  A    between atoms: N_5  and  S_6
REMARK    7  A    between atoms: S_6  and  C_9
REMARK    8  A    between atoms: O_22  and  C_23
REMARK                            x       y       z     vdW  Elec       q    Type
REMARK                         _______ _______ _______ _____ _____    ______ ____
ROOT
ATOM      1  C   UNL     1       4.812   4.919  16.850  0.00  0.00    +0.000 A 
ATOM      2  C   UNL     1       4.427   3.571  17.025  0.00  0.00    +0.000 A 
ATOM      3  C   UNL     1       3.531   3.245  18.045  0.00  0.00    +0.000 A 
ATOM      4  C   UNL     1       3.023   4.287  18.796  0.00  0.00    +0.000 A 
ATOM      5  C   UNL     1       3.410   5.606  18.663  0.00  0.00    +0.000 A 
ATOM      6  C   UNL     1       4.367   5.929  17.730  0.00  0.00    +0.000 A 
ATOM      7  C   UNL     1       2.635   6.477  19.602  0.00  0.00    +0.000 C 
ATOM      8  C   UNL     1       1.904   5.435  20.478  0.00  0.00    +0.000 C 
ATOM      9  N   UNL     1       2.112   4.140  19.825  0.00  0.00    +0.000 N 
ATOM     10  C   UNL     1       1.604   2.927  20.208  0.00  0.00    +0.000 C 
ATOM     11  O   UNL     1       0.922   2.773  21.219  0.00  0.00    +0.000 OA
ATOM     12  C   UNL     1       1.828   1.798  19.205  0.00  0.00    +0.000 C 
ATOM     13  C   UNL     1       3.170   1.853  18.463  0.00  0.00    +0.000 C 
ENDROOT
BRANCH   1  14
ATOM     14  S   UNL     1       5.876   5.400  15.499  0.00  0.00    +0.000 S 
ATOM     15  O   UNL     1       7.252   5.219  15.914  0.00  0.00    +0.000 OA
ATOM     16  O   UNL     1       5.398   6.669  15.003  0.00  0.00    +0.000 OA
BRANCH  14  17
ATOM     17  N   UNL     1       5.564   4.229  14.314  0.00  0.00    +0.000 NA
ATOM     18  H   UNL     1       5.283   3.352  14.768  0.00  0.00    +0.000 HD
BRANCH  17  19
ATOM     19  C   UNL     1       6.635   3.982  13.309  0.00  0.00    +0.000 C 
BRANCH  19  20
ATOM     20  C   UNL     1       6.113   3.415  11.974  0.00  0.00    +0.000 C 
BRANCH  20  22
ATOM     21  C   UNL     1       3.887   3.419  11.088  0.00  0.00    +0.000 C 
ATOM     22  O   UNL     1       4.787   2.889  12.049  0.00  0.00    +0.000 OA
ENDBRANCH  20  22
BRANCH  20  23
ATOM     23  O   UNL     1       7.026   2.405  11.538  0.00  0.00    +0.000 OA
ATOM     24  C   UNL     1       6.340   1.212  11.176  0.00  0.00    +0.000 C 
ENDBRANCH  20  23
ENDBRANCH  19  20
ENDBRANCH  17  19
ENDBRANCH  14  17
ENDBRANCH   1  14
TORSDOF 6
ENDMDL
MODEL 4
REMARK VINA RESULT:      -7.6      2.288      3.803
REMARK  Name = 
REMARK  8 active torsions:
REMARK  status: ('A' for Active; 'I' for Inactive)
REMARK    1  A    between atoms: C_1  and  O_2
REMARK    2  A    between atoms: O_2  and  C_3
REMARK    3  A    between atoms: C_3  and  C_4
REMARK    4  A    between atoms: C_3  and  O_22
REMARK    5  A    between atoms: C_4  and  N_5
REMARK    6  A    between atoms: N_5  and  S_6
REMARK    7  A    between atoms: S_6  and  C_9
REMARK    8  A    between atoms: O_22  and  C_23
REMARK                            x       y       z     vdW  Elec       q    Type
REMARK                         _______ _______ _______ _____ _____    ______ ____
ROOT
ATOM      1  C   UNL     1       4.922   5.076  17.095  0.00  0.00    +0.000 A 
ATOM      2  C   UNL     1       4.562   3.719  17.247  0.00  0.00    +0.000 A 
ATOM      3  C   UNL     1       3.623   3.367  18.219  0.00  0.00    +0.000 A 
ATOM      4  C   UNL     1       3.052   4.393  18.944  0.00  0.00    +0.000 A 
ATOM      5  C   UNL     1       3.412   5.723  18.835  0.00  0.00    +0.000 A 
ATOM      6  C   UNL     1       4.408   6.072  17.953  0.00  0.00    +0.000 A 
ATOM      7  C   UNL     1       2.568   6.571  19.735  0.00  0.00    +0.000 C 
ATOM      8  C   UNL     1       1.819   5.508  20.569  0.00  0.00    +0.000 C 
ATOM      9  N   UNL     1       2.093   4.220  19.925  0.00  0.00    +0.000 N 
ATOM     10  C   UNL     1       1.596   2.994  20.278  0.00  0.00    +0.000 C 
ATOM     11  O   UNL     1       0.867   2.820  21.253  0.00  0.00    +0.000 OA
ATOM     12  C   UNL     1       1.900   1.875  19.285  0.00  0.00    +0.000 C 
ATOM     13  C   UNL     1       3.277   1.965  18.614  0.00  0.00    +0.000 C 
ENDROOT
BRANCH   1  14
ATOM     14  S   UNL     1       6.043   5.589  15.802  0.00  0.00    +0.000 S 
ATOM     15  O   UNL     1       7.307   5.950  16.409  0.00  0.00    +0.000 OA
ATOM     16  O   UNL     1       5.325   6.506  14.947  0.00  0.00    +0.000 OA
BRANCH  14  17
ATOM     17  N   UNL     1       6.310   4.164  14.924  0.00  0.00    +0.000 NA
ATOM     18  H   UNL     1       7.320   4.008  14.828  0.00  0.00    +0.000 HD
BRANCH  17  19
ATOM     19  C   UNL     1       5.631   4.046  13.603  0.00  0.00    +0.000 C 
BRANCH  19  20
ATOM     20  C   UNL     1       6.465   3.300  12.542  0.00  0.00    +0.000 C 
BRANCH  20  22
ATOM     21  C   UNL     1       7.719   5.334  12.365  0.00  0.00    +0.000 C 
ATOM     22  O   UNL     1       7.252   4.161  11.717  0.00  0.00    +0.000 OA
ENDBRANCH  20  22
BRANCH  20  23
ATOM     23  O   UNL     1       5.567   2.526  11.742  0.00  0.00    +0.000 OA
ATOM     24  C   UNL     1       4.355   3.230  11.501  0.00  0.00    +0.000 C 
ENDBRANCH  20  23
ENDBRANCH  19  20
ENDBRANCH  17  19
ENDBRANCH  14  17
ENDBRANCH   1  14
TORSDOF 6
ENDMDL
MODEL 5
REMARK VINA RESULT:      -7.6      2.870      4.957
REMARK  Name = 
REMARK  8 active torsions:
REMARK  status: ('A' for Active; 'I' for Inactive)
REMARK    1  A    between atoms: C_1  and  O_2
REMARK    2  A    between atoms: O_2  and  C_3
REMARK    3  A    between atoms: C_3  and  C_4
REMARK    4  A    between atoms: C_3  and  O_22
REMARK    5  A    between atoms: C_4  and  N_5
REMARK    6  A    between atoms: N_5  and  S_6
REMARK    7  A    between atoms: S_6  and  C_9
REMARK    8  A    between atoms: O_22  and  C_23
REMARK                            x       y       z     vdW  Elec       q    Type
REMARK                         _______ _______ _______ _____ _____    ______ ____
ROOT
ATOM      1  C   UNL     1       5.144   4.477  16.431  0.00  0.00    +0.000 A 
ATOM      2  C   UNL     1       4.559   5.573  17.102  0.00  0.00    +0.000 A 
ATOM      3  C   UNL     1       3.570   5.337  18.060  0.00  0.00    +0.000 A 
ATOM      4  C   UNL     1       3.263   4.020  18.338  0.00  0.00    +0.000 A 
ATOM      5  C   UNL     1       3.800   2.935  17.672  0.00  0.00    +0.000 A 
ATOM      6  C   UNL     1       4.700   3.157  16.656  0.00  0.00    +0.000 A 
ATOM      7  C   UNL     1       3.282   1.655  18.251  0.00  0.00    +0.000 C 
ATOM      8  C   UNL     1       2.173   2.158  19.201  0.00  0.00    +0.000 C 
ATOM      9  N   UNL     1       2.328   3.613  19.272  0.00  0.00    +0.000 N 
ATOM     10  C   UNL     1       1.604   4.489  20.036  0.00  0.00    +0.000 C 
ATOM     11  O   UNL     1       0.663   4.140  20.747  0.00  0.00    +0.000 OA
ATOM     12  C   UNL     1       2.143   5.917  20.051  0.00  0.00    +0.000 C 
ATOM     13  C   UNL     1       2.739   6.394  18.720  0.00  0.00    +0.000 C 
ENDROOT
BRANCH   1  14
ATOM     14  S   UNL     1       6.481   4.720  15.271  0.00  0.00    +0.000 S 
ATOM     15  O   UNL     1       7.730   4.447  15.950  0.00  0.00    +0.000 OA
ATOM     16  O   UNL     1       6.245   5.977  14.598  0.00  0.00    +0.000 OA
BRANCH  14  17
ATOM     17  N   UNL     1       6.254   3.477  14.142  0.00  0.00    +0.000 NA
ATOM     18  H   UNL     1       6.729   2.628  14.471  0.00  0.00    +0.000 HD
BRANCH  17  19
ATOM     19  C   UNL     1       6.624   3.772  12.729  0.00  0.00    +0.000 C 
BRANCH  19  20
ATOM     20  C   UNL     1       5.664   3.149  11.695  0.00  0.00    +0.000 C 
BRANCH  20  22
ATOM     21  C   UNL     1       3.446   3.144  10.789  0.00  0.00    +0.000 C 
ATOM     22  O   UNL     1       4.314   3.601  11.815  0.00  0.00    +0.000 OA
ENDBRANCH  20  22
BRANCH  20  23
ATOM     23  O   UNL     1       5.728   1.728  11.837  0.00  0.00    +0.000 OA
ATOM     24  C   UNL     1       6.655   1.160  10.920  0.00  0.00    +0.000 C 
ENDBRANCH  20  23
ENDBRANCH  19  20
ENDBRANCH  17  19
ENDBRANCH  14  17
ENDBRANCH   1  14
TORSDOF 6
ENDMDL
MODEL 6
REMARK VINA RESULT:      -7.6      2.734      4.484
REMARK  Name = 
REMARK  8 active torsions:
REMARK  status: ('A' for Active; 'I' for Inactive)
REMARK    1  A    between atoms: C_1  and  O_2
REMARK    2  A    between atoms: O_2  and  C_3
REMARK    3  A    between atoms: C_3  and  C_4
REMARK    4  A    between atoms: C_3  and  O_22
REMARK    5  A    between atoms: C_4  and  N_5
REMARK    6  A    between atoms: N_5  and  S_6
REMARK    7  A    between atoms: S_6  and  C_9
REMARK    8  A    between atoms: O_22  and  C_23
REMARK                            x       y       z     vdW  Elec       q    Type
REMARK                         _______ _______ _______ _____ _____    ______ ____
ROOT
ATOM      1  C   UNL     1       5.064   4.803  16.527  0.00  0.00    +0.000 A 
ATOM      2  C   UNL     1       4.620   3.487  16.780  0.00  0.00    +0.000 A 
ATOM      3  C   UNL     1       3.690   3.264  17.797  0.00  0.00    +0.000 A 
ATOM      4  C   UNL     1       3.209   4.372  18.465  0.00  0.00    +0.000 A 
ATOM      5  C   UNL     1       3.652   5.664  18.256  0.00  0.00    +0.000 A 
ATOM      6  C   UNL     1       4.641   5.886  17.327  0.00  0.00    +0.000 A 
ATOM      7  C   UNL     1       2.892   6.626  19.116  0.00  0.00    +0.000 C 
ATOM      8  C   UNL     1       2.101   5.673  20.040  0.00  0.00    +0.000 C 
ATOM      9  N   UNL     1       2.270   4.330  19.480  0.00  0.00    +0.000 N 
ATOM     10  C   UNL     1       1.705   3.166  19.928  0.00  0.00    +0.000 C 
ATOM     11  O   UNL     1       0.996   3.107  20.931  0.00  0.00    +0.000 OA
ATOM     12  C   UNL     1       1.905   1.965  19.007  0.00  0.00    +0.000 C 
ATOM     13  C   UNL     1       3.264   1.918  18.297  0.00  0.00    +0.000 C 
ENDROOT
BRANCH   1  14
ATOM     14  S   UNL     1       6.176   5.151  15.173  0.00  0.00    +0.000 S 
ATOM     15  O   UNL     1       7.485   5.442  15.721  0.00  0.00    +0.000 OA
ATOM     16  O   UNL     1       5.504   6.075  14.289  0.00  0.00    +0.000 OA
BRANCH  14  17
ATOM     17  N   UNL     1       6.300   3.663  14.372  0.00  0.00    +0.000 NA
ATOM     18  H   UNL     1       7.102   3.142  14.743  0.00  0.00    +0.000 HD
BRANCH  17  19
ATOM     19  C   UNL     1       6.340   3.699  12.882  0.00  0.00    +0.000 C 
BRANCH  19  20
ATOM     20  C   UNL     1       5.203   2.903  12.213  0.00  0.00    +0.000 C 
BRANCH  20  22
ATOM     21  C   UNL     1       7.058   1.802  11.170  0.00  0.00    +0.000 C 
ATOM     22  O   UNL     1       5.657   1.819  11.401  0.00  0.00    +0.000 OA
ENDBRANCH  20  22
BRANCH  20  23
ATOM     23  O   UNL     1       4.425   3.816  11.435  0.00  0.00    +0.000 OA
ATOM     24  C   UNL     1       3.438   3.133  10.672  0.00  0.00    +0.000 C 
ENDBRANCH  20  23
ENDBRANCH  19  20
ENDBRANCH  17  19
ENDBRANCH  14  17
ENDBRANCH   1  14
TORSDOF 6
ENDMDL
MODEL 7
REMARK VINA RESULT:      -7.5      0.478      1.462
REMARK  Name = 
REMARK  8 active torsions:
REMARK  status: ('A' for Active; 'I' for Inactive)
REMARK    1  A    between atoms: C_1  and  O_2
REMARK    2  A    between atoms: O_2  and  C_3
REMARK    3  A    between atoms: C_3  and  C_4
REMARK    4  A    between atoms: C_3  and  O_22
REMARK    5  A    between atoms: C_4  and  N_5
REMARK    6  A    between atoms: N_5  and  S_6
REMARK    7  A    between atoms: S_6  and  C_9
REMARK    8  A    between atoms: O_22  and  C_23
REMARK                            x       y       z     vdW  Elec       q    Type
REMARK                         _______ _______ _______ _____ _____    ______ ____
ROOT
ATOM      1  C   UNL     1       4.566   5.090  16.632  0.00  0.00    +0.000 A 
ATOM      2  C   UNL     1       4.264   3.733  16.877  0.00  0.00    +0.000 A 
ATOM      3  C   UNL     1       3.455   3.400  17.967  0.00  0.00    +0.000 A 
ATOM      4  C   UNL     1       2.944   4.443  18.714  0.00  0.00    +0.000 A 
ATOM      5  C   UNL     1       3.252   5.774  18.510  0.00  0.00    +0.000 A 
ATOM      6  C   UNL     1       4.128   6.109  17.504  0.00  0.00    +0.000 A 
ATOM      7  C   UNL     1       2.495   6.640  19.469  0.00  0.00    +0.000 C 
ATOM      8  C   UNL     1       1.879   5.597  20.427  0.00  0.00    +0.000 C 
ATOM      9  N   UNL     1       2.111   4.289  19.807  0.00  0.00    +0.000 N 
ATOM     10  C   UNL     1       1.693   3.068  20.264  0.00  0.00    +0.000 C 
ATOM     11  O   UNL     1       1.089   2.919  21.323  0.00  0.00    +0.000 OA
ATOM     12  C   UNL     1       1.910   1.915  19.287  0.00  0.00    +0.000 C 
ATOM     13  C   UNL     1       3.196   2.009  18.455  0.00  0.00    +0.000 C 
ENDROOT
BRANCH   1  14
ATOM     14  S   UNL     1       5.513   5.573  15.196  0.00  0.00    +0.000 S 
ATOM     15  O   UNL     1       5.174   6.942  14.865  0.00  0.00    +0.000 OA
ATOM     16  O   UNL     1       5.396   4.510  14.224  0.00  0.00    +0.000 OA
BRANCH  14  17
ATOM     17  N   UNL     1       7.109   5.585  15.762  0.00  0.00    +0.000 NA
ATOM     18  H   UNL     1       7.702   5.044  15.122  0.00  0.00    +0.000 HD
BRANCH  17  19
ATOM     19  C   UNL     1       7.329   5.156  17.172  0.00  0.00    +0.000 C 
BRANCH  19  20
ATOM     20  C   UNL     1       7.818   6.290  18.096  0.00  0.00    +0.000 C 
BRANCH  20  22
ATOM     21  C   UNL     1       6.605   5.010  19.718  0.00  0.00    +0.000 C 
ATOM     22  O   UNL     1       7.479   6.102  19.471  0.00  0.00    +0.000 OA
ENDBRANCH  20  22
BRANCH  20  23
ATOM     23  O   UNL     1       7.270   7.518  17.611  0.00  0.00    +0.000 OA
ATOM     24  C   UNL     1       8.135   8.613  17.887  0.00  0.00    +0.000 C 
ENDBRANCH  20  23
ENDBRANCH  19  20
ENDBRANCH  17  19
ENDBRANCH  14  17
ENDBRANCH   1  14
TORSDOF 6
ENDMDL
MODEL 8
REMARK VINA RESULT:      -7.4      2.875      5.132
REMARK  Name = 
REMARK  8 active torsions:
REMARK  status: ('A' for Active; 'I' for Inactive)
REMARK    1  A    between atoms: C_1  and  O_2
REMARK    2  A    between atoms: O_2  and  C_3
REMARK    3  A    between atoms: C_3  and  C_4
REMARK    4  A    between atoms: C_3  and  O_22
REMARK    5  A    between atoms: C_4  and  N_5
REMARK    6  A    between atoms: N_5  and  S_6
REMARK    7  A    between atoms: S_6  and  C_9
REMARK    8  A    between atoms: O_22  and  C_23
REMARK                            x       y       z     vdW  Elec       q    Type
REMARK                         _______ _______ _______ _____ _____    ______ ____
ROOT
ATOM      1  C   UNL     1       5.190   4.544  16.356  0.00  0.00    +0.000 A 
ATOM      2  C   UNL     1       4.640   5.657  17.028  0.00  0.00    +0.000 A 
ATOM      3  C   UNL     1       3.642   5.453  17.984  0.00  0.00    +0.000 A 
ATOM      4  C   UNL     1       3.291   4.146  18.258  0.00  0.00    +0.000 A 
ATOM      5  C   UNL     1       3.792   3.045  17.590  0.00  0.00    +0.000 A 
ATOM      6  C   UNL     1       4.701   3.239  16.577  0.00  0.00    +0.000 A 
ATOM      7  C   UNL     1       3.230   1.782  18.165  0.00  0.00    +0.000 C 
ATOM      8  C   UNL     1       2.137   2.319  19.114  0.00  0.00    +0.000 C 
ATOM      9  N   UNL     1       2.340   3.769  19.189  0.00  0.00    +0.000 N 
ATOM     10  C   UNL     1       1.644   4.666  19.954  0.00  0.00    +0.000 C 
ATOM     11  O   UNL     1       0.692   4.348  20.662  0.00  0.00    +0.000 OA
ATOM     12  C   UNL     1       2.231   6.075  19.973  0.00  0.00    +0.000 C 
ATOM     13  C   UNL     1       2.846   6.535  18.644  0.00  0.00    +0.000 C 
ENDROOT
BRANCH   1  14
ATOM     14  S   UNL     1       6.537   4.746  15.199  0.00  0.00    +0.000 S 
ATOM     15  O   UNL     1       7.784   4.613  15.923  0.00  0.00    +0.000 OA
ATOM     16  O   UNL     1       6.248   5.913  14.399  0.00  0.00    +0.000 OA
BRANCH  14  17
ATOM     17  N   UNL     1       6.403   3.385  14.198  0.00  0.00    +0.000 NA
ATOM     18  H   UNL     1       7.128   2.704  14.451  0.00  0.00    +0.000 HD
BRANCH  17  19
ATOM     19  C   UNL     1       6.397   3.626  12.727  0.00  0.00    +0.000 C 
BRANCH  19  20
ATOM     20  C   UNL     1       5.327   2.813  11.971  0.00  0.00    +0.000 C 
BRANCH  20  22
ATOM     21  C   UNL     1       6.214   0.688  11.311  0.00  0.00    +0.000 C 
ATOM     22  O   UNL     1       5.854   2.004  10.918  0.00  0.00    +0.000 OA
ENDBRANCH  20  22
BRANCH  20  23
ATOM     23  O   UNL     1       4.360   3.732  11.457  0.00  0.00    +0.000 OA
ATOM     24  C   UNL     1       3.368   3.060  10.691  0.00  0.00    +0.000 C 
ENDBRANCH  20  23
ENDBRANCH  19  20
ENDBRANCH  17  19
ENDBRANCH  14  17
ENDBRANCH   1  14
TORSDOF 6
ENDMDL
MODEL 9
REMARK VINA RESULT:      -7.4      2.525      4.001
REMARK  Name = 
REMARK  8 active torsions:
REMARK  status: ('A' for Active; 'I' for Inactive)
REMARK    1  A    between atoms: C_1  and  O_2
REMARK    2  A    between atoms: O_2  and  C_3
REMARK    3  A    between atoms: C_3  and  C_4
REMARK    4  A    between atoms: C_3  and  O_22
REMARK    5  A    between atoms: C_4  and  N_5
REMARK    6  A    between atoms: N_5  and  S_6
REMARK    7  A    between atoms: S_6  and  C_9
REMARK    8  A    between atoms: O_22  and  C_23
REMARK                            x       y       z     vdW  Elec       q    Type
REMARK                         _______ _______ _______ _____ _____    ______ ____
ROOT
ATOM      1  C   UNL     1       4.763   4.992  17.028  0.00  0.00    +0.000 A 
ATOM      2  C   UNL     1       4.441   3.634  17.247  0.00  0.00    +0.000 A 
ATOM      3  C   UNL     1       3.556   3.300  18.274  0.00  0.00    +0.000 A 
ATOM      4  C   UNL     1       2.995   4.341  18.987  0.00  0.00    +0.000 A 
ATOM      5  C   UNL     1       3.319   5.673  18.811  0.00  0.00    +0.000 A 
ATOM      6  C   UNL     1       4.266   6.009  17.871  0.00  0.00    +0.000 A 
ATOM      7  C   UNL     1       2.498   6.537  19.716  0.00  0.00    +0.000 C 
ATOM      8  C   UNL     1       1.813   5.492  20.623  0.00  0.00    +0.000 C 
ATOM      9  N   UNL     1       2.086   4.186  20.017  0.00  0.00    +0.000 N 
ATOM     10  C   UNL     1       1.634   2.964  20.438  0.00  0.00    +0.000 C 
ATOM     11  O   UNL     1       0.954   2.813  21.452  0.00  0.00    +0.000 OA
ATOM     12  C   UNL     1       1.917   1.814  19.476  0.00  0.00    +0.000 C 
ATOM     13  C   UNL     1       3.260   1.907  18.738  0.00  0.00    +0.000 C 
ENDROOT
BRANCH   1  14
ATOM     14  S   UNL     1       5.811   5.477  15.665  0.00  0.00    +0.000 S 
ATOM     15  O   UNL     1       7.167   5.065  15.963  0.00  0.00    +0.000 OA
ATOM     16  O   UNL     1       5.492   6.848  15.342  0.00  0.00    +0.000 OA
BRANCH  14  17
ATOM     17  N   UNL     1       5.272   4.503  14.387  0.00  0.00    +0.000 NA
ATOM     18  H   UNL     1       4.454   3.964  14.692  0.00  0.00    +0.000 HD
BRANCH  17  19
ATOM     19  C   UNL     1       6.280   3.613  13.745  0.00  0.00    +0.000 C 
BRANCH  19  20
ATOM     20  C   UNL     1       6.195   3.590  12.206  0.00  0.00    +0.000 C 
BRANCH  20  22
ATOM     21  C   UNL     1       7.054   1.619  11.151  0.00  0.00    +0.000 C 
ATOM     22  O   UNL     1       5.917   2.299  11.662  0.00  0.00    +0.000 OA
ENDBRANCH  20  22
BRANCH  20  23
ATOM     23  O   UNL     1       7.430   4.094  11.691  0.00  0.00    +0.000 OA
ATOM     24  C   UNL     1       7.811   5.296  12.348  0.00  0.00    +0.000 C 
ENDBRANCH  20  23
ENDBRANCH  19  20
ENDBRANCH  17  19
ENDBRANCH  14  17
ENDBRANCH   1  14
TORSDOF 6
ENDMDL
