MODEL 1
REMARK VINA RESULT:      -8.8      0.000      0.000
REMARK  Name = 
REMARK  5 active torsions:
REMARK  status: ('A' for Active; 'I' for Inactive)
REMARK    1  A    between atoms: C_1  and  O_2
REMARK    2  A    between atoms: O_2  and  C_3
REMARK    3  A    between atoms: C_5  and  C_6
REMARK    4  A    between atoms: C_8  and  C_9
REMARK    5  A    between atoms: C_17  and  C_18
REMARK                            x       y       z     vdW  Elec       q    Type
REMARK                         _______ _______ _______ _____ _____    ______ ____
ROOT
ATOM      1  C   UNL     1       3.056   5.595  19.177  0.00  0.00    +0.000 A 
ATOM      2  C   UNL     1       4.257   5.495  18.461  0.00  0.00    +0.000 A 
ATOM      3  C   UNL     1       5.118   4.383  18.571  0.00  0.00    +0.000 A 
ATOM      4  C   UNL     1       4.763   3.305  19.408  0.00  0.00    +0.000 A 
ATOM      5  C   UNL     1       3.570   3.387  20.138  0.00  0.00    +0.000 A 
ATOM      6  N   UNL     1       2.996   2.503  21.014  0.00  0.00    +0.000 NA
ATOM      7  C   UNL     1       1.893   3.111  21.377  0.00  0.00    +0.000 A 
ATOM      8  N   UNL     1       0.959   2.688  22.231  0.00  0.00    +0.000 N 
ATOM      9  O   UNL     1       1.687   4.337  20.822  0.00  0.00    +0.000 OA
ATOM     10  C   UNL     1       2.773   4.513  20.009  0.00  0.00    +0.000 A 
ATOM     11  H   UNL     1       1.245   1.955  22.868  0.00  0.00    +0.000 HD
ATOM     12  H   UNL     1       0.373   3.400  22.648  0.00  0.00    +0.000 HD
ENDROOT
BRANCH   3  13
ATOM     13  C   UNL     1       6.417   4.309  17.783  0.00  0.00    +0.000 C 
ATOM     14  C   UNL     1       6.186   3.721  16.400  0.00  0.00    +0.000 C 
ATOM     15  C   UNL     1       6.773   4.804  15.531  0.00  0.00    +0.000 C 
ATOM     16  N   UNL     1       7.226   5.841  16.169  0.00  0.00    +0.000 NA
ATOM     17  N   UNL     1       7.035   5.607  17.507  0.00  0.00    +0.000 N 
ATOM     18  C   UNL     1       7.544   6.424  18.497  0.00  0.00    +0.000 C 
ATOM     19  C   UNL     1       8.196   7.713  18.063  0.00  0.00    +0.000 C 
ATOM     20  O   UNL     1       7.458   6.151  19.698  0.00  0.00    +0.000 OA
BRANCH  15  21
ATOM     21  C   UNL     1       6.836   4.653  14.057  0.00  0.00    +0.000 A 
ATOM     22  C   UNL     1       6.027   3.730  13.386  0.00  0.00    +0.000 A 
ATOM     23  C   UNL     1       6.136   3.574  12.002  0.00  0.00    +0.000 A 
ATOM     24  C   UNL     1       7.049   4.342  11.282  0.00  0.00    +0.000 A 
ATOM     25  C   UNL     1       7.849   5.274  11.942  0.00  0.00    +0.000 A 
ATOM     26  C   UNL     1       7.741   5.431  13.326  0.00  0.00    +0.000 A 
ENDBRANCH  15  21
ENDBRANCH   3  13
BRANCH   1  28
ATOM     27  C   UNL     1       2.584   7.713  18.261  0.00  0.00    +0.000 C 
ATOM     28  O   UNL     1       2.196   6.655  19.131  0.00  0.00    +0.000 OA
ENDBRANCH   1  28
TORSDOF 3
ENDMDL
MODEL 2
REMARK VINA RESULT:      -8.2      4.459      8.314
REMARK  Name = 
REMARK  5 active torsions:
REMARK  status: ('A' for Active; 'I' for Inactive)
REMARK    1  A    between atoms: C_1  and  O_2
REMARK    2  A    between atoms: O_2  and  C_3
REMARK    3  A    between atoms: C_5  and  C_6
REMARK    4  A    between atoms: C_8  and  C_9
REMARK    5  A    between atoms: C_17  and  C_18
REMARK                            x       y       z     vdW  Elec       q    Type
REMARK                         _______ _______ _______ _____ _____    ______ ____
ROOT
ATOM      1  C   UNL     1       2.269   5.780  20.234  0.00  0.00    +0.000 A 
ATOM      2  C   UNL     1       1.684   7.054  20.268  0.00  0.00    +0.000 A 
ATOM      3  C   UNL     1       1.984   8.054  19.319  0.00  0.00    +0.000 A 
ATOM      4  C   UNL     1       2.885   7.775  18.271  0.00  0.00    +0.000 A 
ATOM      5  C   UNL     1       3.487   6.511  18.222  0.00  0.00    +0.000 A 
ATOM      6  N   UNL     1       4.387   5.983  17.333  0.00  0.00    +0.000 NA
ATOM      7  C   UNL     1       4.582   4.768  17.786  0.00  0.00    +0.000 A 
ATOM      8  N   UNL     1       5.381   3.821  17.292  0.00  0.00    +0.000 N 
ATOM      9  O   UNL     1       3.892   4.444  18.914  0.00  0.00    +0.000 OA
ATOM     10  C   UNL     1       3.173   5.573  19.193  0.00  0.00    +0.000 A 
ATOM     11  H   UNL     1       6.111   4.142  16.668  0.00  0.00    +0.000 HD
ATOM     12  H   UNL     1       5.668   3.093  17.934  0.00  0.00    +0.000 HD
ENDROOT
BRANCH   3  13
ATOM     13  C   UNL     1       1.334   9.428  19.389  0.00  0.00    +0.000 C 
ATOM     14  C   UNL     1       0.497   9.701  18.148  0.00  0.00    +0.000 C 
ATOM     15  C   UNL     1      -0.832  10.036  18.773  0.00  0.00    +0.000 C 
ATOM     16  N   UNL     1      -0.870   9.960  20.070  0.00  0.00    +0.000 NA
ATOM     17  N   UNL     1       0.384   9.596  20.489  0.00  0.00    +0.000 N 
ATOM     18  C   UNL     1       0.761   9.578  21.818  0.00  0.00    +0.000 C 
ATOM     19  C   UNL     1      -0.317   9.813  22.846  0.00  0.00    +0.000 C 
ATOM     20  O   UNL     1       1.920   9.351  22.180  0.00  0.00    +0.000 OA
BRANCH  15  21
ATOM     21  C   UNL     1      -1.990  10.444  17.940  0.00  0.00    +0.000 A 
ATOM     22  C   UNL     1      -2.963  11.322  18.431  0.00  0.00    +0.000 A 
ATOM     23  C   UNL     1      -4.068  11.657  17.645  0.00  0.00    +0.000 A 
ATOM     24  C   UNL     1      -4.204  11.122  16.365  0.00  0.00    +0.000 A 
ATOM     25  C   UNL     1      -3.231  10.257  15.865  0.00  0.00    +0.000 A 
ATOM     26  C   UNL     1      -2.125   9.920  16.649  0.00  0.00    +0.000 A 
ENDBRANCH  15  21
ENDBRANCH   3  13
BRANCH   1  28
ATOM     27  C   UNL     1       1.181   3.739  20.681  0.00  0.00    +0.000 C 
ATOM     28  O   UNL     1       2.038   4.781  21.137  0.00  0.00    +0.000 OA
ENDBRANCH   1  28
TORSDOF 3
ENDMDL
MODEL 3
REMARK VINA RESULT:      -8.2      2.189      3.534
REMARK  Name = 
REMARK  5 active torsions:
REMARK  status: ('A' for Active; 'I' for Inactive)
REMARK    1  A    between atoms: C_1  and  O_2
REMARK    2  A    between atoms: O_2  and  C_3
REMARK    3  A    between atoms: C_5  and  C_6
REMARK    4  A    between atoms: C_8  and  C_9
REMARK    5  A    between atoms: C_17  and  C_18
REMARK                            x       y       z     vdW  Elec       q    Type
REMARK                         _______ _______ _______ _____ _____    ______ ____
ROOT
ATOM      1  C   UNL     1       2.218   6.302  19.663  0.00  0.00    +0.000 A 
ATOM      2  C   UNL     1       3.199   5.417  19.193  0.00  0.00    +0.000 A 
ATOM      3  C   UNL     1       4.036   5.721  18.099  0.00  0.00    +0.000 A 
ATOM      4  C   UNL     1       3.917   6.970  17.455  0.00  0.00    +0.000 A 
ATOM      5  C   UNL     1       2.939   7.866  17.904  0.00  0.00    +0.000 A 
ATOM      6  N   UNL     1       2.609   9.122  17.464  0.00  0.00    +0.000 NA
ATOM      7  C   UNL     1       1.630   9.474  18.263  0.00  0.00    +0.000 A 
ATOM      8  N   UNL     1       0.934  10.612  18.266  0.00  0.00    +0.000 N 
ATOM      9  O   UNL     1       1.272   8.549  19.196  0.00  0.00    +0.000 OA
ATOM     10  C   UNL     1       2.128   7.507  18.968  0.00  0.00    +0.000 A 
ATOM     11  H   UNL     1       0.973  11.152  17.411  0.00  0.00    +0.000 HD
ATOM     12  H   UNL     1       0.022  10.582  18.702  0.00  0.00    +0.000 HD
ENDROOT
BRANCH   3  13
ATOM     13  C   UNL     1       5.087   4.735  17.612  0.00  0.00    +0.000 C 
ATOM     14  C   UNL     1       4.929   4.459  16.124  0.00  0.00    +0.000 C 
ATOM     15  C   UNL     1       6.312   4.792  15.627  0.00  0.00    +0.000 C 
ATOM     16  N   UNL     1       7.140   5.214  16.535  0.00  0.00    +0.000 NA
ATOM     17  N   UNL     1       6.466   5.208  17.730  0.00  0.00    +0.000 N 
ATOM     18  C   UNL     1       7.081   5.441  18.945  0.00  0.00    +0.000 C 
ATOM     19  C   UNL     1       8.523   5.881  18.918  0.00  0.00    +0.000 C 
ATOM     20  O   UNL     1       6.490   5.332  20.024  0.00  0.00    +0.000 OA
BRANCH  15  21
ATOM     21  C   UNL     1       6.677   4.614  14.201  0.00  0.00    +0.000 A 
ATOM     22  C   UNL     1       7.662   5.406  13.600  0.00  0.00    +0.000 A 
ATOM     23  C   UNL     1       7.958   5.252  12.244  0.00  0.00    +0.000 A 
ATOM     24  C   UNL     1       7.276   4.305  11.483  0.00  0.00    +0.000 A 
ATOM     25  C   UNL     1       6.303   3.503  12.078  0.00  0.00    +0.000 A 
ATOM     26  C   UNL     1       6.005   3.655  13.434  0.00  0.00    +0.000 A 
ENDBRANCH  15  21
ENDBRANCH   3  13
BRANCH   1  28
ATOM     27  C   UNL     1       1.160   4.678  21.002  0.00  0.00    +0.000 C 
ATOM     28  O   UNL     1       1.362   6.054  20.699  0.00  0.00    +0.000 OA
ENDBRANCH   1  28
TORSDOF 3
ENDMDL
MODEL 4
REMARK VINA RESULT:      -8.1      1.727      2.515
REMARK  Name = 
REMARK  5 active torsions:
REMARK  status: ('A' for Active; 'I' for Inactive)
REMARK    1  A    between atoms: C_1  and  O_2
REMARK    2  A    between atoms: O_2  and  C_3
REMARK    3  A    between atoms: C_5  and  C_6
REMARK    4  A    between atoms: C_8  and  C_9
REMARK    5  A    between atoms: C_17  and  C_18
REMARK                            x       y       z     vdW  Elec       q    Type
REMARK                         _______ _______ _______ _____ _____    ______ ____
ROOT
ATOM      1  C   UNL     1       2.418   3.838  20.006  0.00  0.00    +0.000 A 
ATOM      2  C   UNL     1       3.612   3.512  19.347  0.00  0.00    +0.000 A 
ATOM      3  C   UNL     1       4.482   4.491  18.823  0.00  0.00    +0.000 A 
ATOM      4  C   UNL     1       4.173   5.858  18.980  0.00  0.00    +0.000 A 
ATOM      5  C   UNL     1       2.981   6.206  19.630  0.00  0.00    +0.000 A 
ATOM      6  N   UNL     1       2.442   7.434  19.911  0.00  0.00    +0.000 NA
ATOM      7  C   UNL     1       1.327   7.139  20.535  0.00  0.00    +0.000 A 
ATOM      8  N   UNL     1       0.409   7.974  21.024  0.00  0.00    +0.000 N 
ATOM      9  O   UNL     1       1.072   5.810  20.686  0.00  0.00    +0.000 OA
ATOM     10  C   UNL     1       2.152   5.203  20.106  0.00  0.00    +0.000 A 
ATOM     11  H   UNL     1       0.426   8.914  20.651  0.00  0.00    +0.000 HD
ATOM     12  H   UNL     1      -0.520   7.593  21.160  0.00  0.00    +0.000 HD
ENDROOT
BRANCH   3  13
ATOM     13  C   UNL     1       5.767   4.103  18.107  0.00  0.00    +0.000 C 
ATOM     14  C   UNL     1       5.484   3.643  16.685  0.00  0.00    +0.000 C 
ATOM     15  C   UNL     1       6.391   4.560  15.906  0.00  0.00    +0.000 C 
ATOM     16  N   UNL     1       7.056   5.418  16.619  0.00  0.00    +0.000 NA
ATOM     17  N   UNL     1       6.720   5.199  17.931  0.00  0.00    +0.000 N 
ATOM     18  C   UNL     1       7.359   5.819  18.987  0.00  0.00    +0.000 C 
ATOM     19  C   UNL     1       8.353   6.903  18.656  0.00  0.00    +0.000 C 
ATOM     20  O   UNL     1       7.122   5.539  20.167  0.00  0.00    +0.000 OA
BRANCH  15  21
ATOM     21  C   UNL     1       6.512   4.447  14.432  0.00  0.00    +0.000 A 
ATOM     22  C   UNL     1       5.669   3.607  13.697  0.00  0.00    +0.000 A 
ATOM     23  C   UNL     1       5.831   3.482  12.315  0.00  0.00    +0.000 A 
ATOM     24  C   UNL     1       6.831   4.200  11.661  0.00  0.00    +0.000 A 
ATOM     25  C   UNL     1       7.666   5.049  12.385  0.00  0.00    +0.000 A 
ATOM     26  C   UNL     1       7.506   5.175  13.767  0.00  0.00    +0.000 A 
ENDBRANCH  15  21
ENDBRANCH   3  13
BRANCH   1  28
ATOM     27  C   UNL     1       1.765   2.535  21.857  0.00  0.00    +0.000 C 
ATOM     28  O   UNL     1       1.525   2.937  20.512  0.00  0.00    +0.000 OA
ENDBRANCH   1  28
TORSDOF 3
ENDMDL
MODEL 5
REMARK VINA RESULT:      -7.9      4.485      8.062
REMARK  Name = 
REMARK  5 active torsions:
REMARK  status: ('A' for Active; 'I' for Inactive)
REMARK    1  A    between atoms: C_1  and  O_2
REMARK    2  A    between atoms: O_2  and  C_3
REMARK    3  A    between atoms: C_5  and  C_6
REMARK    4  A    between atoms: C_8  and  C_9
REMARK    5  A    between atoms: C_17  and  C_18
REMARK                            x       y       z     vdW  Elec       q    Type
REMARK                         _______ _______ _______ _____ _____    ______ ____
ROOT
ATOM      1  C   UNL     1       3.402   6.348  18.342  0.00  0.00    +0.000 A 
ATOM      2  C   UNL     1       2.831   7.627  18.394  0.00  0.00    +0.000 A 
ATOM      3  C   UNL     1       1.913   8.010  19.394  0.00  0.00    +0.000 A 
ATOM      4  C   UNL     1       1.559   7.093  20.406  0.00  0.00    +0.000 A 
ATOM      5  C   UNL     1       2.113   5.807  20.369  0.00  0.00    +0.000 A 
ATOM      6  N   UNL     1       1.942   4.737  21.208  0.00  0.00    +0.000 NA
ATOM      7  C   UNL     1       2.711   3.814  20.681  0.00  0.00    +0.000 A 
ATOM      8  N   UNL     1       2.911   2.565  21.103  0.00  0.00    +0.000 N 
ATOM      9  O   UNL     1       3.375   4.179  19.549  0.00  0.00    +0.000 OA
ATOM     10  C   UNL     1       2.993   5.477  19.351  0.00  0.00    +0.000 A 
ATOM     11  H   UNL     1       2.207   2.195  21.730  0.00  0.00    +0.000 HD
ATOM     12  H   UNL     1       3.248   1.904  20.414  0.00  0.00    +0.000 HD
ENDROOT
BRANCH   3  13
ATOM     13  C   UNL     1       1.308   9.406  19.418  0.00  0.00    +0.000 C 
ATOM     14  C   UNL     1       0.479   9.664  18.169  0.00  0.00    +0.000 C 
ATOM     15  C   UNL     1      -0.839  10.062  18.782  0.00  0.00    +0.000 C 
ATOM     16  N   UNL     1      -0.878  10.030  20.080  0.00  0.00    +0.000 NA
ATOM     17  N   UNL     1       0.365   9.641  20.512  0.00  0.00    +0.000 N 
ATOM     18  C   UNL     1       0.742   9.655  21.841  0.00  0.00    +0.000 C 
ATOM     19  C   UNL     1      -0.327   9.959  22.860  0.00  0.00    +0.000 C 
ATOM     20  O   UNL     1       1.893   9.403  22.211  0.00  0.00    +0.000 OA
BRANCH  15  21
ATOM     21  C   UNL     1      -1.984  10.479  17.936  0.00  0.00    +0.000 A 
ATOM     22  C   UNL     1      -2.969  11.344  18.423  0.00  0.00    +0.000 A 
ATOM     23  C   UNL     1      -4.062  11.687  17.624  0.00  0.00    +0.000 A 
ATOM     24  C   UNL     1      -4.172  11.173  16.334  0.00  0.00    +0.000 A 
ATOM     25  C   UNL     1      -3.187  10.321  15.836  0.00  0.00    +0.000 A 
ATOM     26  C   UNL     1      -2.093   9.976  16.634  0.00  0.00    +0.000 A 
ENDBRANCH  15  21
ENDBRANCH   3  13
BRANCH   1  28
ATOM     27  C   UNL     1       5.243   6.869  16.969  0.00  0.00    +0.000 C 
ATOM     28  O   UNL     1       4.276   5.912  17.387  0.00  0.00    +0.000 OA
ENDBRANCH   1  28
TORSDOF 3
ENDMDL
MODEL 6
REMARK VINA RESULT:      -7.8      1.738      2.570
REMARK  Name = 
REMARK  5 active torsions:
REMARK  status: ('A' for Active; 'I' for Inactive)
REMARK    1  A    between atoms: C_1  and  O_2
REMARK    2  A    between atoms: O_2  and  C_3
REMARK    3  A    between atoms: C_5  and  C_6
REMARK    4  A    between atoms: C_8  and  C_9
REMARK    5  A    between atoms: C_17  and  C_18
REMARK                            x       y       z     vdW  Elec       q    Type
REMARK                         _______ _______ _______ _____ _____    ______ ____
ROOT
ATOM      1  C   UNL     1       2.456   3.693  19.724  0.00  0.00    +0.000 A 
ATOM      2  C   UNL     1       3.677   3.413  19.095  0.00  0.00    +0.000 A 
ATOM      3  C   UNL     1       4.588   4.424  18.720  0.00  0.00    +0.000 A 
ATOM      4  C   UNL     1       4.291   5.773  19.003  0.00  0.00    +0.000 A 
ATOM      5  C   UNL     1       3.072   6.075  19.624  0.00  0.00    +0.000 A 
ATOM      6  N   UNL     1       2.537   7.279  20.003  0.00  0.00    +0.000 NA
ATOM      7  C   UNL     1       1.387   6.943  20.536  0.00  0.00    +0.000 A 
ATOM      8  N   UNL     1       0.456   7.741  21.062  0.00  0.00    +0.000 N 
ATOM      9  O   UNL     1       1.105   5.611  20.535  0.00  0.00    +0.000 OA
ATOM     10  C   UNL     1       2.204   5.045  19.951  0.00  0.00    +0.000 A 
ATOM     11  H   UNL     1       0.507   8.715  20.790  0.00  0.00    +0.000 HD
ATOM     12  H   UNL     1      -0.484   7.367  21.110  0.00  0.00    +0.000 HD
ENDROOT
BRANCH   3  13
ATOM     13  C   UNL     1       5.903   4.085  18.034  0.00  0.00    +0.000 C 
ATOM     14  C   UNL     1       5.671   3.626  16.603  0.00  0.00    +0.000 C 
ATOM     15  C   UNL     1       6.564   4.579  15.852  0.00  0.00    +0.000 C 
ATOM     16  N   UNL     1       7.181   5.455  16.587  0.00  0.00    +0.000 NA
ATOM     17  N   UNL     1       6.821   5.215  17.888  0.00  0.00    +0.000 N 
ATOM     18  C   UNL     1       7.411   5.850  18.964  0.00  0.00    +0.000 C 
ATOM     19  C   UNL     1       8.375   6.970  18.664  0.00  0.00    +0.000 C 
ATOM     20  O   UNL     1       7.156   5.553  20.136  0.00  0.00    +0.000 OA
BRANCH  15  21
ATOM     21  C   UNL     1       6.725   4.482  14.381  0.00  0.00    +0.000 A 
ATOM     22  C   UNL     1       7.622   5.306  13.693  0.00  0.00    +0.000 A 
ATOM     23  C   UNL     1       7.724   5.228  12.302  0.00  0.00    +0.000 A 
ATOM     24  C   UNL     1       6.936   4.323  11.593  0.00  0.00    +0.000 A 
ATOM     25  C   UNL     1       6.050   3.489  12.273  0.00  0.00    +0.000 A 
ATOM     26  C   UNL     1       5.946   3.566  13.665  0.00  0.00    +0.000 A 
ENDBRANCH  15  21
ENDBRANCH   3  13
BRANCH   1  28
ATOM     27  C   UNL     1       0.751   2.229  19.017  0.00  0.00    +0.000 C 
ATOM     28  O   UNL     1       1.524   2.762  20.087  0.00  0.00    +0.000 OA
ENDBRANCH   1  28
TORSDOF 3
ENDMDL
MODEL 7
REMARK VINA RESULT:      -7.7      2.063      2.709
REMARK  Name = 
REMARK  5 active torsions:
REMARK  status: ('A' for Active; 'I' for Inactive)
REMARK    1  A    between atoms: C_1  and  O_2
REMARK    2  A    between atoms: O_2  and  C_3
REMARK    3  A    between atoms: C_5  and  C_6
REMARK    4  A    between atoms: C_8  and  C_9
REMARK    5  A    between atoms: C_17  and  C_18
REMARK                            x       y       z     vdW  Elec       q    Type
REMARK                         _______ _______ _______ _____ _____    ______ ____
ROOT
ATOM      1  C   UNL     1       2.642   8.065  17.903  0.00  0.00    +0.000 A 
ATOM      2  C   UNL     1       3.511   7.048  17.483  0.00  0.00    +0.000 A 
ATOM      3  C   UNL     1       3.780   5.906  18.266  0.00  0.00    +0.000 A 
ATOM      4  C   UNL     1       3.140   5.747  19.513  0.00  0.00    +0.000 A 
ATOM      5  C   UNL     1       2.273   6.755  19.956  0.00  0.00    +0.000 A 
ATOM      6  N   UNL     1       1.537   6.858  21.107  0.00  0.00    +0.000 NA
ATOM      7  C   UNL     1       0.917   8.005  20.967  0.00  0.00    +0.000 A 
ATOM      8  N   UNL     1       0.071   8.595  21.814  0.00  0.00    +0.000 N 
ATOM      9  O   UNL     1       1.188   8.683  19.818  0.00  0.00    +0.000 OA
ATOM     10  C   UNL     1       2.063   7.866  19.155  0.00  0.00    +0.000 A 
ATOM     11  H   UNL     1       0.109   8.270  22.771  0.00  0.00    +0.000 HD
ATOM     12  H   UNL     1      -0.040   9.597  21.714  0.00  0.00    +0.000 HD
ENDROOT
BRANCH   3  13
ATOM     13  C   UNL     1       4.733   4.824  17.782  0.00  0.00    +0.000 C 
ATOM     14  C   UNL     1       4.528   4.536  16.302  0.00  0.00    +0.000 C 
ATOM     15  C   UNL     1       5.927   4.739  15.780  0.00  0.00    +0.000 C 
ATOM     16  N   UNL     1       6.802   5.104  16.667  0.00  0.00    +0.000 NA
ATOM     17  N   UNL     1       6.150   5.178  17.871  0.00  0.00    +0.000 N 
ATOM     18  C   UNL     1       6.802   5.379  19.072  0.00  0.00    +0.000 C 
ATOM     19  C   UNL     1       8.276   5.691  19.016  0.00  0.00    +0.000 C 
ATOM     20  O   UNL     1       6.221   5.340  20.162  0.00  0.00    +0.000 OA
BRANCH  15  21
ATOM     21  C   UNL     1       6.252   4.506  14.351  0.00  0.00    +0.000 A 
ATOM     22  C   UNL     1       5.482   3.644  13.563  0.00  0.00    +0.000 A 
ATOM     23  C   UNL     1       5.834   3.405  12.232  0.00  0.00    +0.000 A 
ATOM     24  C   UNL     1       6.952   4.027  11.683  0.00  0.00    +0.000 A 
ATOM     25  C   UNL     1       7.717   4.897  12.458  0.00  0.00    +0.000 A 
ATOM     26  C   UNL     1       7.367   5.139  13.789  0.00  0.00    +0.000 A 
ENDBRANCH  15  21
ENDBRANCH   3  13
BRANCH   1  28
ATOM     27  C   UNL     1       2.487  10.415  17.939  0.00  0.00    +0.000 C 
ATOM     28  O   UNL     1       2.361   9.204  17.202  0.00  0.00    +0.000 OA
ENDBRANCH   1  28
TORSDOF 3
ENDMDL
MODEL 8
REMARK VINA RESULT:      -7.5      7.046      9.883
REMARK  Name = 
REMARK  5 active torsions:
REMARK  status: ('A' for Active; 'I' for Inactive)
REMARK    1  A    between atoms: C_1  and  O_2
REMARK    2  A    between atoms: O_2  and  C_3
REMARK    3  A    between atoms: C_5  and  C_6
REMARK    4  A    between atoms: C_8  and  C_9
REMARK    5  A    between atoms: C_17  and  C_18
REMARK                            x       y       z     vdW  Elec       q    Type
REMARK                         _______ _______ _______ _____ _____    ______ ____
ROOT
ATOM      1  C   UNL     1      -3.305  11.337  16.718  0.00  0.00    +0.000 A 
ATOM      2  C   UNL     1      -2.118  11.153  17.439  0.00  0.00    +0.000 A 
ATOM      3  C   UNL     1      -2.014  11.434  18.818  0.00  0.00    +0.000 A 
ATOM      4  C   UNL     1      -3.145  11.894  19.524  0.00  0.00    +0.000 A 
ATOM      5  C   UNL     1      -4.340  12.092  18.821  0.00  0.00    +0.000 A 
ATOM      6  N   UNL     1      -5.567  12.528  19.249  0.00  0.00    +0.000 NA
ATOM      7  C   UNL     1      -6.293  12.506  18.158  0.00  0.00    +0.000 A 
ATOM      8  N   UNL     1      -7.575  12.845  18.011  0.00  0.00    +0.000 N 
ATOM      9  O   UNL     1      -5.648  12.099  17.030  0.00  0.00    +0.000 OA
ATOM     10  C   UNL     1      -4.380  11.821  17.462  0.00  0.00    +0.000 A 
ATOM     11  H   UNL     1      -7.961  13.430  18.742  0.00  0.00    +0.000 HD
ATOM     12  H   UNL     1      -7.872  13.093  17.076  0.00  0.00    +0.000 HD
ENDROOT
BRANCH   3  13
ATOM     13  C   UNL     1      -0.707  11.228  19.569  0.00  0.00    +0.000 C 
ATOM     14  C   UNL     1      -0.333   9.754  19.621  0.00  0.00    +0.000 C 
ATOM     15  C   UNL     1       1.056   9.796  19.037  0.00  0.00    +0.000 C 
ATOM     16  N   UNL     1       1.464  10.970  18.662  0.00  0.00    +0.000 NA
ATOM     17  N   UNL     1       0.458  11.858  18.946  0.00  0.00    +0.000 N 
ATOM     18  C   UNL     1       0.603  13.227  18.833  0.00  0.00    +0.000 C 
ATOM     19  C   UNL     1       1.878  13.739  18.212  0.00  0.00    +0.000 C 
ATOM     20  O   UNL     1      -0.272  14.022  19.190  0.00  0.00    +0.000 OA
BRANCH  15  21
ATOM     21  C   UNL     1       1.881   8.567  18.935  0.00  0.00    +0.000 A 
ATOM     22  C   UNL     1       2.674   8.318  17.809  0.00  0.00    +0.000 A 
ATOM     23  C   UNL     1       3.408   7.133  17.715  0.00  0.00    +0.000 A 
ATOM     24  C   UNL     1       3.357   6.196  18.745  0.00  0.00    +0.000 A 
ATOM     25  C   UNL     1       2.580   6.444  19.875  0.00  0.00    +0.000 A 
ATOM     26  C   UNL     1       1.845   7.628  19.972  0.00  0.00    +0.000 A 
ENDBRANCH  15  21
ENDBRANCH   3  13
BRANCH   1  28
ATOM     27  C   UNL     1      -2.987   9.844  14.924  0.00  0.00    +0.000 C 
ATOM     28  O   UNL     1      -3.460  11.107  15.380  0.00  0.00    +0.000 OA
ENDBRANCH   1  28
TORSDOF 3
ENDMDL
MODEL 9
REMARK VINA RESULT:      -7.4      6.611      9.311
REMARK  Name = 
REMARK  5 active torsions:
REMARK  status: ('A' for Active; 'I' for Inactive)
REMARK    1  A    between atoms: C_1  and  O_2
REMARK    2  A    between atoms: O_2  and  C_3
REMARK    3  A    between atoms: C_5  and  C_6
REMARK    4  A    between atoms: C_8  and  C_9
REMARK    5  A    between atoms: C_17  and  C_18
REMARK                            x       y       z     vdW  Elec       q    Type
REMARK                         _______ _______ _______ _____ _____    ______ ____
ROOT
ATOM      1  C   UNL     1      -3.157  10.265  16.855  0.00  0.00    +0.000 A 
ATOM      2  C   UNL     1      -1.938  10.127  17.534  0.00  0.00    +0.000 A 
ATOM      3  C   UNL     1      -1.651  10.817  18.730  0.00  0.00    +0.000 A 
ATOM      4  C   UNL     1      -2.625  11.664  19.299  0.00  0.00    +0.000 A 
ATOM      5  C   UNL     1      -3.848  11.822  18.633  0.00  0.00    +0.000 A 
ATOM      6  N   UNL     1      -4.948  12.573  18.954  0.00  0.00    +0.000 NA
ATOM      7  C   UNL     1      -5.781  12.321  17.973  0.00  0.00    +0.000 A 
ATOM      8  N   UNL     1      -7.010  12.806  17.788  0.00  0.00    +0.000 N 
ATOM      9  O   UNL     1      -5.322  11.470  17.015  0.00  0.00    +0.000 OA
ATOM     10  C   UNL     1      -4.067  11.137  17.449  0.00  0.00    +0.000 A 
ATOM     11  H   UNL     1      -7.231  13.652  18.299  0.00  0.00    +0.000 HD
ATOM     12  H   UNL     1      -7.366  12.784  16.840  0.00  0.00    +0.000 HD
ENDROOT
BRANCH   3  13
ATOM     13  C   UNL     1      -0.315  10.648  19.438  0.00  0.00    +0.000 C 
ATOM     14  C   UNL     1       0.090   9.183  19.501  0.00  0.00    +0.000 C 
ATOM     15  C   UNL     1       1.456   9.241  18.867  0.00  0.00    +0.000 C 
ATOM     16  N   UNL     1       1.828  10.417  18.459  0.00  0.00    +0.000 NA
ATOM     17  N   UNL     1       0.815  11.289  18.764  0.00  0.00    +0.000 N 
ATOM     18  C   UNL     1       0.929  12.659  18.624  0.00  0.00    +0.000 C 
ATOM     19  C   UNL     1       2.172  13.184  17.950  0.00  0.00    +0.000 C 
ATOM     20  O   UNL     1       0.052  13.444  18.999  0.00  0.00    +0.000 OA
BRANCH  15  21
ATOM     21  C   UNL     1       2.301   8.027  18.755  0.00  0.00    +0.000 A 
ATOM     22  C   UNL     1       2.269   7.028  19.735  0.00  0.00    +0.000 A 
ATOM     23  C   UNL     1       3.106   5.915  19.631  0.00  0.00    +0.000 A 
ATOM     24  C   UNL     1       3.975   5.792  18.549  0.00  0.00    +0.000 A 
ATOM     25  C   UNL     1       4.002   6.777  17.562  0.00  0.00    +0.000 A 
ATOM     26  C   UNL     1       3.165   7.891  17.663  0.00  0.00    +0.000 A 
ENDBRANCH  15  21
ENDBRANCH   3  13
BRANCH   1  28
ATOM     27  C   UNL     1      -3.062  10.320  14.502  0.00  0.00    +0.000 C 
ATOM     28  O   UNL     1      -3.482   9.644  15.683  0.00  0.00    +0.000 OA
ENDBRANCH   1  28
TORSDOF 3
ENDMDL
