MODEL 1
REMARK VINA RESULT:      -7.7      0.000      0.000
REMARK  Name = 
REMARK  4 active torsions:
REMARK  status: ('A' for Active; 'I' for Inactive)
REMARK    1  A    between atoms: C_1  and  C_2
REMARK    2  A    between atoms: C_7  and  N_8
REMARK    3  A    between atoms: C_9  and  C_11
REMARK    4  A    between atoms: N_15  and  C_16
REMARK                            x       y       z     vdW  Elec       q    Type
REMARK                         _______ _______ _______ _____ _____    ______ ____
ROOT
ATOM      1  N   UNL     1       2.807   6.406  19.940  0.00  0.00    +0.000 N 
ATOM      2  C   UNL     1       2.375   5.167  19.502  0.00  0.00    +0.000 C 
ATOM      3  O   UNL     1       1.440   5.009  18.723  0.00  0.00    +0.000 OA
ATOM      4  H   UNL     1       3.771   6.473  20.247  0.00  0.00    +0.000 HD
ENDROOT
BRANCH   1  11
ATOM      5  C   UNL     1      -0.134  10.318  20.858  0.00  0.00    +0.000 C 
ATOM      6  C   UNL     1       0.741   9.528  19.929  0.00  0.00    +0.000 A 
ATOM      7  C   UNL     1       0.991   9.971  18.622  0.00  0.00    +0.000 A 
ATOM      8  C   UNL     1       1.854   9.258  17.789  0.00  0.00    +0.000 A 
ATOM      9  C   UNL     1       2.474   8.107  18.264  0.00  0.00    +0.000 A 
ATOM     10  F   UNL     1       3.299   7.424  17.454  0.00  0.00    +0.000 F 
ATOM     11  C   UNL     1       2.196   7.615  19.540  0.00  0.00    +0.000 A 
ATOM     12  C   UNL     1       1.334   8.335  20.373  0.00  0.00    +0.000 A 
ENDBRANCH   1  11
BRANCH   2  13
ATOM     13  C   UNL     1       3.152   4.058  20.000  0.00  0.00    +0.000 A 
ATOM     14  C   UNL     1       2.885   3.245  21.087  0.00  0.00    +0.000 A 
ATOM     15  N   UNL     1       3.690   2.143  21.100  0.00  0.00    +0.000 NA
ATOM     16  C   UNL     1       4.455   2.274  20.040  0.00  0.00    +0.000 A 
ATOM     17  N   UNL     1       4.240   3.462  19.374  0.00  0.00    +0.000 N 
BRANCH  17  18
ATOM     18  C   UNL     1       5.046   3.961  18.314  0.00  0.00    +0.000 A 
ATOM     19  C   UNL     1       6.196   4.714  18.599  0.00  0.00    +0.000 A 
ATOM     20  C   UNL     1       6.987   5.201  17.559  0.00  0.00    +0.000 A 
ATOM     21  C   UNL     1       6.619   4.976  16.231  0.00  0.00    +0.000 A 
ATOM     22  C   UNL     1       5.458   4.265  15.945  0.00  0.00    +0.000 A 
ATOM     23  C   UNL     1       4.673   3.752  16.980  0.00  0.00    +0.000 A 
ENDBRANCH  17  18
ENDBRANCH   2  13
TORSDOF 3
ENDMDL
MODEL 2
REMARK VINA RESULT:      -7.7      0.160      1.043
REMARK  Name = 
REMARK  4 active torsions:
REMARK  status: ('A' for Active; 'I' for Inactive)
REMARK    1  A    between atoms: C_1  and  C_2
REMARK    2  A    between atoms: C_7  and  N_8
REMARK    3  A    between atoms: C_9  and  C_11
REMARK    4  A    between atoms: N_15  and  C_16
REMARK                            x       y       z     vdW  Elec       q    Type
REMARK                         _______ _______ _______ _____ _____    ______ ____
ROOT
ATOM      1  N   UNL     1       2.794   6.431  19.877  0.00  0.00    +0.000 N 
ATOM      2  C   UNL     1       2.405   5.213  19.350  0.00  0.00    +0.000 C 
ATOM      3  O   UNL     1       1.509   5.086  18.521  0.00  0.00    +0.000 OA
ATOM      4  H   UNL     1       3.742   6.495  20.232  0.00  0.00    +0.000 HD
ENDROOT
BRANCH   1  11
ATOM      5  C   UNL     1      -0.170  10.294  20.921  0.00  0.00    +0.000 C 
ATOM      6  C   UNL     1       0.715   9.543  19.969  0.00  0.00    +0.000 A 
ATOM      7  C   UNL     1       0.970  10.036  18.682  0.00  0.00    +0.000 A 
ATOM      8  C   UNL     1       1.843   9.358  17.828  0.00  0.00    +0.000 A 
ATOM      9  C   UNL     1       2.464   8.193  18.264  0.00  0.00    +0.000 A 
ATOM     10  F   UNL     1       3.297   7.544  17.435  0.00  0.00    +0.000 F 
ATOM     11  C   UNL     1       2.181   7.652  19.518  0.00  0.00    +0.000 A 
ATOM     12  C   UNL     1       1.310   8.336  20.372  0.00  0.00    +0.000 A 
ENDBRANCH   1  11
BRANCH   2  13
ATOM     13  C   UNL     1       3.179   4.089  19.820  0.00  0.00    +0.000 A 
ATOM     14  C   UNL     1       2.901   3.241  20.876  0.00  0.00    +0.000 A 
ATOM     15  N   UNL     1       3.708   2.140  20.862  0.00  0.00    +0.000 NA
ATOM     16  C   UNL     1       4.484   2.307  19.815  0.00  0.00    +0.000 A 
ATOM     17  N   UNL     1       4.275   3.516  19.187  0.00  0.00    +0.000 N 
BRANCH  17  18
ATOM     18  C   UNL     1       5.092   4.051  18.154  0.00  0.00    +0.000 A 
ATOM     19  C   UNL     1       4.761   3.830  16.808  0.00  0.00    +0.000 A 
ATOM     20  C   UNL     1       5.562   4.357  15.796  0.00  0.00    +0.000 A 
ATOM     21  C   UNL     1       6.717   5.074  16.115  0.00  0.00    +0.000 A 
ATOM     22  C   UNL     1       7.070   5.260  17.448  0.00  0.00    +0.000 A 
ATOM     23  C   UNL     1       6.261   4.757  18.468  0.00  0.00    +0.000 A 
ENDBRANCH  17  18
ENDBRANCH   2  13
TORSDOF 3
ENDMDL
MODEL 3
REMARK VINA RESULT:      -7.6      3.581      6.833
REMARK  Name = 
REMARK  4 active torsions:
REMARK  status: ('A' for Active; 'I' for Inactive)
REMARK    1  A    between atoms: C_1  and  C_2
REMARK    2  A    between atoms: C_7  and  N_8
REMARK    3  A    between atoms: C_9  and  C_11
REMARK    4  A    between atoms: N_15  and  C_16
REMARK                            x       y       z     vdW  Elec       q    Type
REMARK                         _______ _______ _______ _____ _____    ______ ____
ROOT
ATOM      1  N   UNL     1       6.635   4.293  15.396  0.00  0.00    +0.000 N 
ATOM      2  C   UNL     1       6.206   5.379  16.138  0.00  0.00    +0.000 C 
ATOM      3  O   UNL     1       5.672   6.369  15.648  0.00  0.00    +0.000 OA
ATOM      4  H   UNL     1       6.699   3.404  15.880  0.00  0.00    +0.000 HD
ENDROOT
BRANCH   1  11
ATOM      5  C   UNL     1       4.192   2.885  11.292  0.00  0.00    +0.000 C 
ATOM      6  C   UNL     1       5.372   3.534  11.955  0.00  0.00    +0.000 A 
ATOM      7  C   UNL     1       6.399   4.111  11.194  0.00  0.00    +0.000 A 
ATOM      8  C   UNL     1       7.461   4.764  11.823  0.00  0.00    +0.000 A 
ATOM      9  C   UNL     1       7.491   4.845  13.211  0.00  0.00    +0.000 A 
ATOM     10  F   UNL     1       8.519   5.470  13.809  0.00  0.00    +0.000 F 
ATOM     11  C   UNL     1       6.512   4.229  13.990  0.00  0.00    +0.000 A 
ATOM     12  C   UNL     1       5.448   3.580  13.357  0.00  0.00    +0.000 A 
ENDBRANCH   1  11
BRANCH   2  13
ATOM     13  C   UNL     1       6.391   5.235  17.562  0.00  0.00    +0.000 A 
ATOM     14  C   UNL     1       7.514   5.530  18.313  0.00  0.00    +0.000 A 
ATOM     15  N   UNL     1       7.241   5.521  19.651  0.00  0.00    +0.000 NA
ATOM     16  C   UNL     1       5.966   5.213  19.730  0.00  0.00    +0.000 A 
ATOM     17  N   UNL     1       5.409   4.939  18.499  0.00  0.00    +0.000 N 
BRANCH  17  18
ATOM     18  C   UNL     1       4.111   4.395  18.294  0.00  0.00    +0.000 A 
ATOM     19  C   UNL     1       3.936   3.006  18.206  0.00  0.00    +0.000 A 
ATOM     20  C   UNL     1       2.662   2.473  18.007  0.00  0.00    +0.000 A 
ATOM     21  C   UNL     1       1.563   3.321  17.854  0.00  0.00    +0.000 A 
ATOM     22  C   UNL     1       1.739   4.700  17.900  0.00  0.00    +0.000 A 
ATOM     23  C   UNL     1       3.007   5.241  18.124  0.00  0.00    +0.000 A 
ENDBRANCH  17  18
ENDBRANCH   2  13
TORSDOF 3
ENDMDL
MODEL 4
REMARK VINA RESULT:      -7.6      3.594      6.836
REMARK  Name = 
REMARK  4 active torsions:
REMARK  status: ('A' for Active; 'I' for Inactive)
REMARK    1  A    between atoms: C_1  and  C_2
REMARK    2  A    between atoms: C_7  and  N_8
REMARK    3  A    between atoms: C_9  and  C_11
REMARK    4  A    between atoms: N_15  and  C_16
REMARK                            x       y       z     vdW  Elec       q    Type
REMARK                         _______ _______ _______ _____ _____    ______ ____
ROOT
ATOM      1  N   UNL     1       6.625   4.298  15.370  0.00  0.00    +0.000 N 
ATOM      2  C   UNL     1       6.174   5.375  16.113  0.00  0.00    +0.000 C 
ATOM      3  O   UNL     1       5.621   6.355  15.624  0.00  0.00    +0.000 OA
ATOM      4  H   UNL     1       6.706   3.410  15.853  0.00  0.00    +0.000 HD
ENDROOT
BRANCH   1  11
ATOM      5  C   UNL     1       4.180   2.891  11.266  0.00  0.00    +0.000 C 
ATOM      6  C   UNL     1       5.362   3.538  11.929  0.00  0.00    +0.000 A 
ATOM      7  C   UNL     1       6.390   4.112  11.168  0.00  0.00    +0.000 A 
ATOM      8  C   UNL     1       7.453   4.763  11.797  0.00  0.00    +0.000 A 
ATOM      9  C   UNL     1       7.483   4.847  13.185  0.00  0.00    +0.000 A 
ATOM     10  F   UNL     1       8.511   5.470  13.782  0.00  0.00    +0.000 F 
ATOM     11  C   UNL     1       6.502   4.233  13.964  0.00  0.00    +0.000 A 
ATOM     12  C   UNL     1       5.437   3.585  13.330  0.00  0.00    +0.000 A 
ENDBRANCH   1  11
BRANCH   2  13
ATOM     13  C   UNL     1       6.363   5.234  17.536  0.00  0.00    +0.000 A 
ATOM     14  C   UNL     1       7.481   5.548  18.287  0.00  0.00    +0.000 A 
ATOM     15  N   UNL     1       7.210   5.534  19.624  0.00  0.00    +0.000 NA
ATOM     16  C   UNL     1       5.940   5.204  19.705  0.00  0.00    +0.000 A 
ATOM     17  N   UNL     1       5.386   4.921  18.474  0.00  0.00    +0.000 N 
BRANCH  17  18
ATOM     18  C   UNL     1       4.098   4.355  18.269  0.00  0.00    +0.000 A 
ATOM     19  C   UNL     1       2.988   5.188  18.063  0.00  0.00    +0.000 A 
ATOM     20  C   UNL     1       1.725   4.632  17.860  0.00  0.00    +0.000 A 
ATOM     21  C   UNL     1       1.553   3.247  17.900  0.00  0.00    +0.000 A 
ATOM     22  C   UNL     1       2.645   2.420  18.146  0.00  0.00    +0.000 A 
ATOM     23  C   UNL     1       3.917   2.967  18.325  0.00  0.00    +0.000 A 
ENDBRANCH  17  18
ENDBRANCH   2  13
TORSDOF 3
ENDMDL
MODEL 5
REMARK VINA RESULT:      -7.3      2.169      3.917
REMARK  Name = 
REMARK  4 active torsions:
REMARK  status: ('A' for Active; 'I' for Inactive)
REMARK    1  A    between atoms: C_1  and  C_2
REMARK    2  A    between atoms: C_7  and  N_8
REMARK    3  A    between atoms: C_9  and  C_11
REMARK    4  A    between atoms: N_15  and  C_16
REMARK                            x       y       z     vdW  Elec       q    Type
REMARK                         _______ _______ _______ _____ _____    ______ ____
ROOT
ATOM      1  N   UNL     1       3.035   6.484  17.660  0.00  0.00    +0.000 N 
ATOM      2  C   UNL     1       4.369   6.618  17.321  0.00  0.00    +0.000 C 
ATOM      3  O   UNL     1       5.092   7.516  17.743  0.00  0.00    +0.000 OA
ATOM      4  H   UNL     1       2.636   5.555  17.592  0.00  0.00    +0.000 HD
ENDROOT
BRANCH   1  11
ATOM      5  C   UNL     1       0.709  10.809  18.488  0.00  0.00    +0.000 C 
ATOM      6  C   UNL     1       1.256   9.501  18.982  0.00  0.00    +0.000 A 
ATOM      7  C   UNL     1       1.116   9.123  20.325  0.00  0.00    +0.000 A 
ATOM      8  C   UNL     1       1.575   7.878  20.758  0.00  0.00    +0.000 A 
ATOM      9  C   UNL     1       2.167   7.009  19.847  0.00  0.00    +0.000 A 
ATOM     10  F   UNL     1       2.611   5.815  20.273  0.00  0.00    +0.000 F 
ATOM     11  C   UNL     1       2.369   7.386  18.520  0.00  0.00    +0.000 A 
ATOM     12  C   UNL     1       1.904   8.633  18.089  0.00  0.00    +0.000 A 
ENDBRANCH   1  11
BRANCH   2  13
ATOM     13  C   UNL     1       4.869   5.576  16.457  0.00  0.00    +0.000 A 
ATOM     14  C   UNL     1       5.634   5.707  15.312  0.00  0.00    +0.000 A 
ATOM     15  N   UNL     1       6.142   4.506  14.908  0.00  0.00    +0.000 NA
ATOM     16  C   UNL     1       5.690   3.638  15.784  0.00  0.00    +0.000 A 
ATOM     17  N   UNL     1       4.837   4.209  16.705  0.00  0.00    +0.000 N 
BRANCH  17  18
ATOM     18  C   UNL     1       4.051   3.489  17.645  0.00  0.00    +0.000 A 
ATOM     19  C   UNL     1       2.778   3.020  17.287  0.00  0.00    +0.000 A 
ATOM     20  C   UNL     1       2.008   2.312  18.210  0.00  0.00    +0.000 A 
ATOM     21  C   UNL     1       2.485   2.100  19.506  0.00  0.00    +0.000 A 
ATOM     22  C   UNL     1       3.729   2.599  19.877  0.00  0.00    +0.000 A 
ATOM     23  C   UNL     1       4.517   3.287  18.952  0.00  0.00    +0.000 A 
ENDBRANCH  17  18
ENDBRANCH   2  13
TORSDOF 3
ENDMDL
MODEL 6
REMARK VINA RESULT:      -7.2      2.162      3.780
REMARK  Name = 
REMARK  4 active torsions:
REMARK  status: ('A' for Active; 'I' for Inactive)
REMARK    1  A    between atoms: C_1  and  C_2
REMARK    2  A    between atoms: C_7  and  N_8
REMARK    3  A    between atoms: C_9  and  C_11
REMARK    4  A    between atoms: N_15  and  C_16
REMARK                            x       y       z     vdW  Elec       q    Type
REMARK                         _______ _______ _______ _____ _____    ______ ____
ROOT
ATOM      1  N   UNL     1       3.006   6.508  17.702  0.00  0.00    +0.000 N 
ATOM      2  C   UNL     1       4.334   6.646  17.342  0.00  0.00    +0.000 C 
ATOM      3  O   UNL     1       5.056   7.556  17.739  0.00  0.00    +0.000 OA
ATOM      4  H   UNL     1       2.613   5.575  17.657  0.00  0.00    +0.000 HD
ENDROOT
BRANCH   1  11
ATOM      5  C   UNL     1       0.724  10.861  18.503  0.00  0.00    +0.000 C 
ATOM      6  C   UNL     1       1.253   9.549  19.005  0.00  0.00    +0.000 A 
ATOM      7  C   UNL     1       1.102   9.177  20.348  0.00  0.00    +0.000 A 
ATOM      8  C   UNL     1       1.545   7.928  20.788  0.00  0.00    +0.000 A 
ATOM      9  C   UNL     1       2.132   7.050  19.883  0.00  0.00    +0.000 A 
ATOM     10  F   UNL     1       2.561   5.853  20.316  0.00  0.00    +0.000 F 
ATOM     11  C   UNL     1       2.346   7.420  18.556  0.00  0.00    +0.000 A 
ATOM     12  C   UNL     1       1.896   8.670  18.118  0.00  0.00    +0.000 A 
ENDBRANCH   1  11
BRANCH   2  13
ATOM     13  C   UNL     1       4.830   5.592  16.490  0.00  0.00    +0.000 A 
ATOM     14  C   UNL     1       5.604   5.706  15.350  0.00  0.00    +0.000 A 
ATOM     15  N   UNL     1       6.103   4.497  14.958  0.00  0.00    +0.000 NA
ATOM     16  C   UNL     1       5.636   3.641  15.838  0.00  0.00    +0.000 A 
ATOM     17  N   UNL     1       4.781   4.227  16.748  0.00  0.00    +0.000 N 
BRANCH  17  18
ATOM     18  C   UNL     1       3.981   3.522  17.688  0.00  0.00    +0.000 A 
ATOM     19  C   UNL     1       4.465   3.280  18.983  0.00  0.00    +0.000 A 
ATOM     20  C   UNL     1       3.678   2.590  19.905  0.00  0.00    +0.000 A 
ATOM     21  C   UNL     1       2.423   2.104  19.533  0.00  0.00    +0.000 A 
ATOM     22  C   UNL     1       1.958   2.306  18.237  0.00  0.00    +0.000 A 
ATOM     23  C   UNL     1       2.728   3.017  17.315  0.00  0.00    +0.000 A 
ENDBRANCH  17  18
ENDBRANCH   2  13
TORSDOF 3
ENDMDL
MODEL 7
REMARK VINA RESULT:      -7.0      1.602      2.116
REMARK  Name = 
REMARK  4 active torsions:
REMARK  status: ('A' for Active; 'I' for Inactive)
REMARK    1  A    between atoms: C_1  and  C_2
REMARK    2  A    between atoms: C_7  and  N_8
REMARK    3  A    between atoms: C_9  and  C_11
REMARK    4  A    between atoms: N_15  and  C_16
REMARK                            x       y       z     vdW  Elec       q    Type
REMARK                         _______ _______ _______ _____ _____    ______ ____
ROOT
ATOM      1  N   UNL     1       2.396   6.616  18.899  0.00  0.00    +0.000 N 
ATOM      2  C   UNL     1       2.648   5.502  19.680  0.00  0.00    +0.000 C 
ATOM      3  O   UNL     1       2.431   5.455  20.887  0.00  0.00    +0.000 OA
ATOM      4  H   UNL     1       2.238   6.456  17.910  0.00  0.00    +0.000 HD
ENDROOT
BRANCH   1  11
ATOM      5  C   UNL     1       0.616   9.304  22.694  0.00  0.00    +0.000 C 
ATOM      6  C   UNL     1       0.967   9.162  21.241  0.00  0.00    +0.000 A 
ATOM      7  C   UNL     1       0.794  10.231  20.351  0.00  0.00    +0.000 A 
ATOM      8  C   UNL     1       1.180  10.105  19.015  0.00  0.00    +0.000 A 
ATOM      9  C   UNL     1       1.746   8.914  18.573  0.00  0.00    +0.000 A 
ATOM     10  F   UNL     1       2.109   8.800  17.285  0.00  0.00    +0.000 F 
ATOM     11  C   UNL     1       1.874   7.818  19.426  0.00  0.00    +0.000 A 
ATOM     12  C   UNL     1       1.490   7.949  20.764  0.00  0.00    +0.000 A 
ENDBRANCH   1  11
BRANCH   2  13
ATOM     13  C   UNL     1       3.149   4.364  18.947  0.00  0.00    +0.000 A 
ATOM     14  C   UNL     1       2.519   3.157  18.707  0.00  0.00    +0.000 A 
ATOM     15  N   UNL     1       3.177   2.426  17.760  0.00  0.00    +0.000 NA
ATOM     16  C   UNL     1       4.210   3.166  17.424  0.00  0.00    +0.000 A 
ATOM     17  N   UNL     1       4.301   4.321  18.172  0.00  0.00    +0.000 N 
BRANCH  17  18
ATOM     18  C   UNL     1       5.409   5.211  18.165  0.00  0.00    +0.000 A 
ATOM     19  C   UNL     1       5.497   6.219  17.193  0.00  0.00    +0.000 A 
ATOM     20  C   UNL     1       6.583   7.094  17.189  0.00  0.00    +0.000 A 
ATOM     21  C   UNL     1       7.607   6.947  18.127  0.00  0.00    +0.000 A 
ATOM     22  C   UNL     1       7.543   5.923  19.067  0.00  0.00    +0.000 A 
ATOM     23  C   UNL     1       6.447   5.058  19.094  0.00  0.00    +0.000 A 
ENDBRANCH  17  18
ENDBRANCH   2  13
TORSDOF 3
ENDMDL
MODEL 8
REMARK VINA RESULT:      -7.0      1.582      1.903
REMARK  Name = 
REMARK  4 active torsions:
REMARK  status: ('A' for Active; 'I' for Inactive)
REMARK    1  A    between atoms: C_1  and  C_2
REMARK    2  A    between atoms: C_7  and  N_8
REMARK    3  A    between atoms: C_9  and  C_11
REMARK    4  A    between atoms: N_15  and  C_16
REMARK                            x       y       z     vdW  Elec       q    Type
REMARK                         _______ _______ _______ _____ _____    ______ ____
ROOT
ATOM      1  N   UNL     1       2.349   6.552  18.913  0.00  0.00    +0.000 N 
ATOM      2  C   UNL     1       2.611   5.454  19.712  0.00  0.00    +0.000 C 
ATOM      3  O   UNL     1       2.420   5.435  20.924  0.00  0.00    +0.000 OA
ATOM      4  H   UNL     1       2.168   6.372  17.931  0.00  0.00    +0.000 HD
ENDROOT
BRANCH   1  11
ATOM      5  C   UNL     1       0.566   9.302  22.662  0.00  0.00    +0.000 C 
ATOM      6  C   UNL     1       0.942   9.145  21.217  0.00  0.00    +0.000 A 
ATOM      7  C   UNL     1       0.815  10.215  20.320  0.00  0.00    +0.000 A 
ATOM      8  C   UNL     1       1.224  10.073  18.992  0.00  0.00    +0.000 A 
ATOM      9  C   UNL     1       1.766   8.866  18.565  0.00  0.00    +0.000 A 
ATOM     10  F   UNL     1       2.152   8.736  17.286  0.00  0.00    +0.000 F 
ATOM     11  C   UNL     1       1.849   7.770  19.425  0.00  0.00    +0.000 A 
ATOM     12  C   UNL     1       1.442   7.917  20.754  0.00  0.00    +0.000 A 
ENDBRANCH   1  11
BRANCH   2  13
ATOM     13  C   UNL     1       3.085   4.297  18.993  0.00  0.00    +0.000 A 
ATOM     14  C   UNL     1       2.440   3.090  18.793  0.00  0.00    +0.000 A 
ATOM     15  N   UNL     1       3.072   2.333  17.849  0.00  0.00    +0.000 NA
ATOM     16  C   UNL     1       4.102   3.056  17.474  0.00  0.00    +0.000 A 
ATOM     17  N   UNL     1       4.220   4.226  18.194  0.00  0.00    +0.000 N 
BRANCH  17  18
ATOM     18  C   UNL     1       5.334   5.107  18.143  0.00  0.00    +0.000 A 
ATOM     19  C   UNL     1       6.359   5.002  19.096  0.00  0.00    +0.000 A 
ATOM     20  C   UNL     1       7.453   5.865  19.044  0.00  0.00    +0.000 A 
ATOM     21  C   UNL     1       7.515   6.863  18.068  0.00  0.00    +0.000 A 
ATOM     22  C   UNL     1       6.481   6.997  17.148  0.00  0.00    +0.000 A 
ATOM     23  C   UNL     1       5.393   6.121  17.177  0.00  0.00    +0.000 A 
ENDBRANCH  17  18
ENDBRANCH   2  13
TORSDOF 3
ENDMDL
MODEL 9
REMARK VINA RESULT:      -6.9      2.373      4.229
REMARK  Name = 
REMARK  4 active torsions:
REMARK  status: ('A' for Active; 'I' for Inactive)
REMARK    1  A    between atoms: C_1  and  C_2
REMARK    2  A    between atoms: C_7  and  N_8
REMARK    3  A    between atoms: C_9  and  C_11
REMARK    4  A    between atoms: N_15  and  C_16
REMARK                            x       y       z     vdW  Elec       q    Type
REMARK                         _______ _______ _______ _____ _____    ______ ____
ROOT
ATOM      1  N   UNL     1       1.723   8.854  17.655  0.00  0.00    +0.000 N 
ATOM      2  C   UNL     1       2.241   7.963  18.578  0.00  0.00    +0.000 C 
ATOM      3  O   UNL     1       1.857   7.890  19.742  0.00  0.00    +0.000 OA
ATOM      4  H   UNL     1       1.806   8.600  16.677  0.00  0.00    +0.000 HD
ENDROOT
BRANCH   1  11
ATOM      5  C   UNL     1      -3.077  10.171  17.833  0.00  0.00    +0.000 C 
ATOM      6  C   UNL     1      -1.624  10.484  18.049  0.00  0.00    +0.000 A 
ATOM      7  C   UNL     1      -1.225  11.715  18.587  0.00  0.00    +0.000 A 
ATOM      8  C   UNL     1       0.124  11.970  18.839  0.00  0.00    +0.000 A 
ATOM      9  C   UNL     1       1.072  10.991  18.561  0.00  0.00    +0.000 A 
ATOM     10  F   UNL     1       2.368  11.246  18.802  0.00  0.00    +0.000 F 
ATOM     11  C   UNL     1       0.705   9.781  17.973  0.00  0.00    +0.000 A 
ATOM     12  C   UNL     1      -0.648   9.528  17.725  0.00  0.00    +0.000 A 
ENDBRANCH   1  11
BRANCH   2  13
ATOM     13  C   UNL     1       3.249   7.078  18.047  0.00  0.00    +0.000 A 
ATOM     14  C   UNL     1       4.308   7.389  17.214  0.00  0.00    +0.000 A 
ATOM     15  N   UNL     1       5.203   6.361  17.133  0.00  0.00    +0.000 NA
ATOM     16  C   UNL     1       4.700   5.419  17.898  0.00  0.00    +0.000 A 
ATOM     17  N   UNL     1       3.467   5.756  18.416  0.00  0.00    +0.000 N 
BRANCH  17  18
ATOM     18  C   UNL     1       2.604   4.868  19.114  0.00  0.00    +0.000 A 
ATOM     19  C   UNL     1       2.720   4.721  20.504  0.00  0.00    +0.000 A 
ATOM     20  C   UNL     1       1.872   3.851  21.189  0.00  0.00    +0.000 A 
ATOM     21  C   UNL     1       0.930   3.094  20.489  0.00  0.00    +0.000 A 
ATOM     22  C   UNL     1       0.840   3.206  19.106  0.00  0.00    +0.000 A 
ATOM     23  C   UNL     1       1.669   4.093  18.415  0.00  0.00    +0.000 A 
ENDBRANCH  17  18
ENDBRANCH   2  13
TORSDOF 3
ENDMDL
