MODEL 1
REMARK VINA RESULT:      -6.9      0.000      0.000
REMARK  Name = 
REMARK  5 active torsions:
REMARK  status: ('A' for Active; 'I' for Inactive)
REMARK    1  A    between atoms: C_1  and  C_2
REMARK    2  A    between atoms: C_2  and  C_4
REMARK    3  A    between atoms: C_9  and  O_10
REMARK    4  A    between atoms: O_10  and  C_11
REMARK    5  A    between atoms: C_11  and  C_13
REMARK                            x       y       z     vdW  Elec       q    Type
REMARK                         _______ _______ _______ _____ _____    ______ ____
ROOT
ATOM      1  C   UNL     1       2.202   4.016  19.279  0.00  0.00    +0.000 A 
ATOM      2  C   UNL     1       1.214   3.975  20.278  0.00  0.00    +0.000 A 
ATOM      3  C   UNL     1       1.395   3.217  21.436  0.00  0.00    +0.000 A 
ATOM      4  C   UNL     1       2.561   2.475  21.603  0.00  0.00    +0.000 A 
ATOM      5  C   UNL     1       3.546   2.499  20.619  0.00  0.00    +0.000 A 
ATOM      6  C   UNL     1       3.384   3.286  19.468  0.00  0.00    +0.000 A 
ENDROOT
BRANCH   1   8
ATOM      7  C   UNL     1       2.415   6.191  17.886  0.00  0.00    +0.000 C 
ATOM      8  C   UNL     1       1.872   4.800  18.056  0.00  0.00    +0.000 C 
ATOM      9  O   UNL     1       1.143   4.300  17.203  0.00  0.00    +0.000 OA
ENDBRANCH   1   8
BRANCH   6  10
ATOM     10  O   UNL     1       4.343   3.189  18.440  0.00  0.00    +0.000 OA
BRANCH  10  11
ATOM     11  C   UNL     1       5.393   4.119  18.444  0.00  0.00    +0.000 C 
ATOM     12  O   UNL     1       5.862   4.635  19.452  0.00  0.00    +0.000 OA
BRANCH  11  13
ATOM     13  C   UNL     1       5.849   4.323  17.088  0.00  0.00    +0.000 A 
ATOM     14  C   UNL     1       7.083   4.647  16.550  0.00  0.00    +0.000 A 
ATOM     15  C   UNL     1       6.908   4.756  15.149  0.00  0.00    +0.000 A 
ATOM     16  C   UNL     1       5.579   4.501  14.910  0.00  0.00    +0.000 A 
ATOM     17  O   UNL     1       4.931   4.235  16.073  0.00  0.00    +0.000 OA
ENDBRANCH  11  13
ENDBRANCH  10  11
ENDBRANCH   6  10
TORSDOF 4
ENDMDL
MODEL 2
REMARK VINA RESULT:      -6.8      1.594      5.672
REMARK  Name = 
REMARK  5 active torsions:
REMARK  status: ('A' for Active; 'I' for Inactive)
REMARK    1  A    between atoms: C_1  and  C_2
REMARK    2  A    between atoms: C_2  and  C_4
REMARK    3  A    between atoms: C_9  and  O_10
REMARK    4  A    between atoms: O_10  and  C_11
REMARK    5  A    between atoms: C_11  and  C_13
REMARK                            x       y       z     vdW  Elec       q    Type
REMARK                         _______ _______ _______ _____ _____    ______ ____
ROOT
ATOM      1  C   UNL     1       6.672   5.651  16.918  0.00  0.00    +0.000 A 
ATOM      2  C   UNL     1       7.340   5.305  15.731  0.00  0.00    +0.000 A 
ATOM      3  C   UNL     1       6.727   4.496  14.772  0.00  0.00    +0.000 A 
ATOM      4  C   UNL     1       5.443   4.007  14.996  0.00  0.00    +0.000 A 
ATOM      5  C   UNL     1       4.771   4.335  16.171  0.00  0.00    +0.000 A 
ATOM      6  C   UNL     1       5.369   5.176  17.123  0.00  0.00    +0.000 A 
ENDROOT
BRANCH   1   8
ATOM      7  C   UNL     1       7.728   7.910  17.624  0.00  0.00    +0.000 C 
ATOM      8  C   UNL     1       7.447   6.460  17.900  0.00  0.00    +0.000 C 
ATOM      9  O   UNL     1       7.863   5.922  18.923  0.00  0.00    +0.000 OA
ENDBRANCH   1   8
BRANCH   6  10
ATOM     10  O   UNL     1       4.711   5.385  18.351  0.00  0.00    +0.000 OA
BRANCH  10  11
ATOM     11  C   UNL     1       4.562   4.280  19.203  0.00  0.00    +0.000 C 
ATOM     12  O   UNL     1       5.484   3.576  19.598  0.00  0.00    +0.000 OA
BRANCH  11  13
ATOM     13  C   UNL     1       3.170   4.146  19.565  0.00  0.00    +0.000 A 
ATOM     14  C   UNL     1       2.445   4.540  20.676  0.00  0.00    +0.000 A 
ATOM     15  C   UNL     1       1.116   4.090  20.485  0.00  0.00    +0.000 A 
ATOM     16  C   UNL     1       1.104   3.440  19.275  0.00  0.00    +0.000 A 
ATOM     17  O   UNL     1       2.338   3.470  18.708  0.00  0.00    +0.000 OA
ENDBRANCH  11  13
ENDBRANCH  10  11
ENDBRANCH   6  10
TORSDOF 4
ENDMDL
MODEL 3
REMARK VINA RESULT:      -6.8      1.810      5.377
REMARK  Name = 
REMARK  5 active torsions:
REMARK  status: ('A' for Active; 'I' for Inactive)
REMARK    1  A    between atoms: C_1  and  C_2
REMARK    2  A    between atoms: C_2  and  C_4
REMARK    3  A    between atoms: C_9  and  O_10
REMARK    4  A    between atoms: O_10  and  C_11
REMARK    5  A    between atoms: C_11  and  C_13
REMARK                            x       y       z     vdW  Elec       q    Type
REMARK                         _______ _______ _______ _____ _____    ______ ____
ROOT
ATOM      1  C   UNL     1       4.731   4.237  17.753  0.00  0.00    +0.000 A 
ATOM      2  C   UNL     1       5.080   4.066  16.402  0.00  0.00    +0.000 A 
ATOM      3  C   UNL     1       5.284   5.168  15.568  0.00  0.00    +0.000 A 
ATOM      4  C   UNL     1       5.123   6.456  16.070  0.00  0.00    +0.000 A 
ATOM      5  C   UNL     1       4.770   6.642  17.405  0.00  0.00    +0.000 A 
ATOM      6  C   UNL     1       4.598   5.539  18.256  0.00  0.00    +0.000 A 
ENDROOT
BRANCH   1   8
ATOM      7  C   UNL     1       3.553   1.940  17.975  0.00  0.00    +0.000 C 
ATOM      8  C   UNL     1       4.470   2.994  18.530  0.00  0.00    +0.000 C 
ATOM      9  O   UNL     1       5.000   2.851  19.629  0.00  0.00    +0.000 OA
ENDBRANCH   1   8
BRANCH   6  10
ATOM     10  O   UNL     1       4.121   5.761  19.564  0.00  0.00    +0.000 OA
BRANCH  10  11
ATOM     11  C   UNL     1       2.753   6.028  19.718  0.00  0.00    +0.000 C 
ATOM     12  O   UNL     1       2.221   7.102  19.467  0.00  0.00    +0.000 OA
BRANCH  11  13
ATOM     13  C   UNL     1       2.085   4.829  20.169  0.00  0.00    +0.000 A 
ATOM     14  C   UNL     1       2.156   4.097  21.343  0.00  0.00    +0.000 A 
ATOM     15  C   UNL     1       1.294   2.984  21.190  0.00  0.00    +0.000 A 
ATOM     16  C   UNL     1       0.752   3.092  19.932  0.00  0.00    +0.000 A 
ATOM     17  O   UNL     1       1.219   4.203  19.307  0.00  0.00    +0.000 OA
ENDBRANCH  11  13
ENDBRANCH  10  11
ENDBRANCH   6  10
TORSDOF 4
ENDMDL
MODEL 4
REMARK VINA RESULT:      -6.8      1.641      5.315
REMARK  Name = 
REMARK  5 active torsions:
REMARK  status: ('A' for Active; 'I' for Inactive)
REMARK    1  A    between atoms: C_1  and  C_2
REMARK    2  A    between atoms: C_2  and  C_4
REMARK    3  A    between atoms: C_9  and  O_10
REMARK    4  A    between atoms: O_10  and  C_11
REMARK    5  A    between atoms: C_11  and  C_13
REMARK                            x       y       z     vdW  Elec       q    Type
REMARK                         _______ _______ _______ _____ _____    ______ ____
ROOT
ATOM      1  C   UNL     1       5.971   5.631  16.942  0.00  0.00    +0.000 A 
ATOM      2  C   UNL     1       7.257   6.142  17.192  0.00  0.00    +0.000 A 
ATOM      3  C   UNL     1       7.795   6.134  18.480  0.00  0.00    +0.000 A 
ATOM      4  C   UNL     1       7.047   5.632  19.541  0.00  0.00    +0.000 A 
ATOM      5  C   UNL     1       5.768   5.129  19.311  0.00  0.00    +0.000 A 
ATOM      6  C   UNL     1       5.235   5.103  18.013  0.00  0.00    +0.000 A 
ENDROOT
BRANCH   1   8
ATOM      7  C   UNL     1       5.470   4.555  14.638  0.00  0.00    +0.000 C 
ATOM      8  C   UNL     1       5.472   5.754  15.545  0.00  0.00    +0.000 C 
ATOM      9  O   UNL     1       5.078   6.847  15.143  0.00  0.00    +0.000 OA
ENDBRANCH   1   8
BRANCH   6  10
ATOM     10  O   UNL     1       3.896   4.703  17.837  0.00  0.00    +0.000 OA
BRANCH  10  11
ATOM     11  C   UNL     1       3.578   3.365  18.112  0.00  0.00    +0.000 C 
ATOM     12  O   UNL     1       3.985   2.406  17.466  0.00  0.00    +0.000 OA
BRANCH  11  13
ATOM     13  C   UNL     1       2.744   3.309  19.290  0.00  0.00    +0.000 A 
ATOM     14  C   UNL     1       1.454   3.740  19.552  0.00  0.00    +0.000 A 
ATOM     15  C   UNL     1       1.188   3.447  20.911  0.00  0.00    +0.000 A 
ATOM     16  C   UNL     1       2.329   2.864  21.407  0.00  0.00    +0.000 A 
ATOM     17  O   UNL     1       3.274   2.771  20.436  0.00  0.00    +0.000 OA
ENDBRANCH  11  13
ENDBRANCH  10  11
ENDBRANCH   6  10
TORSDOF 4
ENDMDL
MODEL 5
REMARK VINA RESULT:      -6.7      1.816      5.741
REMARK  Name = 
REMARK  5 active torsions:
REMARK  status: ('A' for Active; 'I' for Inactive)
REMARK    1  A    between atoms: C_1  and  C_2
REMARK    2  A    between atoms: C_2  and  C_4
REMARK    3  A    between atoms: C_9  and  O_10
REMARK    4  A    between atoms: O_10  and  C_11
REMARK    5  A    between atoms: C_11  and  C_13
REMARK                            x       y       z     vdW  Elec       q    Type
REMARK                         _______ _______ _______ _____ _____    ______ ____
ROOT
ATOM      1  C   UNL     1       6.698   5.293  17.798  0.00  0.00    +0.000 A 
ATOM      2  C   UNL     1       7.214   4.915  16.546  0.00  0.00    +0.000 A 
ATOM      3  C   UNL     1       6.417   4.245  15.615  0.00  0.00    +0.000 A 
ATOM      4  C   UNL     1       5.099   3.929  15.930  0.00  0.00    +0.000 A 
ATOM      5  C   UNL     1       4.576   4.290  17.169  0.00  0.00    +0.000 A 
ATOM      6  C   UNL     1       5.361   4.994  18.096  0.00  0.00    +0.000 A 
ENDROOT
BRANCH   1   8
ATOM      7  C   UNL     1       8.130   7.342  18.482  0.00  0.00    +0.000 C 
ATOM      8  C   UNL     1       7.656   5.939  18.738  0.00  0.00    +0.000 C 
ATOM      9  O   UNL     1       8.059   5.306  19.711  0.00  0.00    +0.000 OA
ENDBRANCH   1   8
BRANCH   6  10
ATOM     10  O   UNL     1       4.839   5.233  19.383  0.00  0.00    +0.000 OA
BRANCH  10  11
ATOM     11  C   UNL     1       3.499   5.636  19.474  0.00  0.00    +0.000 C 
ATOM     12  O   UNL     1       3.058   6.692  19.037  0.00  0.00    +0.000 OA
BRANCH  11  13
ATOM     13  C   UNL     1       2.733   4.592  20.116  0.00  0.00    +0.000 A 
ATOM     14  C   UNL     1       1.419   4.517  20.544  0.00  0.00    +0.000 A 
ATOM     15  C   UNL     1       1.251   3.246  21.145  0.00  0.00    +0.000 A 
ATOM     16  C   UNL     1       2.471   2.619  21.060  0.00  0.00    +0.000 A 
ATOM     17  O   UNL     1       3.373   3.421  20.437  0.00  0.00    +0.000 OA
ENDBRANCH  11  13
ENDBRANCH  10  11
ENDBRANCH   6  10
TORSDOF 4
ENDMDL
MODEL 6
REMARK VINA RESULT:      -6.6      1.612      5.785
REMARK  Name = 
REMARK  5 active torsions:
REMARK  status: ('A' for Active; 'I' for Inactive)
REMARK    1  A    between atoms: C_1  and  C_2
REMARK    2  A    between atoms: C_2  and  C_4
REMARK    3  A    between atoms: C_9  and  O_10
REMARK    4  A    between atoms: O_10  and  C_11
REMARK    5  A    between atoms: C_11  and  C_13
REMARK                            x       y       z     vdW  Elec       q    Type
REMARK                         _______ _______ _______ _____ _____    ______ ____
ROOT
ATOM      1  C   UNL     1       6.747   5.116  16.927  0.00  0.00    +0.000 A 
ATOM      2  C   UNL     1       7.400   5.069  15.683  0.00  0.00    +0.000 A 
ATOM      3  C   UNL     1       6.753   4.570  14.551  0.00  0.00    +0.000 A 
ATOM      4  C   UNL     1       5.449   4.093  14.652  0.00  0.00    +0.000 A 
ATOM      5  C   UNL     1       4.791   4.126  15.879  0.00  0.00    +0.000 A 
ATOM      6  C   UNL     1       5.424   4.658  17.013  0.00  0.00    +0.000 A 
ENDROOT
BRANCH   1   8
ATOM      7  C   UNL     1       7.837   7.071  18.234  0.00  0.00    +0.000 C 
ATOM      8  C   UNL     1       7.556   5.602  18.079  0.00  0.00    +0.000 C 
ATOM      9  O   UNL     1       7.999   4.789  18.886  0.00  0.00    +0.000 OA
ENDBRANCH   1   8
BRANCH   6  10
ATOM     10  O   UNL     1       4.775   4.562  18.260  0.00  0.00    +0.000 OA
BRANCH  10  11
ATOM     11  C   UNL     1       3.729   5.459  18.517  0.00  0.00    +0.000 C 
ATOM     12  O   UNL     1       3.736   6.644  18.207  0.00  0.00    +0.000 OA
BRANCH  11  13
ATOM     13  C   UNL     1       2.643   4.750  19.155  0.00  0.00    +0.000 A 
ATOM     14  C   UNL     1       1.866   5.023  20.268  0.00  0.00    +0.000 A 
ATOM     15  C   UNL     1       0.982   3.930  20.434  0.00  0.00    +0.000 A 
ATOM     16  C   UNL     1       1.272   3.047  19.421  0.00  0.00    +0.000 A 
ATOM     17  O   UNL     1       2.271   3.533  18.641  0.00  0.00    +0.000 OA
ENDBRANCH  11  13
ENDBRANCH  10  11
ENDBRANCH   6  10
TORSDOF 4
ENDMDL
MODEL 7
REMARK VINA RESULT:      -6.6      1.959      5.265
REMARK  Name = 
REMARK  5 active torsions:
REMARK  status: ('A' for Active; 'I' for Inactive)
REMARK    1  A    between atoms: C_1  and  C_2
REMARK    2  A    between atoms: C_2  and  C_4
REMARK    3  A    between atoms: C_9  and  O_10
REMARK    4  A    between atoms: O_10  and  C_11
REMARK    5  A    between atoms: C_11  and  C_13
REMARK                            x       y       z     vdW  Elec       q    Type
REMARK                         _______ _______ _______ _____ _____    ______ ____
ROOT
ATOM      1  C   UNL     1       3.900   4.274  17.251  0.00  0.00    +0.000 A 
ATOM      2  C   UNL     1       5.120   4.063  16.586  0.00  0.00    +0.000 A 
ATOM      3  C   UNL     1       5.975   5.129  16.298  0.00  0.00    +0.000 A 
ATOM      4  C   UNL     1       5.612   6.425  16.656  0.00  0.00    +0.000 A 
ATOM      5  C   UNL     1       4.403   6.651  17.309  0.00  0.00    +0.000 A 
ATOM      6  C   UNL     1       3.555   5.579  17.631  0.00  0.00    +0.000 A 
ENDROOT
BRANCH   1   8
ATOM      7  C   UNL     1       3.531   1.918  18.265  0.00  0.00    +0.000 C 
ATOM      8  C   UNL     1       3.037   3.076  17.443  0.00  0.00    +0.000 C 
ATOM      9  O   UNL     1       1.930   3.043  16.911  0.00  0.00    +0.000 OA
ENDBRANCH   1   8
BRANCH   6  10
ATOM     10  O   UNL     1       2.288   5.859  18.179  0.00  0.00    +0.000 OA
BRANCH  10  11
ATOM     11  C   UNL     1       2.222   6.135  19.552  0.00  0.00    +0.000 C 
ATOM     12  O   UNL     1       2.309   7.255  20.042  0.00  0.00    +0.000 OA
BRANCH  11  13
ATOM     13  C   UNL     1       1.989   4.904  20.273  0.00  0.00    +0.000 A 
ATOM     14  C   UNL     1       2.695   4.249  21.267  0.00  0.00    +0.000 A 
ATOM     15  C   UNL     1       1.994   3.052  21.552  0.00  0.00    +0.000 A 
ATOM     16  C   UNL     1       0.907   3.038  20.712  0.00  0.00    +0.000 A 
ATOM     17  O   UNL     1       0.891   4.153  19.937  0.00  0.00    +0.000 OA
ENDBRANCH  11  13
ENDBRANCH  10  11
ENDBRANCH   6  10
TORSDOF 4
ENDMDL
MODEL 8
REMARK VINA RESULT:      -6.6      2.059      2.757
REMARK  Name = 
REMARK  5 active torsions:
REMARK  status: ('A' for Active; 'I' for Inactive)
REMARK    1  A    between atoms: C_1  and  C_2
REMARK    2  A    between atoms: C_2  and  C_4
REMARK    3  A    between atoms: C_9  and  O_10
REMARK    4  A    between atoms: O_10  and  C_11
REMARK    5  A    between atoms: C_11  and  C_13
REMARK                            x       y       z     vdW  Elec       q    Type
REMARK                         _______ _______ _______ _____ _____    ______ ____
ROOT
ATOM      1  C   UNL     1       2.388   3.706  18.729  0.00  0.00    +0.000 A 
ATOM      2  C   UNL     1       1.295   3.527  19.594  0.00  0.00    +0.000 A 
ATOM      3  C   UNL     1       0.959   4.500  20.537  0.00  0.00    +0.000 A 
ATOM      4  C   UNL     1       1.724   5.658  20.641  0.00  0.00    +0.000 A 
ATOM      5  C   UNL     1       2.815   5.846  19.796  0.00  0.00    +0.000 A 
ATOM      6  C   UNL     1       3.137   4.887  18.823  0.00  0.00    +0.000 A 
ENDROOT
BRANCH   1   8
ATOM      7  C   UNL     1       3.517   1.412  18.301  0.00  0.00    +0.000 C 
ATOM      8  C   UNL     1       2.697   2.573  17.812  0.00  0.00    +0.000 C 
ATOM      9  O   UNL     1       2.286   2.611  16.655  0.00  0.00    +0.000 OA
ENDBRANCH   1   8
BRANCH   6  10
ATOM     10  O   UNL     1       4.318   5.053  18.072  0.00  0.00    +0.000 OA
BRANCH  10  11
ATOM     11  C   UNL     1       5.536   4.785  18.712  0.00  0.00    +0.000 C 
ATOM     12  O   UNL     1       5.763   3.788  19.388  0.00  0.00    +0.000 OA
BRANCH  11  13
ATOM     13  C   UNL     1       6.475   5.840  18.406  0.00  0.00    +0.000 A 
ATOM     14  C   UNL     1       7.731   6.152  18.895  0.00  0.00    +0.000 A 
ATOM     15  C   UNL     1       8.149   7.336  18.240  0.00  0.00    +0.000 A 
ATOM     16  C   UNL     1       7.123   7.685  17.395  0.00  0.00    +0.000 A 
ATOM     17  O   UNL     1       6.108   6.788  17.484  0.00  0.00    +0.000 OA
ENDBRANCH  11  13
ENDBRANCH  10  11
ENDBRANCH   6  10
TORSDOF 4
ENDMDL
MODEL 9
REMARK VINA RESULT:      -6.6      1.563      5.126
REMARK  Name = 
REMARK  5 active torsions:
REMARK  status: ('A' for Active; 'I' for Inactive)
REMARK    1  A    between atoms: C_1  and  C_2
REMARK    2  A    between atoms: C_2  and  C_4
REMARK    3  A    between atoms: C_9  and  O_10
REMARK    4  A    between atoms: O_10  and  C_11
REMARK    5  A    between atoms: C_11  and  C_13
REMARK                            x       y       z     vdW  Elec       q    Type
REMARK                         _______ _______ _______ _____ _____    ______ ____
ROOT
ATOM      1  C   UNL     1       4.435   5.557  17.643  0.00  0.00    +0.000 A 
ATOM      2  C   UNL     1       5.661   6.220  17.461  0.00  0.00    +0.000 A 
ATOM      3  C   UNL     1       6.645   5.692  16.623  0.00  0.00    +0.000 A 
ATOM      4  C   UNL     1       6.423   4.484  15.969  0.00  0.00    +0.000 A 
ATOM      5  C   UNL     1       5.217   3.811  16.146  0.00  0.00    +0.000 A 
ATOM      6  C   UNL     1       4.211   4.353  16.960  0.00  0.00    +0.000 A 
ENDROOT
BRANCH   1   8
ATOM      7  C   UNL     1       2.471   7.174  18.138  0.00  0.00    +0.000 C 
ATOM      8  C   UNL     1       3.489   6.175  18.614  0.00  0.00    +0.000 C 
ATOM      9  O   UNL     1       3.562   5.867  19.801  0.00  0.00    +0.000 OA
ENDBRANCH   1   8
BRANCH   6  10
ATOM     10  O   UNL     1       3.056   3.586  17.213  0.00  0.00    +0.000 OA
BRANCH  10  11
ATOM     11  C   UNL     1       3.190   2.471  18.052  0.00  0.00    +0.000 C 
ATOM     12  O   UNL     1       3.818   1.458  17.769  0.00  0.00    +0.000 OA
BRANCH  11  13
ATOM     13  C   UNL     1       2.514   2.735  19.302  0.00  0.00    +0.000 A 
ATOM     14  C   UNL     1       1.242   3.189  19.606  0.00  0.00    +0.000 A 
ATOM     15  C   UNL     1       1.166   3.295  21.016  0.00  0.00    +0.000 A 
ATOM     16  C   UNL     1       2.395   2.909  21.494  0.00  0.00    +0.000 A 
ATOM     17  O   UNL     1       3.216   2.566  20.469  0.00  0.00    +0.000 OA
ENDBRANCH  11  13
ENDBRANCH  10  11
ENDBRANCH   6  10
TORSDOF 4
ENDMDL
