MODEL 1
REMARK VINA RESULT:      -5.6      0.000      0.000
REMARK  Name = 
REMARK  2 active torsions:
REMARK  status: ('A' for Active; 'I' for Inactive)
REMARK    1  A    between atoms: C_1  and  C_2
REMARK    2  A    between atoms: C_6  and  C_7
REMARK                            x       y       z     vdW  Elec       q    Type
REMARK                         _______ _______ _______ _____ _____    ______ ____
ROOT
ATOM      1  C   UNL     1       6.065   5.271  19.215  0.00  0.00    +0.000 C 
ATOM      2  C   UNL     1       6.056   4.926  17.758  0.00  0.00    +0.000 A 
ATOM      3  C   UNL     1       7.102   5.257  16.914  0.00  0.00    +0.000 A 
ATOM      4  S   UNL     1       6.867   4.731  15.312  0.00  0.00    +0.000 S 
ATOM      5  C   UNL     1       5.351   4.057  15.710  0.00  0.00    +0.000 A 
ATOM      6  C   UNL     1       5.012   4.210  17.045  0.00  0.00    +0.000 A 
ENDROOT
BRANCH   6   7
ATOM      7  C   UNL     1       3.739   3.686  17.551  0.00  0.00    +0.000 A 
ATOM      8  C   UNL     1       2.589   4.482  17.622  0.00  0.00    +0.000 A 
ATOM      9  C   UNL     1       1.400   3.960  18.130  0.00  0.00    +0.000 A 
ATOM     10  C   UNL     1       1.382   2.639  18.541  0.00  0.00    +0.000 A 
ATOM     11  N   UNL     1       2.462   1.833  18.494  0.00  0.00    +0.000 NA
ATOM     12  C   UNL     1       3.609   2.378  18.011  0.00  0.00    +0.000 A 
ENDBRANCH   6   7
TORSDOF 1
ENDMDL
MODEL 2
REMARK VINA RESULT:      -5.6      1.101      1.895
REMARK  Name = 
REMARK  2 active torsions:
REMARK  status: ('A' for Active; 'I' for Inactive)
REMARK    1  A    between atoms: C_1  and  C_2
REMARK    2  A    between atoms: C_6  and  C_7
REMARK                            x       y       z     vdW  Elec       q    Type
REMARK                         _______ _______ _______ _____ _____    ______ ____
ROOT
ATOM      1  C   UNL     1       5.565   4.005  15.308  0.00  0.00    +0.000 C 
ATOM      2  C   UNL     1       5.971   4.474  16.670  0.00  0.00    +0.000 A 
ATOM      3  C   UNL     1       7.192   5.084  16.908  0.00  0.00    +0.000 A 
ATOM      4  S   UNL     1       7.405   5.551  18.531  0.00  0.00    +0.000 S 
ATOM      5  C   UNL     1       5.871   4.939  18.955  0.00  0.00    +0.000 A 
ATOM      6  C   UNL     1       5.182   4.387  17.887  0.00  0.00    +0.000 A 
ENDROOT
BRANCH   6   7
ATOM      7  C   UNL     1       3.845   3.816  18.083  0.00  0.00    +0.000 A 
ATOM      8  C   UNL     1       2.684   4.537  17.784  0.00  0.00    +0.000 A 
ATOM      9  C   UNL     1       1.427   3.974  18.004  0.00  0.00    +0.000 A 
ATOM     10  C   UNL     1       1.360   2.687  18.505  0.00  0.00    +0.000 A 
ATOM     11  N   UNL     1       2.448   1.953  18.810  0.00  0.00    +0.000 NA
ATOM     12  C   UNL     1       3.657   2.537  18.601  0.00  0.00    +0.000 A 
ENDBRANCH   6   7
TORSDOF 1
ENDMDL
MODEL 3
REMARK VINA RESULT:      -5.5      2.936      4.974
REMARK  Name = 
REMARK  2 active torsions:
REMARK  status: ('A' for Active; 'I' for Inactive)
REMARK    1  A    between atoms: C_1  and  C_2
REMARK    2  A    between atoms: C_6  and  C_7
REMARK                            x       y       z     vdW  Elec       q    Type
REMARK                         _______ _______ _______ _____ _____    ______ ____
ROOT
ATOM      1  C   UNL     1       2.451   6.932  18.351  0.00  0.00    +0.000 C 
ATOM      2  C   UNL     1       2.810   5.511  18.043  0.00  0.00    +0.000 A 
ATOM      3  C   UNL     1       1.852   4.522  17.900  0.00  0.00    +0.000 A 
ATOM      4  S   UNL     1       2.511   2.998  17.524  0.00  0.00    +0.000 S 
ATOM      5  C   UNL     1       4.096   3.626  17.556  0.00  0.00    +0.000 A 
ATOM      6  C   UNL     1       4.147   4.982  17.838  0.00  0.00    +0.000 A 
ENDROOT
BRANCH   6   7
ATOM      7  C   UNL     1       5.437   5.677  17.902  0.00  0.00    +0.000 A 
ATOM      8  C   UNL     1       6.407   5.345  18.856  0.00  0.00    +0.000 A 
ATOM      9  C   UNL     1       7.615   6.041  18.906  0.00  0.00    +0.000 A 
ATOM     10  C   UNL     1       7.834   7.048  17.983  0.00  0.00    +0.000 A 
ATOM     11  N   UNL     1       6.932   7.404  17.047  0.00  0.00    +0.000 NA
ATOM     12  C   UNL     1       5.759   6.719  17.037  0.00  0.00    +0.000 A 
ENDBRANCH   6   7
TORSDOF 1
ENDMDL
MODEL 4
REMARK VINA RESULT:      -5.5      2.929      4.582
REMARK  Name = 
REMARK  2 active torsions:
REMARK  status: ('A' for Active; 'I' for Inactive)
REMARK    1  A    between atoms: C_1  and  C_2
REMARK    2  A    between atoms: C_6  and  C_7
REMARK                            x       y       z     vdW  Elec       q    Type
REMARK                         _______ _______ _______ _____ _____    ______ ____
ROOT
ATOM      1  C   UNL     1       2.843   6.431  18.217  0.00  0.00    +0.000 C 
ATOM      2  C   UNL     1       3.174   5.100  18.816  0.00  0.00    +0.000 A 
ATOM      3  C   UNL     1       2.462   4.570  19.879  0.00  0.00    +0.000 A 
ATOM      4  S   UNL     1       3.014   3.033  20.359  0.00  0.00    +0.000 S 
ATOM      5  C   UNL     1       4.227   3.046  19.161  0.00  0.00    +0.000 A 
ATOM      6  C   UNL     1       4.225   4.195  18.385  0.00  0.00    +0.000 A 
ENDROOT
BRANCH   6   7
ATOM      7  C   UNL     1       5.207   4.363  17.308  0.00  0.00    +0.000 A 
ATOM      8  C   UNL     1       4.850   4.244  15.960  0.00  0.00    +0.000 A 
ATOM      9  C   UNL     1       5.811   4.386  14.960  0.00  0.00    +0.000 A 
ATOM     10  C   UNL     1       7.114   4.664  15.333  0.00  0.00    +0.000 A 
ATOM     11  N   UNL     1       7.508   4.786  16.616  0.00  0.00    +0.000 NA
ATOM     12  C   UNL     1       6.550   4.624  17.567  0.00  0.00    +0.000 A 
ENDBRANCH   6   7
TORSDOF 1
ENDMDL
MODEL 5
REMARK VINA RESULT:      -5.5      2.880      4.695
REMARK  Name = 
REMARK  2 active torsions:
REMARK  status: ('A' for Active; 'I' for Inactive)
REMARK    1  A    between atoms: C_1  and  C_2
REMARK    2  A    between atoms: C_6  and  C_7
REMARK                            x       y       z     vdW  Elec       q    Type
REMARK                         _______ _______ _______ _____ _____    ______ ____
ROOT
ATOM      1  C   UNL     1       3.568   1.625  18.296  0.00  0.00    +0.000 C 
ATOM      2  C   UNL     1       3.408   3.000  18.864  0.00  0.00    +0.000 A 
ATOM      3  C   UNL     1       2.522   3.276  19.892  0.00  0.00    +0.000 A 
ATOM      4  S   UNL     1       2.546   4.907  20.380  0.00  0.00    +0.000 S 
ATOM      5  C   UNL     1       3.736   5.284  19.218  0.00  0.00    +0.000 A 
ATOM      6  C   UNL     1       4.133   4.193  18.461  0.00  0.00    +0.000 A 
ENDROOT
BRANCH   6   7
ATOM      7  C   UNL     1       5.151   4.347  17.416  0.00  0.00    +0.000 A 
ATOM      8  C   UNL     1       4.833   4.246  16.056  0.00  0.00    +0.000 A 
ATOM      9  C   UNL     1       5.828   4.375  15.087  0.00  0.00    +0.000 A 
ATOM     10  C   UNL     1       7.125   4.620  15.503  0.00  0.00    +0.000 A 
ATOM     11  N   UNL     1       7.481   4.724  16.799  0.00  0.00    +0.000 NA
ATOM     12  C   UNL     1       6.491   4.576  17.718  0.00  0.00    +0.000 A 
ENDBRANCH   6   7
TORSDOF 1
ENDMDL
MODEL 6
REMARK VINA RESULT:      -5.5      1.559      1.734
REMARK  Name = 
REMARK  2 active torsions:
REMARK  status: ('A' for Active; 'I' for Inactive)
REMARK    1  A    between atoms: C_1  and  C_2
REMARK    2  A    between atoms: C_6  and  C_7
REMARK                            x       y       z     vdW  Elec       q    Type
REMARK                         _______ _______ _______ _____ _____    ______ ____
ROOT
ATOM      1  C   UNL     1       3.464   7.151  17.859  0.00  0.00    +0.000 C 
ATOM      2  C   UNL     1       4.241   6.138  17.076  0.00  0.00    +0.000 A 
ATOM      3  C   UNL     1       5.184   6.502  16.131  0.00  0.00    +0.000 A 
ATOM      4  S   UNL     1       5.950   5.169  15.399  0.00  0.00    +0.000 S 
ATOM      5  C   UNL     1       5.027   4.074  16.325  0.00  0.00    +0.000 A 
ATOM      6  C   UNL     1       4.145   4.694  17.196  0.00  0.00    +0.000 A 
ENDROOT
BRANCH   6   7
ATOM      7  C   UNL     1       3.277   3.893  18.065  0.00  0.00    +0.000 A 
ATOM      8  C   UNL     1       1.921   3.698  17.776  0.00  0.00    +0.000 A 
ATOM      9  C   UNL     1       1.116   2.950  18.635  0.00  0.00    +0.000 A 
ATOM     10  C   UNL     1       1.694   2.396  19.763  0.00  0.00    +0.000 A 
ATOM     11  N   UNL     1       2.993   2.556  20.086  0.00  0.00    +0.000 NA
ATOM     12  C   UNL     1       3.745   3.304  19.237  0.00  0.00    +0.000 A 
ENDBRANCH   6   7
TORSDOF 1
ENDMDL
MODEL 7
REMARK VINA RESULT:      -5.5      2.682      4.719
REMARK  Name = 
REMARK  2 active torsions:
REMARK  status: ('A' for Active; 'I' for Inactive)
REMARK    1  A    between atoms: C_1  and  C_2
REMARK    2  A    between atoms: C_6  and  C_7
REMARK                            x       y       z     vdW  Elec       q    Type
REMARK                         _______ _______ _______ _____ _____    ______ ____
ROOT
ATOM      1  C   UNL     1       2.372   6.579  18.194  0.00  0.00    +0.000 C 
ATOM      2  C   UNL     1       2.741   5.138  18.018  0.00  0.00    +0.000 A 
ATOM      3  C   UNL     1       1.790   4.150  17.832  0.00  0.00    +0.000 A 
ATOM      4  S   UNL     1       2.463   2.599  17.629  0.00  0.00    +0.000 S 
ATOM      5  C   UNL     1       4.044   3.215  17.796  0.00  0.00    +0.000 A 
ATOM      6  C   UNL     1       4.084   4.586  17.996  0.00  0.00    +0.000 A 
ENDROOT
BRANCH   6   7
ATOM      7  C   UNL     1       5.370   5.274  18.158  0.00  0.00    +0.000 A 
ATOM      8  C   UNL     1       5.834   6.201  17.218  0.00  0.00    +0.000 A 
ATOM      9  C   UNL     1       7.072   6.821  17.389  0.00  0.00    +0.000 A 
ATOM     10  C   UNL     1       7.815   6.509  18.513  0.00  0.00    +0.000 A 
ATOM     11  N   UNL     1       7.413   5.623  19.445  0.00  0.00    +0.000 NA
ATOM     12  C   UNL     1       6.210   5.023  19.240  0.00  0.00    +0.000 A 
ENDBRANCH   6   7
TORSDOF 1
ENDMDL
MODEL 8
REMARK VINA RESULT:      -5.5      3.102      4.691
REMARK  Name = 
REMARK  2 active torsions:
REMARK  status: ('A' for Active; 'I' for Inactive)
REMARK    1  A    between atoms: C_1  and  C_2
REMARK    2  A    between atoms: C_6  and  C_7
REMARK                            x       y       z     vdW  Elec       q    Type
REMARK                         _______ _______ _______ _____ _____    ______ ____
ROOT
ATOM      1  C   UNL     1       3.421   7.470  17.652  0.00  0.00    +0.000 C 
ATOM      2  C   UNL     1       3.535   6.127  18.304  0.00  0.00    +0.000 A 
ATOM      3  C   UNL     1       2.801   5.787  19.427  0.00  0.00    +0.000 A 
ATOM      4  S   UNL     1       3.088   4.195  19.961  0.00  0.00    +0.000 S 
ATOM      5  C   UNL     1       4.210   3.929  18.705  0.00  0.00    +0.000 A 
ATOM      6  C   UNL     1       4.374   5.023  17.870  0.00  0.00    +0.000 A 
ENDROOT
BRANCH   6   7
ATOM      7  C   UNL     1       5.305   4.958  16.738  0.00  0.00    +0.000 A 
ATOM      8  C   UNL     1       5.023   4.201  15.594  0.00  0.00    +0.000 A 
ATOM      9  C   UNL     1       5.939   4.141  14.544  0.00  0.00    +0.000 A 
ATOM     10  C   UNL     1       7.117   4.857  14.656  0.00  0.00    +0.000 A 
ATOM     11  N   UNL     1       7.435   5.598  15.736  0.00  0.00    +0.000 NA
ATOM     12  C   UNL     1       6.529   5.621  16.748  0.00  0.00    +0.000 A 
ENDBRANCH   6   7
TORSDOF 1
ENDMDL
MODEL 9
REMARK VINA RESULT:      -5.4      3.149      4.743
REMARK  Name = 
REMARK  2 active torsions:
REMARK  status: ('A' for Active; 'I' for Inactive)
REMARK    1  A    between atoms: C_1  and  C_2
REMARK    2  A    between atoms: C_6  and  C_7
REMARK                            x       y       z     vdW  Elec       q    Type
REMARK                         _______ _______ _______ _____ _____    ______ ____
ROOT
ATOM      1  C   UNL     1       2.474   6.601  19.577  0.00  0.00    +0.000 C 
ATOM      2  C   UNL     1       2.350   5.127  19.806  0.00  0.00    +0.000 A 
ATOM      3  C   UNL     1       1.332   4.581  20.570  0.00  0.00    +0.000 A 
ATOM      4  S   UNL     1       1.394   2.882  20.657  0.00  0.00    +0.000 S 
ATOM      5  C   UNL     1       2.792   2.839  19.682  0.00  0.00    +0.000 A 
ATOM      6  C   UNL     1       3.220   4.092  19.275  0.00  0.00    +0.000 A 
ENDROOT
BRANCH   6   7
ATOM      7  C   UNL     1       4.411   4.230  18.429  0.00  0.00    +0.000 A 
ATOM      8  C   UNL     1       4.347   4.090  17.037  0.00  0.00    +0.000 A 
ATOM      9  C   UNL     1       5.501   4.203  16.263  0.00  0.00    +0.000 A 
ATOM     10  C   UNL     1       6.699   4.472  16.900  0.00  0.00    +0.000 A 
ATOM     11  N   UNL     1       6.812   4.614  18.236  0.00  0.00    +0.000 NA
ATOM     12  C   UNL     1       5.672   4.480  18.963  0.00  0.00    +0.000 A 
ENDBRANCH   6   7
TORSDOF 1
ENDMDL
